ligand
 OpenBabel11021811473D
libRbt.so/2013.1/901 2013/11/27
 13 12  0  0  0  0  0  0  0  0999 V2000
   30.2249   34.1135   47.8925 O   0  0  0  0  0  0  0  0  0  0  0  0
   31.3603   36.1406   49.5192 O   0  0  0  0  0  0  0  0  0  0  0  0
   32.5256   33.2202   44.2711 P   0  0  1  0  0  0  0  0  0  0  0  0
   31.9675   34.5030   43.7197 O   0  5  0  0  0  0  0  0  0  0  0  0
   33.8054   32.6020   44.0014 O   0  0  0  0  0  0  0  0  0  0  0  0
   31.8397   33.1131   45.7275 O   0  0  0  0  0  0  0  0  0  0  0  0
   33.9654   37.1362   50.1263 O   0  0  0  0  0  0  0  0  0  0  0  0
   30.4386   32.8027   45.8895 C   0  0  0  0  0  0  0  0  0  0  0  0
   30.0576   35.6123   49.8352 C   0  0  0  0  0  0  0  0  0  0  0  0
   32.9517   37.9929   49.5713 C   0  0  0  0  0  0  0  0  0  0  0  0
   30.0573   32.7904   47.3771 C   0  0  0  0  0  0  0  0  0  0  0  0
   29.9202   34.1680   49.2996 C   0  0  0  0  0  0  0  0  0  0  0  0
   31.5488   37.4888   49.9839 C   0  0  0  0  0  0  0  0  0  0  0  0
  1 12  1  0  0  0  0
  1 11  1  0  0  0  0
  2 13  1  0  0  0  0
  2  9  1  0  0  0  0
  3  4  1  1  0  0  0
  3  5  2  0  0  0  0
  3  6  1  0  0  0  0
  6  8  1  0  0  0  0
  7 10  1  0  0  0  0
  8 11  1  0  0  0  0
  9 12  1  0  0  0  0
 10 13  1  0  0  0  0
M  CHG  1   4  -1
M  END
>  <CHROM.1>
-178.04292554,-178.41622024,71.89164582,-179.02549647,64.55685507,179.59994503
-54.06845237,-58.89296075,-178.34490098,31.69849075,34.61446297,47.18434585
1.65223783,0.57354982,0.93856696

>  <Name>
ligand

>  <RI>
0

>  <Rbt.Current_Directory>
/home/itssahil/PROJECTS/Mol_Feturizer/New_Systems/rnas/3GS8

>  <Rbt.Executable>
rbdock ($Id: //depot/dev/client3/rdock/2013.1/src/exe/rbdock.cxx#4 $)

>  <Rbt.Library>
libRbt.so (2013.1, Build901 2013/11/27)

>  <Rbt.Parameter_File>
/export/apps/rDock/src/rDock_2013.1_src/data/scripts/dock_solv.prm

>  <Rbt.Receptor>
prm/pocket_docking_4.prm

>  <SCORE>
-7.7443

>  <SCORE.INTER>
8.29236

>  <SCORE.INTER.CONST>
1

>  <SCORE.INTER.POLAR>
0

>  <SCORE.INTER.ROT>
9

>  <SCORE.INTER.SOLV>
9.50661

>  <SCORE.INTER.VDW>
-7.24063

>  <SCORE.INTER.norm>
0.637874

>  <SCORE.INTRA>
-16.0367

>  <SCORE.INTRA.DIHEDRAL>
-30.9356

>  <SCORE.INTRA.DIHEDRAL.0>
31.9578

>  <SCORE.INTRA.POLAR>
0

>  <SCORE.INTRA.POLAR.0>
0

>  <SCORE.INTRA.REPUL>
0

>  <SCORE.INTRA.REPUL.0>
0

>  <SCORE.INTRA.SOLV>
-1.3164

>  <SCORE.INTRA.SOLV.lig_0>
-48.4032

>  <SCORE.INTRA.VDW>
0.0893582

>  <SCORE.INTRA.VDW.0>
-1.65238

>  <SCORE.INTRA.norm>
-1.23359

>  <SCORE.RESTR>
0

>  <SCORE.RESTR.CAVITY>
0

>  <SCORE.RESTR.norm>
0

>  <SCORE.SYSTEM>
0

>  <SCORE.SYSTEM.CONST>
0

>  <SCORE.SYSTEM.DIHEDRAL>
0

>  <SCORE.SYSTEM.SOLV>
0

>  <SCORE.SYSTEM.norm>
0

>  <SCORE.heavy>
13

>  <SCORE.norm>
-0.595715

>  <RMSD>
3.042

$$$$
ligand
 OpenBabel11021811473D
libRbt.so/2013.1/901 2013/11/27
 13 12  0  0  0  0  0  0  0  0999 V2000
   30.4199   34.2204   50.2836 O   0  0  0  0  0  0  0  0  0  0  0  0
   29.3899   36.8599   51.0113 O   0  0  0  0  0  0  0  0  0  0  0  0
   31.6313   33.7155   46.1180 P   0  0  1  0  0  0  0  0  0  0  0  0
   31.1538   32.4623   45.4378 O   0  5  0  0  0  0  0  0  0  0  0  0
   32.0454   34.9662   45.5205 O   0  0  0  0  0  0  0  0  0  0  0  0
   30.8606   33.6847   47.5352 O   0  0  0  0  0  0  0  0  0  0  0  0
   29.8389   39.0601   49.2357 O   0  0  0  0  0  0  0  0  0  0  0  0
   31.1975   32.7305   48.5656 C   0  0  0  0  0  0  0  0  0  0  0  0
   29.7706   35.8708   51.9874 C   0  0  0  0  0  0  0  0  0  0  0  0
   29.0277   39.2008   50.4154 C   0  0  0  0  0  0  0  0  0  0  0  0
   30.2663   32.8926   49.7761 C   0  0  0  0  0  0  0  0  0  0  0  0
   29.5622   34.4479   51.4185 C   0  0  0  0  0  0  0  0  0  0  0  0
   29.4989   38.2073   51.5032 C   0  0  0  0  0  0  0  0  0  0  0  0
  1 12  1  0  0  0  0
  1 11  1  0  0  0  0
  2 13  1  0  0  0  0
  2  9  1  0  0  0  0
  3  4  1  6  0  0  0
  3  5  2  0  0  0  0
  3  6  1  0  0  0  0
  6  8  1  0  0  0  0
  7 10  1  0  0  0  0
  8 11  1  0  0  0  0
  9 12  1  0  0  0  0
 10 13  1  0  0  0  0
M  CHG  1   4  -1
M  END
>  <CHROM.1>
178.13337833,-178.07633228,70.55712027,-177.56454714,-59.96519079,177.15352422
63.51706528,-59.79021806,179.46169692,30.47536597,35.12911094,48.84231189
2.80386379,1.24863470,-0.38899834

>  <Name>
ligand

>  <RI>
0

>  <Rbt.Current_Directory>
/home/itssahil/PROJECTS/Mol_Feturizer/New_Systems/rnas/3GS8

>  <Rbt.Executable>
rbdock ($Id: //depot/dev/client3/rdock/2013.1/src/exe/rbdock.cxx#4 $)

>  <Rbt.Library>
libRbt.so (2013.1, Build901 2013/11/27)

>  <Rbt.Parameter_File>
/export/apps/rDock/src/rDock_2013.1_src/data/scripts/dock_solv.prm

>  <Rbt.Receptor>
prm/pocket_docking_3.prm

>  <SCORE>
-6.66507

>  <SCORE.INTER>
9.40177

>  <SCORE.INTER.CONST>
1

>  <SCORE.INTER.POLAR>
0

>  <SCORE.INTER.ROT>
9

>  <SCORE.INTER.SOLV>
11.5332

>  <SCORE.INTER.VDW>
-7.17657

>  <SCORE.INTER.norm>
0.723213

>  <SCORE.INTRA>
-16.0668

>  <SCORE.INTRA.DIHEDRAL>
-31.0839

>  <SCORE.INTRA.DIHEDRAL.0>
31.9578

>  <SCORE.INTRA.POLAR>
0

>  <SCORE.INTRA.POLAR.0>
0

>  <SCORE.INTRA.REPUL>
0

>  <SCORE.INTRA.REPUL.0>
0

>  <SCORE.INTRA.SOLV>
-1.31953

>  <SCORE.INTRA.SOLV.lig_0>
-48.4032

>  <SCORE.INTRA.VDW>
0.134863

>  <SCORE.INTRA.VDW.0>
-1.65238

>  <SCORE.INTRA.norm>
-1.23591

>  <SCORE.RESTR>
0

>  <SCORE.RESTR.CAVITY>
0

>  <SCORE.RESTR.norm>
0

>  <SCORE.SYSTEM>
0

>  <SCORE.SYSTEM.CONST>
0

>  <SCORE.SYSTEM.DIHEDRAL>
0

>  <SCORE.SYSTEM.SOLV>
0

>  <SCORE.SYSTEM.norm>
0

>  <SCORE.heavy>
13

>  <SCORE.norm>
-0.512698

>  <RMSD>
3.069

$$$$
ligand
 OpenBabel11021811473D
libRbt.so/2013.1/901 2013/11/27
 13 12  0  0  0  0  0  0  0  0999 V2000
   29.8140   32.9731   49.0076 O   0  0  0  0  0  0  0  0  0  0  0  0
   29.9796   34.0161   51.6595 O   0  0  0  0  0  0  0  0  0  0  0  0
   31.3030   33.7554   46.1873 P   0  0  1  0  0  0  0  0  0  0  0  0
   32.3053   33.0186   45.3425 O   0  5  0  0  0  0  0  0  0  0  0  0
   31.3164   35.1409   46.6031 O   0  0  0  0  0  0  0  0  0  0  0  0
   29.9164   32.9966   45.8638 O   0  0  0  0  0  0  0  0  0  0  0  0
   28.1832   35.1616   53.4981 O   0  0  0  0  0  0  0  0  0  0  0  0
   28.8304   32.9547   46.8148 C   0  0  0  0  0  0  0  0  0  0  0  0
   31.0184   33.1612   51.1436 C   0  0  0  0  0  0  0  0  0  0  0  0
   29.3151   35.9205   53.0371 C   0  0  0  0  0  0  0  0  0  0  0  0
   29.2164   32.1093   48.0376 C   0  0  0  0  0  0  0  0  0  0  0  0
   30.4477   32.2185   50.0586 C   0  0  0  0  0  0  0  0  0  0  0  0
   30.4607   34.9658   52.6269 C   0  0  0  0  0  0  0  0  0  0  0  0
  1 12  1  0  0  0  0
  1 11  1  0  0  0  0
  2 13  1  0  0  0  0
  2  9  1  0  0  0  0
  3  4  1  6  0  0  0
  3  5  2  0  0  0  0
  3  6  1  0  0  0  0
  6  8  1  0  0  0  0
  7 10  1  0  0  0  0
  8 11  1  0  0  0  0
  9 12  1  0  0  0  0
 10 13  1  0  0  0  0
M  CHG  1   4  -1
M  END
>  <CHROM.1>
-176.69813044,175.10599485,152.87754133,-67.66195914,90.33287563,-177.03940589
56.04980895,54.64953753,-168.12782063,30.25870734,33.73420850,48.94666946
1.89165595,0.81935328,1.12499941

>  <Name>
ligand

>  <RI>
0

>  <Rbt.Current_Directory>
/home/itssahil/PROJECTS/Mol_Feturizer/New_Systems/rnas/3GS8

>  <Rbt.Executable>
rbdock ($Id: //depot/dev/client3/rdock/2013.1/src/exe/rbdock.cxx#4 $)

>  <Rbt.Library>
libRbt.so (2013.1, Build901 2013/11/27)

>  <Rbt.Parameter_File>
/export/apps/rDock/src/rDock_2013.1_src/data/scripts/dock_solv.prm

>  <Rbt.Receptor>
prm/pocket_docking_4.prm

>  <SCORE>
-6.3358

>  <SCORE.INTER>
6.75851

>  <SCORE.INTER.CONST>
1

>  <SCORE.INTER.POLAR>
0

>  <SCORE.INTER.ROT>
9

>  <SCORE.INTER.SOLV>
6.99668

>  <SCORE.INTER.VDW>
-7.42655

>  <SCORE.INTER.norm>
0.519885

>  <SCORE.INTRA>
-13.0943

>  <SCORE.INTRA.DIHEDRAL>
-27.4505

>  <SCORE.INTRA.DIHEDRAL.0>
31.9578

>  <SCORE.INTRA.POLAR>
0

>  <SCORE.INTRA.POLAR.0>
0

>  <SCORE.INTRA.REPUL>
0

>  <SCORE.INTRA.REPUL.0>
0

>  <SCORE.INTRA.SOLV>
1.64548

>  <SCORE.INTRA.SOLV.lig_0>
-48.4032

>  <SCORE.INTRA.VDW>
-0.191778

>  <SCORE.INTRA.VDW.0>
-1.65238

>  <SCORE.INTRA.norm>
-1.00725

>  <SCORE.RESTR>
0

>  <SCORE.RESTR.CAVITY>
0

>  <SCORE.RESTR.norm>
0

>  <SCORE.SYSTEM>
0

>  <SCORE.SYSTEM.CONST>
0

>  <SCORE.SYSTEM.DIHEDRAL>
0

>  <SCORE.SYSTEM.SOLV>
0

>  <SCORE.SYSTEM.norm>
0

>  <SCORE.heavy>
13

>  <SCORE.norm>
-0.487369

>  <RMSD>
3.776

$$$$
ligand
 OpenBabel11021811473D
libRbt.so/2013.1/901 2013/11/27
 13 12  0  0  0  0  0  0  0  0999 V2000
   32.2503   33.2592   44.9929 O   0  0  0  0  0  0  0  0  0  0  0  0
   31.2471   34.0760   47.5695 O   0  0  0  0  0  0  0  0  0  0  0  0
   35.8918   32.1936   45.2552 P   0  0  1  0  0  0  0  0  0  0  0  0
   36.5962   31.4890   44.1290 O   0  5  0  0  0  0  0  0  0  0  0  0
   36.3124   32.3428   46.6313 O   0  0  0  0  0  0  0  0  0  0  0  0
   35.0684   33.3608   44.5051 O   0  0  0  0  0  0  0  0  0  0  0  0
   32.7970   36.1055   48.9361 O   0  0  0  0  0  0  0  0  0  0  0  0
   34.1019   33.0692   43.4724 C   0  0  0  0  0  0  0  0  0  0  0  0
   30.3585   33.6775   46.5076 C   0  0  0  0  0  0  0  0  0  0  0  0
   31.6841   35.4336   49.5523 C   0  0  0  0  0  0  0  0  0  0  0  0
   32.8731   32.3652   44.0669 C   0  0  0  0  0  0  0  0  0  0  0  0
   31.0644   32.6748   45.5653 C   0  0  0  0  0  0  0  0  0  0  0  0
   30.6527   35.0216   48.4759 C   0  0  0  0  0  0  0  0  0  0  0  0
  1 12  1  0  0  0  0
  1 11  1  0  0  0  0
  2 13  1  0  0  0  0
  2  9  1  0  0  0  0
  3  4  1  6  0  0  0
  3  5  2  0  0  0  0
  3  6  1  0  0  0  0
  6  8  1  0  0  0  0
  7 10  1  0  0  0  0
  8 11  1  0  0  0  0
  9 12  1  0  0  0  0
 10 13  1  0  0  0  0
M  CHG  1   4  -1
M  END
>  <CHROM.1>
-177.00729931,-178.02416254,58.00437619,68.71295192,62.72326866,179.41637160
-59.12228033,63.23201268,178.46715476,33.41680694,33.36306880,46.05760256
2.36594508,-0.13781465,1.06656737

>  <Name>
ligand

>  <RI>
0

>  <Rbt.Current_Directory>
/home/itssahil/PROJECTS/Mol_Feturizer/New_Systems/rnas/3GS8

>  <Rbt.Executable>
rbdock ($Id: //depot/dev/client3/rdock/2013.1/src/exe/rbdock.cxx#4 $)

>  <Rbt.Library>
libRbt.so (2013.1, Build901 2013/11/27)

>  <Rbt.Parameter_File>
/export/apps/rDock/src/rDock_2013.1_src/data/scripts/dock_solv.prm

>  <Rbt.Receptor>
prm/pocket_docking_3.prm

>  <SCORE>
-7.26348

>  <SCORE.INTER>
7.86615

>  <SCORE.INTER.CONST>
1

>  <SCORE.INTER.POLAR>
0

>  <SCORE.INTER.ROT>
9

>  <SCORE.INTER.SOLV>
7.52714

>  <SCORE.INTER.VDW>
-6.86494

>  <SCORE.INTER.norm>
0.605089

>  <SCORE.INTRA>
-15.1296

>  <SCORE.INTRA.DIHEDRAL>
-31.0183

>  <SCORE.INTRA.DIHEDRAL.0>
31.9578

>  <SCORE.INTRA.POLAR>
0

>  <SCORE.INTRA.POLAR.0>
0

>  <SCORE.INTRA.REPUL>
0

>  <SCORE.INTRA.REPUL.0>
0

>  <SCORE.INTRA.SOLV>
0.365249

>  <SCORE.INTRA.SOLV.lig_0>
-48.4032

>  <SCORE.INTRA.VDW>
0.196918

>  <SCORE.INTRA.VDW.0>
-1.65238

>  <SCORE.INTRA.norm>
-1.16382

>  <SCORE.RESTR>
0

>  <SCORE.RESTR.CAVITY>
0

>  <SCORE.RESTR.norm>
0

>  <SCORE.SYSTEM>
0

>  <SCORE.SYSTEM.CONST>
0

>  <SCORE.SYSTEM.DIHEDRAL>
0

>  <SCORE.SYSTEM.SOLV>
0

>  <SCORE.SYSTEM.norm>
0

>  <SCORE.heavy>
13

>  <SCORE.norm>
-0.558729

>  <RMSD>
3.787

$$$$
ligand
 OpenBabel11021811473D
libRbt.so/2013.1/901 2013/11/27
 13 12  0  0  0  0  0  0  0  0999 V2000
   30.4450   32.6853   47.0709 O   0  0  0  0  0  0  0  0  0  0  0  0
   30.1844   32.8602   49.9847 O   0  0  0  0  0  0  0  0  0  0  0  0
   33.4994   32.4637   43.8370 P   0  0  1  0  0  0  0  0  0  0  0  0
   33.8159   31.0123   43.6039 O   0  5  0  0  0  0  0  0  0  0  0  0
   33.8577   33.6079   43.0276 O   0  0  0  0  0  0  0  0  0  0  0  0
   32.0976   32.4141   44.6343 O   0  0  0  0  0  0  0  0  0  0  0  0
   30.1244   34.7293   52.1459 O   0  0  0  0  0  0  0  0  0  0  0  0
   31.4360   33.6148   45.0885 C   0  0  0  0  0  0  0  0  0  0  0  0
   29.6069   31.7951   49.2048 C   0  0  0  0  0  0  0  0  0  0  0  0
   31.0922   33.6657   52.1043 C   0  0  0  0  0  0  0  0  0  0  0  0
   30.1229   33.2687   45.8059 C   0  0  0  0  0  0  0  0  0  0  0  0
   29.2552   32.2992   47.7857 C   0  0  0  0  0  0  0  0  0  0  0  0
   30.5193   32.4589   51.3248 C   0  0  0  0  0  0  0  0  0  0  0  0
  1 12  1  0  0  0  0
  1 11  1  0  0  0  0
  2 13  1  0  0  0  0
  2  9  1  0  0  0  0
  3  4  1  6  0  0  0
  3  5  2  0  0  0  0
  3  6  1  0  0  0  0
  6  8  1  0  0  0  0
  7 10  1  0  0  0  0
  8 11  1  0  0  0  0
  9 12  1  0  0  0  0
 10 13  1  0  0  0  0
M  CHG  1   4  -1
M  END
>  <CHROM.1>
-174.59076368,-178.34410317,178.64277221,179.63880852,72.05627367,179.26449677
64.06167568,59.28733168,-178.35907312,31.44598849,32.80933389,47.03862784
1.97670383,0.27552991,1.34580653

>  <Name>
ligand

>  <RI>
0

>  <Rbt.Current_Directory>
/home/itssahil/PROJECTS/Mol_Feturizer/New_Systems/rnas/3GS8

>  <Rbt.Executable>
rbdock ($Id: //depot/dev/client3/rdock/2013.1/src/exe/rbdock.cxx#4 $)

>  <Rbt.Library>
libRbt.so (2013.1, Build901 2013/11/27)

>  <Rbt.Parameter_File>
/export/apps/rDock/src/rDock_2013.1_src/data/scripts/dock_solv.prm

>  <Rbt.Receptor>
prm/pocket_docking_4.prm

>  <SCORE>
-10.2025

>  <SCORE.INTER>
5.797

>  <SCORE.INTER.CONST>
1

>  <SCORE.INTER.POLAR>
0

>  <SCORE.INTER.ROT>
9

>  <SCORE.INTER.SOLV>
10.5041

>  <SCORE.INTER.VDW>
-9.23668

>  <SCORE.INTER.norm>
0.445923

>  <SCORE.INTRA>
-15.9995

>  <SCORE.INTRA.DIHEDRAL>
-30.7518

>  <SCORE.INTRA.DIHEDRAL.0>
31.9578

>  <SCORE.INTRA.POLAR>
0

>  <SCORE.INTRA.POLAR.0>
0

>  <SCORE.INTRA.REPUL>
0

>  <SCORE.INTRA.REPUL.0>
0

>  <SCORE.INTRA.SOLV>
-1.47831

>  <SCORE.INTRA.SOLV.lig_0>
-48.4032

>  <SCORE.INTRA.VDW>
0.115551

>  <SCORE.INTRA.VDW.0>
-1.65238

>  <SCORE.INTRA.norm>
-1.23073

>  <SCORE.RESTR>
0

>  <SCORE.RESTR.CAVITY>
0

>  <SCORE.RESTR.norm>
0

>  <SCORE.SYSTEM>
0

>  <SCORE.SYSTEM.CONST>
0

>  <SCORE.SYSTEM.DIHEDRAL>
0

>  <SCORE.SYSTEM.SOLV>
0

>  <SCORE.SYSTEM.norm>
0

>  <SCORE.heavy>
13

>  <SCORE.norm>
-0.784807

>  <RMSD>
3.897

$$$$
ligand
 OpenBabel11021811473D
libRbt.so/2013.1/901 2013/11/27
 13 12  0  0  0  0  0  0  0  0999 V2000
   30.1573   32.5505   47.2229 O   0  0  0  0  0  0  0  0  0  0  0  0
   30.3888   32.3317   50.1347 O   0  0  0  0  0  0  0  0  0  0  0  0
   33.0242   32.6933   43.9372 P   0  0  1  0  0  0  0  0  0  0  0  0
   33.9688   33.4162   44.8571 O   0  5  0  0  0  0  0  0  0  0  0  0
   33.3326   31.7469   42.8874 O   0  0  0  0  0  0  0  0  0  0  0  0
   31.6836   32.5465   44.8229 O   0  0  0  0  0  0  0  0  0  0  0  0
   31.9306   34.7124   50.6224 O   0  0  0  0  0  0  0  0  0  0  0  0
   30.9260   33.6973   45.2557 C   0  0  0  0  0  0  0  0  0  0  0  0
   29.5699   31.4500   49.3423 C   0  0  0  0  0  0  0  0  0  0  0  0
   32.5419   33.4130   50.5360 C   0  0  0  0  0  0  0  0  0  0  0  0
   29.6990   33.2605   46.0695 C   0  0  0  0  0  0  0  0  0  0  0  0
   29.0591   32.1826   48.0797 C   0  0  0  0  0  0  0  0  0  0  0  0
   31.7142   32.4998   49.6015 C   0  0  0  0  0  0  0  0  0  0  0  0
  1 12  1  0  0  0  0
  1 11  1  0  0  0  0
  2 13  1  0  0  0  0
  2  9  1  0  0  0  0
  3  4  1  1  0  0  0
  3  5  2  0  0  0  0
  3  6  1  0  0  0  0
  6  8  1  0  0  0  0
  7 10  1  0  0  0  0
  8 11  1  0  0  0  0
  9 12  1  0  0  0  0
 10 13  1  0  0  0  0
M  CHG  1   4  -1
M  END
>  <CHROM.1>
-178.43604921,-177.83308691,64.31782389,179.54998301,60.94464599,-77.32366513
63.91918872,-61.35317165,176.33819261,31.54542982,32.80283318,46.89800145
1.91498568,0.31982100,1.41128209

>  <Name>
ligand

>  <RI>
0

>  <Rbt.Current_Directory>
/home/itssahil/PROJECTS/Mol_Feturizer/New_Systems/rnas/3GS8

>  <Rbt.Executable>
rbdock ($Id: //depot/dev/client3/rdock/2013.1/src/exe/rbdock.cxx#4 $)

>  <Rbt.Library>
libRbt.so (2013.1, Build901 2013/11/27)

>  <Rbt.Parameter_File>
/export/apps/rDock/src/rDock_2013.1_src/data/scripts/dock_solv.prm

>  <Rbt.Receptor>
prm/pocket_docking_4.prm

>  <SCORE>
-9.37612

>  <SCORE.INTER>
5.17053

>  <SCORE.INTER.CONST>
1

>  <SCORE.INTER.POLAR>
0

>  <SCORE.INTER.ROT>
9

>  <SCORE.INTER.SOLV>
11.4196

>  <SCORE.INTER.VDW>
-9.9595

>  <SCORE.INTER.norm>
0.397733

>  <SCORE.INTRA>
-14.5467

>  <SCORE.INTRA.DIHEDRAL>
-29.8445

>  <SCORE.INTRA.DIHEDRAL.0>
31.9578

>  <SCORE.INTRA.POLAR>
0

>  <SCORE.INTRA.POLAR.0>
0

>  <SCORE.INTRA.REPUL>
0

>  <SCORE.INTRA.REPUL.0>
0

>  <SCORE.INTRA.SOLV>
-1.10574

>  <SCORE.INTRA.SOLV.lig_0>
-48.4032

>  <SCORE.INTRA.VDW>
0.928465

>  <SCORE.INTRA.VDW.0>
-1.65238

>  <SCORE.INTRA.norm>
-1.11897

>  <SCORE.RESTR>
0

>  <SCORE.RESTR.CAVITY>
0

>  <SCORE.RESTR.norm>
0

>  <SCORE.SYSTEM>
0

>  <SCORE.SYSTEM.CONST>
0

>  <SCORE.SYSTEM.DIHEDRAL>
0

>  <SCORE.SYSTEM.SOLV>
0

>  <SCORE.SYSTEM.norm>
0

>  <SCORE.heavy>
13

>  <SCORE.norm>
-0.72124

>  <RMSD>
4.105

$$$$
ligand
 OpenBabel11021811473D
libRbt.so/2013.1/901 2013/11/27
 13 12  0  0  0  0  0  0  0  0999 V2000
   30.6252   32.3961   47.1025 O   0  0  0  0  0  0  0  0  0  0  0  0
   30.7575   32.7210   50.0043 O   0  0  0  0  0  0  0  0  0  0  0  0
   34.1069   33.9457   44.8917 P   0  0  1  0  0  0  0  0  0  0  0  0
   34.9283   32.8365   45.4883 O   0  5  0  0  0  0  0  0  0  0  0  0
   34.2330   34.5638   43.5898 O   0  0  0  0  0  0  0  0  0  0  0  0
   32.6629   33.7519   45.5849 O   0  0  0  0  0  0  0  0  0  0  0  0
   33.0852   33.0745   51.6863 O   0  0  0  0  0  0  0  0  0  0  0  0
   31.6346   32.9320   44.9882 C   0  0  0  0  0  0  0  0  0  0  0  0
   29.7937   31.8684   49.3560 C   0  0  0  0  0  0  0  0  0  0  0  0
   33.0731   33.4415   50.2954 C   0  0  0  0  0  0  0  0  0  0  0  0
   30.3496   32.9824   45.8279 C   0  0  0  0  0  0  0  0  0  0  0  0
   29.4585   32.4119   47.9475 C   0  0  0  0  0  0  0  0  0  0  0  0
   32.0969   32.5295   49.5159 C   0  0  0  0  0  0  0  0  0  0  0  0
  1 12  1  0  0  0  0
  1 11  1  0  0  0  0
  2 13  1  0  0  0  0
  2  9  1  0  0  0  0
  3  4  1  6  0  0  0
  3  5  2  0  0  0  0
  3  6  1  0  0  0  0
  6  8  1  0  0  0  0
  7 10  1  0  0  0  0
  8 11  1  0  0  0  0
  9 12  1  0  0  0  0
 10 13  1  0  0  0  0
M  CHG  1   4  -1
M  END
>  <CHROM.1>
-175.96416044,-177.97433128,-90.88130747,-177.35050569,-64.52235071,-76.84888143
63.27110090,62.94429673,179.89447579,32.26271373,33.11871095,47.19507175
2.00845404,0.26114781,1.66509857

>  <Name>
ligand

>  <RI>
0

>  <Rbt.Current_Directory>
/home/itssahil/PROJECTS/Mol_Feturizer/New_Systems/rnas/3GS8

>  <Rbt.Executable>
rbdock ($Id: //depot/dev/client3/rdock/2013.1/src/exe/rbdock.cxx#4 $)

>  <Rbt.Library>
libRbt.so (2013.1, Build901 2013/11/27)

>  <Rbt.Parameter_File>
/export/apps/rDock/src/rDock_2013.1_src/data/scripts/dock_solv.prm

>  <Rbt.Receptor>
prm/pocket_docking_4.prm

>  <SCORE>
-7.94352

>  <SCORE.INTER>
6.80716

>  <SCORE.INTER.CONST>
1

>  <SCORE.INTER.POLAR>
0

>  <SCORE.INTER.ROT>
9

>  <SCORE.INTER.SOLV>
5.07187

>  <SCORE.INTER.VDW>
-6.75251

>  <SCORE.INTER.norm>
0.523628

>  <SCORE.INTRA>
-14.7507

>  <SCORE.INTRA.DIHEDRAL>
-29.9393

>  <SCORE.INTRA.DIHEDRAL.0>
31.9578

>  <SCORE.INTRA.POLAR>
0

>  <SCORE.INTRA.POLAR.0>
0

>  <SCORE.INTRA.REPUL>
0

>  <SCORE.INTRA.REPUL.0>
0

>  <SCORE.INTRA.SOLV>
-1.07392

>  <SCORE.INTRA.SOLV.lig_0>
-48.4032

>  <SCORE.INTRA.VDW>
0.755944

>  <SCORE.INTRA.VDW.0>
-1.65238

>  <SCORE.INTRA.norm>
-1.13467

>  <SCORE.RESTR>
0

>  <SCORE.RESTR.CAVITY>
0

>  <SCORE.RESTR.norm>
0

>  <SCORE.SYSTEM>
0

>  <SCORE.SYSTEM.CONST>
0

>  <SCORE.SYSTEM.DIHEDRAL>
0

>  <SCORE.SYSTEM.SOLV>
0

>  <SCORE.SYSTEM.norm>
0

>  <SCORE.heavy>
13

>  <SCORE.norm>
-0.61104

>  <RMSD>
4.205

$$$$
ligand
 OpenBabel11021811473D
libRbt.so/2013.1/901 2013/11/27
 13 12  0  0  0  0  0  0  0  0999 V2000
   30.8005   32.7390   46.1923 O   0  0  0  0  0  0  0  0  0  0  0  0
   30.0836   32.1764   48.9056 O   0  0  0  0  0  0  0  0  0  0  0  0
   34.0133   31.3303   43.4988 P   0  0  1  0  0  0  0  0  0  0  0  0
   33.9491   31.7378   42.0529 O   0  5  0  0  0  0  0  0  0  0  0  0
   35.1805   31.1191   44.3271 O   0  0  0  0  0  0  0  0  0  0  0  0
   32.6533   31.9401   44.1167 O   0  0  0  0  0  0  0  0  0  0  0  0
   30.9961   32.7650   51.5666 O   0  0  0  0  0  0  0  0  0  0  0  0
   32.6040   33.2635   44.6928 C   0  0  0  0  0  0  0  0  0  0  0  0
   29.1004   32.1105   47.8544 C   0  0  0  0  0  0  0  0  0  0  0  0
   30.8983   31.4152   51.0787 C   0  0  0  0  0  0  0  0  0  0  0  0
   31.1712   33.6118   45.1222 C   0  0  0  0  0  0  0  0  0  0  0  0
   29.4891   33.0585   46.6960 C   0  0  0  0  0  0  0  0  0  0  0  0
   29.7779   31.3160   50.0171 C   0  0  0  0  0  0  0  0  0  0  0  0
  1 12  1  0  0  0  0
  1 11  1  0  0  0  0
  2 13  1  0  0  0  0
  2  9  1  0  0  0  0
  3  4  1  6  0  0  0
  3  5  2  0  0  0  0
  3  6  1  0  0  0  0
  6  8  1  0  0  0  0
  7 10  1  0  0  0  0
  8 11  1  0  0  0  0
  9 12  1  0  0  0  0
 10 13  1  0  0  0  0
M  CHG  1   4  -1
M  END
>  <CHROM.1>
-179.87931404,178.37883581,-90.86580548,176.56083824,65.99590860,179.91884696
56.89314231,60.95650827,176.85264135,31.82618880,32.12232372,46.34963943
2.13062834,-0.41501628,1.75755605

>  <Name>
ligand

>  <RI>
0

>  <Rbt.Current_Directory>
/home/itssahil/PROJECTS/Mol_Feturizer/New_Systems/rnas/3GS8

>  <Rbt.Executable>
rbdock ($Id: //depot/dev/client3/rdock/2013.1/src/exe/rbdock.cxx#4 $)

>  <Rbt.Library>
libRbt.so (2013.1, Build901 2013/11/27)

>  <Rbt.Parameter_File>
/export/apps/rDock/src/rDock_2013.1_src/data/scripts/dock_solv.prm

>  <Rbt.Receptor>
prm/pocket_docking_5.prm

>  <SCORE>
-12.7033

>  <SCORE.INTER>
3.48879

>  <SCORE.INTER.CONST>
1

>  <SCORE.INTER.POLAR>
0

>  <SCORE.INTER.ROT>
9

>  <SCORE.INTER.SOLV>
13.1305

>  <SCORE.INTER.VDW>
-11.651

>  <SCORE.INTER.norm>
0.268368

>  <SCORE.INTRA>
-16.1921

>  <SCORE.INTRA.DIHEDRAL>
-31.2422

>  <SCORE.INTRA.DIHEDRAL.0>
31.9578

>  <SCORE.INTRA.POLAR>
0

>  <SCORE.INTRA.POLAR.0>
0

>  <SCORE.INTRA.REPUL>
0

>  <SCORE.INTRA.REPUL.0>
0

>  <SCORE.INTRA.SOLV>
-1.23367

>  <SCORE.INTRA.SOLV.lig_0>
-48.4032

>  <SCORE.INTRA.VDW>
0.0459055

>  <SCORE.INTRA.VDW.0>
-1.65238

>  <SCORE.INTRA.norm>
-1.24554

>  <SCORE.RESTR>
0

>  <SCORE.RESTR.CAVITY>
0

>  <SCORE.RESTR.norm>
0

>  <SCORE.SYSTEM>
0

>  <SCORE.SYSTEM.CONST>
0

>  <SCORE.SYSTEM.DIHEDRAL>
0

>  <SCORE.SYSTEM.SOLV>
0

>  <SCORE.SYSTEM.norm>
0

>  <SCORE.heavy>
13

>  <SCORE.norm>
-0.977174

>  <RMSD>
4.267

$$$$
ligand
 OpenBabel11021811473D
libRbt.so/2013.1/901 2013/11/27
 13 12  0  0  0  0  0  0  0  0999 V2000
   33.1544   32.8931   45.2512 O   0  0  0  0  0  0  0  0  0  0  0  0
   30.3436   32.9197   45.8840 O   0  0  0  0  0  0  0  0  0  0  0  0
   36.9530   31.8108   47.1141 P   0  0  1  0  0  0  0  0  0  0  0  0
   37.9386   31.4447   46.0391 O   0  5  0  0  0  0  0  0  0  0  0  0
   37.2026   32.0918   48.5111 O   0  0  0  0  0  0  0  0  0  0  0  0
   35.7909   32.5834   46.3043 O   0  0  0  0  0  0  0  0  0  0  0  0
   29.6445   31.8336   48.4546 O   0  0  0  0  0  0  0  0  0  0  0  0
   34.7623   33.3378   46.9812 C   0  0  0  0  0  0  0  0  0  0  0  0
   30.9420   33.9530   45.0777 C   0  0  0  0  0  0  0  0  0  0  0  0
   28.6454   32.2253   47.4964 C   0  0  0  0  0  0  0  0  0  0  0  0
   33.7900   33.9560   45.9656 C   0  0  0  0  0  0  0  0  0  0  0  0
   32.1743   33.3998   44.3247 C   0  0  0  0  0  0  0  0  0  0  0  0
   29.1848   33.3702   46.6074 C   0  0  0  0  0  0  0  0  0  0  0  0
  1 12  1  0  0  0  0
  1 11  1  0  0  0  0
  2 13  1  0  0  0  0
  2  9  1  0  0  0  0
  3  4  1  6  0  0  0
  3  5  2  0  0  0  0
  3  6  1  0  0  0  0
  6  8  1  0  0  0  0
  7 10  1  0  0  0  0
  8 11  1  0  0  0  0
  9 12  1  0  0  0  0
 10 13  1  0  0  0  0
M  CHG  1   4  -1
M  END
>  <CHROM.1>
-71.01227668,-177.29458322,-167.78506477,-179.63809309,62.13039991,-179.72459430
-58.92499345,61.23747467,177.04264213,33.47546872,32.65365436,46.53033348
-3.04305370,-0.08439718,2.01166990

>  <Name>
ligand

>  <RI>
0

>  <Rbt.Current_Directory>
/home/itssahil/PROJECTS/Mol_Feturizer/New_Systems/rnas/3GS8

>  <Rbt.Executable>
rbdock ($Id: //depot/dev/client3/rdock/2013.1/src/exe/rbdock.cxx#4 $)

>  <Rbt.Library>
libRbt.so (2013.1, Build901 2013/11/27)

>  <Rbt.Parameter_File>
/export/apps/rDock/src/rDock_2013.1_src/data/scripts/dock_solv.prm

>  <Rbt.Receptor>
prm/pocket_docking_4.prm

>  <SCORE>
-9.57103

>  <SCORE.INTER>
5.22493

>  <SCORE.INTER.CONST>
1

>  <SCORE.INTER.POLAR>
0

>  <SCORE.INTER.ROT>
9

>  <SCORE.INTER.SOLV>
7.72393

>  <SCORE.INTER.VDW>
-8.69136

>  <SCORE.INTER.norm>
0.401918

>  <SCORE.INTRA>
-14.796

>  <SCORE.INTRA.DIHEDRAL>
-30.5025

>  <SCORE.INTRA.DIHEDRAL.0>
31.9578

>  <SCORE.INTRA.POLAR>
0

>  <SCORE.INTRA.POLAR.0>
0

>  <SCORE.INTRA.REPUL>
0

>  <SCORE.INTRA.REPUL.0>
0

>  <SCORE.INTRA.SOLV>
-1.2892

>  <SCORE.INTRA.SOLV.lig_0>
-48.4032

>  <SCORE.INTRA.VDW>
1.09987

>  <SCORE.INTRA.VDW.0>
-1.65238

>  <SCORE.INTRA.norm>
-1.13815

>  <SCORE.RESTR>
0

>  <SCORE.RESTR.CAVITY>
0

>  <SCORE.RESTR.norm>
0

>  <SCORE.SYSTEM>
0

>  <SCORE.SYSTEM.CONST>
0

>  <SCORE.SYSTEM.DIHEDRAL>
0

>  <SCORE.SYSTEM.SOLV>
0

>  <SCORE.SYSTEM.norm>
0

>  <SCORE.heavy>
13

>  <SCORE.norm>
-0.736233

>  <RMSD>
4.270

$$$$
ligand
 OpenBabel11021811473D
libRbt.so/2013.1/901 2013/11/27
 13 12  0  0  0  0  0  0  0  0999 V2000
   30.8010   32.6317   46.3301 O   0  0  0  0  0  0  0  0  0  0  0  0
   30.2950   32.1677   49.1088 O   0  0  0  0  0  0  0  0  0  0  0  0
   33.9475   31.2966   43.5223 P   0  0  1  0  0  0  0  0  0  0  0  0
   33.9272   31.8783   42.1358 O   0  5  0  0  0  0  0  0  0  0  0  0
   35.0893   30.9585   44.3437 O   0  0  0  0  0  0  0  0  0  0  0  0
   32.5859   31.8590   44.1803 O   0  0  0  0  0  0  0  0  0  0  0  0
   31.4703   32.8774   51.6353 O   0  0  0  0  0  0  0  0  0  0  0  0
   32.4959   33.1947   44.7219 C   0  0  0  0  0  0  0  0  0  0  0  0
   29.2464   32.0139   48.1328 C   0  0  0  0  0  0  0  0  0  0  0  0
   31.3047   31.5064   51.2323 C   0  0  0  0  0  0  0  0  0  0  0  0
   31.0696   33.4828   45.2130 C   0  0  0  0  0  0  0  0  0  0  0  0
   29.5144   32.9218   46.9098 C   0  0  0  0  0  0  0  0  0  0  0  0
   30.0847   31.3752   50.2907 C   0  0  0  0  0  0  0  0  0  0  0  0
  1 12  1  0  0  0  0
  1 11  1  0  0  0  0
  2 13  1  0  0  0  0
  2  9  1  0  0  0  0
  3  4  1  6  0  0  0
  3  5  2  0  0  0  0
  3  6  1  0  0  0  0
  6  8  1  0  0  0  0
  7 10  1  0  0  0  0
  8 11  1  0  0  0  0
  9 12  1  0  0  0  0
 10 13  1  0  0  0  0
M  CHG  1   4  -1
M  END
>  <CHROM.1>
-178.93055839,175.37427547,-80.66012635,177.05397994,66.42721637,178.36949079
56.89549175,61.09408774,175.47850255,31.89966331,32.09078598,46.46552076
2.06442969,-0.38730004,1.70379236

>  <Name>
ligand

>  <RI>
0

>  <Rbt.Current_Directory>
/home/itssahil/PROJECTS/Mol_Feturizer/New_Systems/rnas/3GS8

>  <Rbt.Executable>
rbdock ($Id: //depot/dev/client3/rdock/2013.1/src/exe/rbdock.cxx#4 $)

>  <Rbt.Library>
libRbt.so (2013.1, Build901 2013/11/27)

>  <Rbt.Parameter_File>
/export/apps/rDock/src/rDock_2013.1_src/data/scripts/dock_solv.prm

>  <Rbt.Receptor>
prm/pocket_docking_4.prm

>  <SCORE>
-12.5574

>  <SCORE.INTER>
3.58886

>  <SCORE.INTER.CONST>
1

>  <SCORE.INTER.POLAR>
0

>  <SCORE.INTER.ROT>
9

>  <SCORE.INTER.SOLV>
13.9011

>  <SCORE.INTER.VDW>
-11.8411

>  <SCORE.INTER.norm>
0.276067

>  <SCORE.INTRA>
-16.1462

>  <SCORE.INTRA.DIHEDRAL>
-31.2017

>  <SCORE.INTRA.DIHEDRAL.0>
31.9578

>  <SCORE.INTRA.POLAR>
0

>  <SCORE.INTRA.POLAR.0>
0

>  <SCORE.INTRA.REPUL>
0

>  <SCORE.INTRA.REPUL.0>
0

>  <SCORE.INTRA.SOLV>
-1.20875

>  <SCORE.INTRA.SOLV.lig_0>
-48.4032

>  <SCORE.INTRA.VDW>
0.0590036

>  <SCORE.INTRA.VDW.0>
-1.65238

>  <SCORE.INTRA.norm>
-1.24202

>  <SCORE.RESTR>
0

>  <SCORE.RESTR.CAVITY>
0

>  <SCORE.RESTR.norm>
0

>  <SCORE.SYSTEM>
0

>  <SCORE.SYSTEM.CONST>
0

>  <SCORE.SYSTEM.DIHEDRAL>
0

>  <SCORE.SYSTEM.SOLV>
0

>  <SCORE.SYSTEM.norm>
0

>  <SCORE.heavy>
13

>  <SCORE.norm>
-0.965951

>  <RMSD>
4.295

$$$$
ligand
 OpenBabel11021811473D
libRbt.so/2013.1/901 2013/11/27
 13 12  0  0  0  0  0  0  0  0999 V2000
   29.4905   32.5622   46.5671 O   0  0  0  0  0  0  0  0  0  0  0  0
   27.9068   32.2126   49.0842 O   0  0  0  0  0  0  0  0  0  0  0  0
   33.6542   32.8964   43.6959 P   0  0  1  0  0  0  0  0  0  0  0  0
   33.7515   33.6233   42.3832 O   0  5  0  0  0  0  0  0  0  0  0  0
   34.7231   32.4313   44.5525 O   0  0  0  0  0  0  0  0  0  0  0  0
   32.2649   33.4342   44.3155 O   0  0  0  0  0  0  0  0  0  0  0  0
   30.9416   30.9924   50.8145 O   0  0  0  0  0  0  0  0  0  0  0  0
   31.5436   32.6950   45.3250 C   0  0  0  0  0  0  0  0  0  0  0  0
   27.3727   32.1498   47.7475 C   0  0  0  0  0  0  0  0  0  0  0  0
   29.6508   31.6145   50.6863 C   0  0  0  0  0  0  0  0  0  0  0  0
   30.2226   33.3991   45.6683 C   0  0  0  0  0  0  0  0  0  0  0  0
   28.1693   33.0841   46.8072 C   0  0  0  0  0  0  0  0  0  0  0  0
   29.1678   31.5337   49.2192 C   0  0  0  0  0  0  0  0  0  0  0  0
  1 12  1  0  0  0  0
  1 11  1  0  0  0  0
  2 13  1  0  0  0  0
  2  9  1  0  0  0  0
  3  4  1  1  0  0  0
  3  5  2  0  0  0  0
  3  6  1  0  0  0  0
  6  8  1  0  0  0  0
  7 10  1  0  0  0  0
  8 11  1  0  0  0  0
  9 12  1  0  0  0  0
 10 13  1  0  0  0  0
M  CHG  1   4  -1
M  END
>  <CHROM.1>
178.34741733,-178.44621313,158.41831218,-176.69985498,174.28603338,-73.50275965
70.51105142,-177.28363275,-173.07001112,30.96672723,32.54274184,46.42014705
2.26487613,-0.15930840,1.91600131

>  <Name>
ligand

>  <RI>
0

>  <Rbt.Current_Directory>
/home/itssahil/PROJECTS/Mol_Feturizer/New_Systems/rnas/3GS8

>  <Rbt.Executable>
rbdock ($Id: //depot/dev/client3/rdock/2013.1/src/exe/rbdock.cxx#4 $)

>  <Rbt.Library>
libRbt.so (2013.1, Build901 2013/11/27)

>  <Rbt.Parameter_File>
/export/apps/rDock/src/rDock_2013.1_src/data/scripts/dock_solv.prm

>  <Rbt.Receptor>
prm/pocket_docking_5.prm

>  <SCORE>
-10.6464

>  <SCORE.INTER>
3.84368

>  <SCORE.INTER.CONST>
1

>  <SCORE.INTER.POLAR>
0

>  <SCORE.INTER.ROT>
9

>  <SCORE.INTER.SOLV>
8.30874

>  <SCORE.INTER.VDW>
-9.80713

>  <SCORE.INTER.norm>
0.295668

>  <SCORE.INTRA>
-14.49

>  <SCORE.INTRA.DIHEDRAL>
-29.9242

>  <SCORE.INTRA.DIHEDRAL.0>
31.9578

>  <SCORE.INTRA.POLAR>
0

>  <SCORE.INTRA.POLAR.0>
0

>  <SCORE.INTRA.REPUL>
0

>  <SCORE.INTRA.REPUL.0>
0

>  <SCORE.INTRA.SOLV>
-1.67576

>  <SCORE.INTRA.SOLV.lig_0>
-48.4032

>  <SCORE.INTRA.VDW>
1.30992

>  <SCORE.INTRA.VDW.0>
-1.65238

>  <SCORE.INTRA.norm>
-1.11462

>  <SCORE.RESTR>
0

>  <SCORE.RESTR.CAVITY>
0

>  <SCORE.RESTR.norm>
0

>  <SCORE.SYSTEM>
0

>  <SCORE.SYSTEM.CONST>
0

>  <SCORE.SYSTEM.DIHEDRAL>
0

>  <SCORE.SYSTEM.SOLV>
0

>  <SCORE.SYSTEM.norm>
0

>  <SCORE.heavy>
13

>  <SCORE.norm>
-0.818952

>  <RMSD>
4.371

$$$$
ligand
 OpenBabel11021811473D
libRbt.so/2013.1/901 2013/11/27
 13 12  0  0  0  0  0  0  0  0999 V2000
   30.3499   32.4531   47.3789 O   0  0  0  0  0  0  0  0  0  0  0  0
   31.0280   32.2101   50.1161 O   0  0  0  0  0  0  0  0  0  0  0  0
   33.0613   32.5161   43.9535 P   0  0  1  0  0  0  0  0  0  0  0  0
   33.9336   33.5037   44.6779 O   0  5  0  0  0  0  0  0  0  0  0  0
   33.4551   31.4429   43.0669 O   0  0  0  0  0  0  0  0  0  0  0  0
   31.7842   32.3648   44.9279 O   0  0  0  0  0  0  0  0  0  0  0  0
   32.4047   33.7338   52.0920 O   0  0  0  0  0  0  0  0  0  0  0  0
   30.9769   33.5001   45.3085 C   0  0  0  0  0  0  0  0  0  0  0  0
   29.9047   31.4760   49.5914 C   0  0  0  0  0  0  0  0  0  0  0  0
   32.8422   32.4095   51.7392 C   0  0  0  0  0  0  0  0  0  0  0  0
   29.8085   33.0563   46.2010 C   0  0  0  0  0  0  0  0  0  0  0  0
   29.3213   32.1993   48.3552 C   0  0  0  0  0  0  0  0  0  0  0  0
   31.6407   31.5684   51.2483 C   0  0  0  0  0  0  0  0  0  0  0  0
  1 12  1  0  0  0  0
  1 11  1  0  0  0  0
  2 13  1  0  0  0  0
  2  9  1  0  0  0  0
  3  4  1  1  0  0  0
  3  5  2  0  0  0  0
  3  6  1  0  0  0  0
  6  8  1  0  0  0  0
  7 10  1  0  0  0  0
  8 11  1  0  0  0  0
  9 12  1  0  0  0  0
 10 13  1  0  0  0  0
M  CHG  1   4  -1
M  END
>  <CHROM.1>
176.84710884,179.39821606,57.80847276,178.18602010,60.64399881,-178.37400038
53.41239480,58.43178514,171.07147304,31.72944727,32.50353450,47.26657824
1.76235165,0.11559509,1.56050130

>  <Name>
ligand

>  <RI>
0

>  <Rbt.Current_Directory>
/home/itssahil/PROJECTS/Mol_Feturizer/New_Systems/rnas/3GS8

>  <Rbt.Executable>
rbdock ($Id: //depot/dev/client3/rdock/2013.1/src/exe/rbdock.cxx#4 $)

>  <Rbt.Library>
libRbt.so (2013.1, Build901 2013/11/27)

>  <Rbt.Parameter_File>
/export/apps/rDock/src/rDock_2013.1_src/data/scripts/dock_solv.prm

>  <Rbt.Receptor>
prm/pocket_docking_4.prm

>  <SCORE>
-11.4462

>  <SCORE.INTER>
4.4067

>  <SCORE.INTER.CONST>
1

>  <SCORE.INTER.POLAR>
0

>  <SCORE.INTER.ROT>
9

>  <SCORE.INTER.SOLV>
12.2544

>  <SCORE.INTER.VDW>
-10.747

>  <SCORE.INTER.norm>
0.338977

>  <SCORE.INTRA>
-15.8529

>  <SCORE.INTRA.DIHEDRAL>
-30.8974

>  <SCORE.INTRA.DIHEDRAL.0>
31.9578

>  <SCORE.INTRA.POLAR>
0

>  <SCORE.INTRA.POLAR.0>
0

>  <SCORE.INTRA.REPUL>
0

>  <SCORE.INTRA.REPUL.0>
0

>  <SCORE.INTRA.SOLV>
-1.24089

>  <SCORE.INTRA.SOLV.lig_0>
-48.4032

>  <SCORE.INTRA.VDW>
0.216288

>  <SCORE.INTRA.VDW.0>
-1.65238

>  <SCORE.INTRA.norm>
-1.21945

>  <SCORE.RESTR>
0

>  <SCORE.RESTR.CAVITY>
0

>  <SCORE.RESTR.norm>
0

>  <SCORE.SYSTEM>
0

>  <SCORE.SYSTEM.CONST>
0

>  <SCORE.SYSTEM.DIHEDRAL>
0

>  <SCORE.SYSTEM.SOLV>
0

>  <SCORE.SYSTEM.norm>
0

>  <SCORE.heavy>
13

>  <SCORE.norm>
-0.880475

>  <RMSD>
4.420

$$$$
ligand
 OpenBabel11021811473D
libRbt.so/2013.1/901 2013/11/27
 13 12  0  0  0  0  0  0  0  0999 V2000
   33.3867   32.4817   49.5478 O   0  0  0  0  0  0  0  0  0  0  0  0
   29.8614   32.3330   48.4438 O   0  0  0  0  0  0  0  0  0  0  0  0
   37.3546   31.4332   48.4211 P   0  0  1  0  0  0  0  0  0  0  0  0
   38.0789   30.2446   48.9900 O   0  5  0  0  0  0  0  0  0  0  0  0
   37.5349   32.0706   47.1350 O   0  0  0  0  0  0  0  0  0  0  0  0
   35.8979   31.3439   49.1090 O   0  0  0  0  0  0  0  0  0  0  0  0
   27.0464   32.3242   48.5705 O   0  0  0  0  0  0  0  0  0  0  0  0
   35.6010   32.0110   50.3550 C   0  0  0  0  0  0  0  0  0  0  0  0
   31.2100   32.8400   48.4608 C   0  0  0  0  0  0  0  0  0  0  0  0
   27.7086   32.1240   47.3091 C   0  0  0  0  0  0  0  0  0  0  0  0
   34.0980   31.9366   50.6619 C   0  0  0  0  0  0  0  0  0  0  0  0
   31.9642   32.3165   49.7052 C   0  0  0  0  0  0  0  0  0  0  0  0
   29.0946   32.8102   47.3242 C   0  0  0  0  0  0  0  0  0  0  0  0
  1 12  1  0  0  0  0
  1 11  1  0  0  0  0
  2 13  1  0  0  0  0
  2  9  1  0  0  0  0
  3  4  1  6  0  0  0
  3  5  2  0  0  0  0
  3  6  1  0  0  0  0
  6  8  1  0  0  0  0
  7 10  1  0  0  0  0
  8 11  1  0  0  0  0
  9 12  1  0  0  0  0
 10 13  1  0  0  0  0
M  CHG  1   4  -1
M  END
>  <CHROM.1>
-176.92575391,174.94661640,91.13951869,171.29227357,-55.50349509,178.61635938
163.35209520,55.04531710,173.94505500,33.37427662,31.96117891,48.73584228
3.07677749,0.12593377,-1.57262183

>  <Name>
ligand

>  <RI>
0

>  <Rbt.Current_Directory>
/home/itssahil/PROJECTS/Mol_Feturizer/New_Systems/rnas/3GS8

>  <Rbt.Executable>
rbdock ($Id: //depot/dev/client3/rdock/2013.1/src/exe/rbdock.cxx#4 $)

>  <Rbt.Library>
libRbt.so (2013.1, Build901 2013/11/27)

>  <Rbt.Parameter_File>
/export/apps/rDock/src/rDock_2013.1_src/data/scripts/dock_solv.prm

>  <Rbt.Receptor>
prm/pocket_docking_5.prm

>  <SCORE>
-12.4324

>  <SCORE.INTER>
2.51702

>  <SCORE.INTER.CONST>
1

>  <SCORE.INTER.POLAR>
0

>  <SCORE.INTER.ROT>
9

>  <SCORE.INTER.SOLV>
8.55272

>  <SCORE.INTER.VDW>
-10.7729

>  <SCORE.INTER.norm>
0.193617

>  <SCORE.INTRA>
-14.9494

>  <SCORE.INTRA.DIHEDRAL>
-28.8628

>  <SCORE.INTRA.DIHEDRAL.0>
31.9578

>  <SCORE.INTRA.POLAR>
0

>  <SCORE.INTRA.POLAR.0>
0

>  <SCORE.INTRA.REPUL>
0

>  <SCORE.INTRA.REPUL.0>
0

>  <SCORE.INTRA.SOLV>
-1.50565

>  <SCORE.INTRA.SOLV.lig_0>
-48.4032

>  <SCORE.INTRA.VDW>
0.2348

>  <SCORE.INTRA.VDW.0>
-1.65238

>  <SCORE.INTRA.norm>
-1.14996

>  <SCORE.RESTR>
0

>  <SCORE.RESTR.CAVITY>
0

>  <SCORE.RESTR.norm>
0

>  <SCORE.SYSTEM>
0

>  <SCORE.SYSTEM.CONST>
0

>  <SCORE.SYSTEM.DIHEDRAL>
0

>  <SCORE.SYSTEM.SOLV>
0

>  <SCORE.SYSTEM.norm>
0

>  <SCORE.heavy>
13

>  <SCORE.norm>
-0.956341

>  <RMSD>
4.581

$$$$
ligand
 OpenBabel11021811473D
libRbt.so/2013.1/901 2013/11/27
 13 12  0  0  0  0  0  0  0  0999 V2000
   32.3960   31.8731   50.4761 O   0  0  0  0  0  0  0  0  0  0  0  0
   29.6063   31.9559   49.6774 O   0  0  0  0  0  0  0  0  0  0  0  0
   36.1269   31.9873   48.2236 P   0  0  1  0  0  0  0  0  0  0  0  0
   35.4355   32.8804   47.2309 O   0  5  0  0  0  0  0  0  0  0  0  0
   37.5368   31.9057   48.5370 O   0  0  0  0  0  0  0  0  0  0  0  0
   35.0065   31.7617   49.3626 O   0  0  0  0  0  0  0  0  0  0  0  0
   30.4287   33.3940   46.3679 O   0  0  0  0  0  0  0  0  0  0  0  0
   34.5895   32.8275   50.2434 C   0  0  0  0  0  0  0  0  0  0  0  0
   30.1331   30.9109   50.5179 C   0  0  0  0  0  0  0  0  0  0  0  0
   29.6795   33.2090   47.5821 C   0  0  0  0  0  0  0  0  0  0  0  0
   33.5237   32.3265   51.2293 C   0  0  0  0  0  0  0  0  0  0  0  0
   31.3304   31.4383   51.3427 C   0  0  0  0  0  0  0  0  0  0  0  0
   30.3606   32.1381   48.4662 C   0  0  0  0  0  0  0  0  0  0  0  0
  1 12  1  0  0  0  0
  1 11  1  0  0  0  0
  2 13  1  0  0  0  0
  2  9  1  0  0  0  0
  3  4  1  1  0  0  0
  3  5  2  0  0  0  0
  3  6  1  0  0  0  0
  6  8  1  0  0  0  0
  7 10  1  0  0  0  0
  8 11  1  0  0  0  0
  9 12  1  0  0  0  0
 10 13  1  0  0  0  0
M  CHG  1   4  -1
M  END
>  <CHROM.1>
-178.30807591,176.33966476,-69.47875101,-179.58159255,-60.54595693,80.94315333
-61.20607623,-179.90821130,-177.61152857,33.08440061,32.18881378,49.06569389
-3.06052852,0.03429452,-1.25362754

>  <Name>
ligand

>  <RI>
0

>  <Rbt.Current_Directory>
/home/itssahil/PROJECTS/Mol_Feturizer/New_Systems/rnas/3GS8

>  <Rbt.Executable>
rbdock ($Id: //depot/dev/client3/rdock/2013.1/src/exe/rbdock.cxx#4 $)

>  <Rbt.Library>
libRbt.so (2013.1, Build901 2013/11/27)

>  <Rbt.Parameter_File>
/export/apps/rDock/src/rDock_2013.1_src/data/scripts/dock_solv.prm

>  <Rbt.Receptor>
prm/pocket_docking_4.prm

>  <SCORE>
-9.66635

>  <SCORE.INTER>
4.94353

>  <SCORE.INTER.CONST>
1

>  <SCORE.INTER.POLAR>
0

>  <SCORE.INTER.ROT>
9

>  <SCORE.INTER.SOLV>
7.04795

>  <SCORE.INTER.VDW>
-8.65363

>  <SCORE.INTER.norm>
0.380272

>  <SCORE.INTRA>
-14.6099

>  <SCORE.INTRA.DIHEDRAL>
-29.5698

>  <SCORE.INTRA.DIHEDRAL.0>
31.9578

>  <SCORE.INTRA.POLAR>
0

>  <SCORE.INTRA.POLAR.0>
0

>  <SCORE.INTRA.REPUL>
0

>  <SCORE.INTRA.REPUL.0>
0

>  <SCORE.INTRA.SOLV>
-1.20856

>  <SCORE.INTRA.SOLV.lig_0>
-48.4032

>  <SCORE.INTRA.VDW>
0.779318

>  <SCORE.INTRA.VDW.0>
-1.65238

>  <SCORE.INTRA.norm>
-1.12384

>  <SCORE.RESTR>
0

>  <SCORE.RESTR.CAVITY>
0

>  <SCORE.RESTR.norm>
0

>  <SCORE.SYSTEM>
0

>  <SCORE.SYSTEM.CONST>
0

>  <SCORE.SYSTEM.DIHEDRAL>
0

>  <SCORE.SYSTEM.SOLV>
0

>  <SCORE.SYSTEM.norm>
0

>  <SCORE.heavy>
13

>  <SCORE.norm>
-0.743565

>  <RMSD>
4.607

$$$$
ligand
 OpenBabel11021811473D
libRbt.so/2013.1/901 2013/11/27
 13 12  0  0  0  0  0  0  0  0999 V2000
   31.5341   32.5179   46.5572 O   0  0  0  0  0  0  0  0  0  0  0  0
   32.0534   32.5828   49.3837 O   0  0  0  0  0  0  0  0  0  0  0  0
   35.0763   32.2916   44.0619 P   0  0  1  0  0  0  0  0  0  0  0  0
   34.8177   32.6704   42.6298 O   0  5  0  0  0  0  0  0  0  0  0  0
   36.3428   32.1759   44.7513 O   0  0  0  0  0  0  0  0  0  0  0  0
   33.7561   32.8146   44.8280 O   0  0  0  0  0  0  0  0  0  0  0  0
   34.6726   31.7083   50.2081 O   0  0  0  0  0  0  0  0  0  0  0  0
   32.4281   32.5490   44.3265 C   0  0  0  0  0  0  0  0  0  0  0  0
   30.7317   32.3204   48.8735 C   0  0  0  0  0  0  0  0  0  0  0  0
   33.7339   32.2878   51.1314 C   0  0  0  0  0  0  0  0  0  0  0  0
   31.3677   33.1278   45.2747 C   0  0  0  0  0  0  0  0  0  0  0  0
   30.5466   32.9921   47.4928 C   0  0  0  0  0  0  0  0  0  0  0  0
   32.2873   31.9891   50.6728 C   0  0  0  0  0  0  0  0  0  0  0  0
  1 12  1  0  0  0  0
  1 11  1  0  0  0  0
  2 13  1  0  0  0  0
  2  9  1  0  0  0  0
  3  4  1  6  0  0  0
  3  5  2  0  0  0  0
  3  6  1  0  0  0  0
  6  8  1  0  0  0  0
  7 10  1  0  0  0  0
  8 11  1  0  0  0  0
  9 12  1  0  0  0  0
 10 13  1  0  0  0  0
M  CHG  1   4  -1
M  END
>  <CHROM.1>
179.70313898,178.63403942,46.98798622,178.36253140,-59.61266924,179.69522809
58.20885764,-61.75058707,-178.57895553,33.23817830,32.44695967,46.67642132
1.92756966,-0.15484597,1.66703687

>  <Name>
ligand

>  <RI>
0

>  <Rbt.Current_Directory>
/home/itssahil/PROJECTS/Mol_Feturizer/New_Systems/rnas/3GS8

>  <Rbt.Executable>
rbdock ($Id: //depot/dev/client3/rdock/2013.1/src/exe/rbdock.cxx#4 $)

>  <Rbt.Library>
libRbt.so (2013.1, Build901 2013/11/27)

>  <Rbt.Parameter_File>
/export/apps/rDock/src/rDock_2013.1_src/data/scripts/dock_solv.prm

>  <Rbt.Receptor>
prm/pocket_docking_4.prm

>  <SCORE>
-11.4232

>  <SCORE.INTER>
4.65447

>  <SCORE.INTER.CONST>
1

>  <SCORE.INTER.POLAR>
0

>  <SCORE.INTER.ROT>
9

>  <SCORE.INTER.SOLV>
6.88225

>  <SCORE.INTER.VDW>
-8.7911

>  <SCORE.INTER.norm>
0.358036

>  <SCORE.INTRA>
-16.0777

>  <SCORE.INTRA.DIHEDRAL>
-31.6102

>  <SCORE.INTRA.DIHEDRAL.0>
31.9578

>  <SCORE.INTRA.POLAR>
0

>  <SCORE.INTRA.POLAR.0>
0

>  <SCORE.INTRA.REPUL>
0

>  <SCORE.INTRA.REPUL.0>
0

>  <SCORE.INTRA.SOLV>
-1.18496

>  <SCORE.INTRA.SOLV.lig_0>
-48.4032

>  <SCORE.INTRA.VDW>
0.319872

>  <SCORE.INTRA.VDW.0>
-1.65238

>  <SCORE.INTRA.norm>
-1.23675

>  <SCORE.RESTR>
0

>  <SCORE.RESTR.CAVITY>
0

>  <SCORE.RESTR.norm>
0

>  <SCORE.SYSTEM>
0

>  <SCORE.SYSTEM.CONST>
0

>  <SCORE.SYSTEM.DIHEDRAL>
0

>  <SCORE.SYSTEM.SOLV>
0

>  <SCORE.SYSTEM.norm>
0

>  <SCORE.heavy>
13

>  <SCORE.norm>
-0.878711

>  <RMSD>
4.638

$$$$
ligand
 OpenBabel11021811473D
libRbt.so/2013.1/901 2013/11/27
 13 12  0  0  0  0  0  0  0  0999 V2000
   33.2389   32.4472   44.7984 O   0  0  0  0  0  0  0  0  0  0  0  0
   29.7111   33.2250   45.6702 O   0  0  0  0  0  0  0  0  0  0  0  0
   37.3949   32.0784   45.7317 P   0  0  1  0  0  0  0  0  0  0  0  0
   37.5191   32.8223   47.0325 O   0  5  0  0  0  0  0  0  0  0  0  0
   37.9716   30.8046   45.3606 O   0  0  0  0  0  0  0  0  0  0  0  0
   35.9442   32.5262   45.1855 O   0  0  0  0  0  0  0  0  0  0  0  0
   27.4149   34.8484   45.9875 O   0  0  0  0  0  0  0  0  0  0  0  0
   35.4407   32.0822   43.9068 C   0  0  0  0  0  0  0  0  0  0  0  0
   31.0565   32.7579   45.8888 C   0  0  0  0  0  0  0  0  0  0  0  0
   27.4209   33.4950   46.4751 C   0  0  0  0  0  0  0  0  0  0  0  0
   34.0478   32.6723   43.6412 C   0  0  0  0  0  0  0  0  0  0  0  0
   31.9210   33.0045   44.6304 C   0  0  0  0  0  0  0  0  0  0  0  0
   28.8652   33.0640   46.8224 C   0  0  0  0  0  0  0  0  0  0  0  0
  1 12  1  0  0  0  0
  1 11  1  0  0  0  0
  2 13  1  0  0  0  0
  2  9  1  0  0  0  0
  3  4  1  1  0  0  0
  3  5  2  0  0  0  0
  3  6  1  0  0  0  0
  6  8  1  0  0  0  0
  7 10  1  0  0  0  0
  8 11  1  0  0  0  0
  9 12  1  0  0  0  0
 10 13  1  0  0  0  0
M  CHG  1   4  -1
M  END
>  <CHROM.1>
-179.86970145,-176.05412434,177.12062576,-179.43464276,-49.23440105,-178.07378703
-175.47967970,-56.35020430,178.68790426,33.31828814,32.70291101,45.50375441
0.09131347,0.18139857,-1.72959219

>  <Name>
ligand

>  <RI>
0

>  <Rbt.Current_Directory>
/home/itssahil/PROJECTS/Mol_Feturizer/New_Systems/rnas/3GS8

>  <Rbt.Executable>
rbdock ($Id: //depot/dev/client3/rdock/2013.1/src/exe/rbdock.cxx#4 $)

>  <Rbt.Library>
libRbt.so (2013.1, Build901 2013/11/27)

>  <Rbt.Parameter_File>
/export/apps/rDock/src/rDock_2013.1_src/data/scripts/dock_solv.prm

>  <Rbt.Receptor>
prm/pocket_docking_4.prm

>  <SCORE>
-10.5087

>  <SCORE.INTER>
5.38098

>  <SCORE.INTER.CONST>
1

>  <SCORE.INTER.POLAR>
0

>  <SCORE.INTER.ROT>
9

>  <SCORE.INTER.SOLV>
7.48437

>  <SCORE.INTER.VDW>
-8.50747

>  <SCORE.INTER.norm>
0.413922

>  <SCORE.INTRA>
-15.8913

>  <SCORE.INTRA.DIHEDRAL>
-30.8904

>  <SCORE.INTRA.DIHEDRAL.0>
31.9578

>  <SCORE.INTRA.POLAR>
0

>  <SCORE.INTRA.POLAR.0>
0

>  <SCORE.INTRA.REPUL>
0

>  <SCORE.INTRA.REPUL.0>
0

>  <SCORE.INTRA.SOLV>
-1.50816

>  <SCORE.INTRA.SOLV.lig_0>
-48.4032

>  <SCORE.INTRA.VDW>
0.308009

>  <SCORE.INTRA.VDW.0>
-1.65238

>  <SCORE.INTRA.norm>
-1.22241

>  <SCORE.RESTR>
0.00165075

>  <SCORE.RESTR.CAVITY>
0.00165075

>  <SCORE.RESTR.norm>
0.000126981

>  <SCORE.SYSTEM>
0

>  <SCORE.SYSTEM.CONST>
0

>  <SCORE.SYSTEM.DIHEDRAL>
0

>  <SCORE.SYSTEM.SOLV>
0

>  <SCORE.SYSTEM.norm>
0

>  <SCORE.heavy>
13

>  <SCORE.norm>
-0.808358

>  <RMSD>
4.708

$$$$
ligand
 OpenBabel11021811473D
libRbt.so/2013.1/901 2013/11/27
 13 12  0  0  0  0  0  0  0  0999 V2000
   32.3882   32.2554   44.4693 O   0  0  0  0  0  0  0  0  0  0  0  0
   30.4963   32.9596   46.6095 O   0  0  0  0  0  0  0  0  0  0  0  0
   36.7364   31.3791   43.6766 P   0  0  1  0  0  0  0  0  0  0  0  0
   36.7155   32.8127   43.2234 O   0  5  0  0  0  0  0  0  0  0  0  0
   37.2817   30.8251   44.8967 O   0  0  0  0  0  0  0  0  0  0  0  0
   35.4110   30.7567   42.9992 O   0  0  0  0  0  0  0  0  0  0  0  0
   29.7006   31.0238   48.6421 O   0  0  0  0  0  0  0  0  0  0  0  0
   34.1245   30.8078   43.6535 C   0  0  0  0  0  0  0  0  0  0  0  0
   30.4900   33.5757   45.3070 C   0  0  0  0  0  0  0  0  0  0  0  0
   29.3234   32.4116   48.6807 C   0  0  0  0  0  0  0  0  0  0  0  0
   33.6775   32.2638   43.8514 C   0  0  0  0  0  0  0  0  0  0  0  0
   31.9189   33.5950   44.7158 C   0  0  0  0  0  0  0  0  0  0  0  0
   29.2046   32.9679   47.2424 C   0  0  0  0  0  0  0  0  0  0  0  0
  1 12  1  0  0  0  0
  1 11  1  0  0  0  0
  2 13  1  0  0  0  0
  2  9  1  0  0  0  0
  3  4  1  1  0  0  0
  3  5  2  0  0  0  0
  3  6  1  0  0  0  0
  6  8  1  0  0  0  0
  7 10  1  0  0  0  0
  8 11  1  0  0  0  0
  9 12  1  0  0  0  0
 10 13  1  0  0  0  0
M  CHG  1   4  -1
M  END
>  <CHROM.1>
176.66147705,-174.75017429,-87.85404442,62.58202714,178.52953880,177.21080299
65.23037354,-65.37667224,178.59079906,33.23547907,32.04596872,45.09877070
2.81433373,-0.43028473,2.18185510

>  <Name>
ligand

>  <RI>
0

>  <Rbt.Current_Directory>
/home/itssahil/PROJECTS/Mol_Feturizer/New_Systems/rnas/3GS8

>  <Rbt.Executable>
rbdock ($Id: //depot/dev/client3/rdock/2013.1/src/exe/rbdock.cxx#4 $)

>  <Rbt.Library>
libRbt.so (2013.1, Build901 2013/11/27)

>  <Rbt.Parameter_File>
/export/apps/rDock/src/rDock_2013.1_src/data/scripts/dock_solv.prm

>  <Rbt.Receptor>
prm/pocket_docking_4.prm

>  <SCORE>
-10.9396

>  <SCORE.INTER>
4.0354

>  <SCORE.INTER.CONST>
1

>  <SCORE.INTER.POLAR>
0

>  <SCORE.INTER.ROT>
9

>  <SCORE.INTER.SOLV>
11.2671

>  <SCORE.INTER.VDW>
-10.6654

>  <SCORE.INTER.norm>
0.310415

>  <SCORE.INTRA>
-14.975

>  <SCORE.INTRA.DIHEDRAL>
-31.0973

>  <SCORE.INTRA.DIHEDRAL.0>
31.9578

>  <SCORE.INTRA.POLAR>
0

>  <SCORE.INTRA.POLAR.0>
0

>  <SCORE.INTRA.REPUL>
0

>  <SCORE.INTRA.REPUL.0>
0

>  <SCORE.INTRA.SOLV>
0.388837

>  <SCORE.INTRA.SOLV.lig_0>
-48.4032

>  <SCORE.INTRA.VDW>
0.379245

>  <SCORE.INTRA.VDW.0>
-1.65238

>  <SCORE.INTRA.norm>
-1.15192

>  <SCORE.RESTR>
0

>  <SCORE.RESTR.CAVITY>
0

>  <SCORE.RESTR.norm>
0

>  <SCORE.SYSTEM>
0

>  <SCORE.SYSTEM.CONST>
0

>  <SCORE.SYSTEM.DIHEDRAL>
0

>  <SCORE.SYSTEM.SOLV>
0

>  <SCORE.SYSTEM.norm>
0

>  <SCORE.heavy>
13

>  <SCORE.norm>
-0.841506

>  <RMSD>
4.713

$$$$
ligand
 OpenBabel11021811473D
libRbt.so/2013.1/901 2013/11/27
 13 12  0  0  0  0  0  0  0  0999 V2000
   27.9944   32.4514   48.3606 O   0  0  0  0  0  0  0  0  0  0  0  0
   27.7165   32.5004   51.2555 O   0  0  0  0  0  0  0  0  0  0  0  0
   31.2539   33.2828   45.5299 P   0  0  1  0  0  0  0  0  0  0  0  0
   31.6490   34.4065   46.4475 O   0  5  0  0  0  0  0  0  0  0  0  0
   32.1040   32.4274   44.7308 O   0  0  0  0  0  0  0  0  0  0  0  0
   29.8968   32.7194   46.1964 O   0  0  0  0  0  0  0  0  0  0  0  0
   27.1603   34.2862   53.4395 O   0  0  0  0  0  0  0  0  0  0  0  0
   28.7221   33.5456   46.3483 C   0  0  0  0  0  0  0  0  0  0  0  0
   27.4530   31.3182   50.4751 C   0  0  0  0  0  0  0  0  0  0  0  0
   28.3781   33.5234   53.3725 C   0  0  0  0  0  0  0  0  0  0  0  0
   27.5908   32.7559   47.0232 C   0  0  0  0  0  0  0  0  0  0  0  0
   26.9757   31.7074   49.0565 C   0  0  0  0  0  0  0  0  0  0  0  0
   28.1355   32.2058   52.5997 C   0  0  0  0  0  0  0  0  0  0  0  0
  1 12  1  0  0  0  0
  1 11  1  0  0  0  0
  2 13  1  0  0  0  0
  2  9  1  0  0  0  0
  3  4  1  1  0  0  0
  3  5  2  0  0  0  0
  3  6  1  0  0  0  0
  6  8  1  0  0  0  0
  7 10  1  0  0  0  0
  8 11  1  0  0  0  0
  9 12  1  0  0  0  0
 10 13  1  0  0  0  0
M  CHG  1   4  -1
M  END
>  <CHROM.1>
176.95906016,-179.23298626,61.11156781,-179.43934192,65.92411478,178.63028644
61.79632843,61.09808255,-179.99644814,29.07359534,32.90587476,48.54431336
2.10736203,0.48538861,1.33708196

>  <Name>
ligand

>  <RI>
0

>  <Rbt.Current_Directory>
/home/itssahil/PROJECTS/Mol_Feturizer/New_Systems/rnas/3GS8

>  <Rbt.Executable>
rbdock ($Id: //depot/dev/client3/rdock/2013.1/src/exe/rbdock.cxx#4 $)

>  <Rbt.Library>
libRbt.so (2013.1, Build901 2013/11/27)

>  <Rbt.Parameter_File>
/export/apps/rDock/src/rDock_2013.1_src/data/scripts/dock_solv.prm

>  <Rbt.Receptor>
prm/pocket_docking_5.prm

>  <SCORE>
-10.593

>  <SCORE.INTER>
5.51068

>  <SCORE.INTER.CONST>
1

>  <SCORE.INTER.POLAR>
0

>  <SCORE.INTER.ROT>
9

>  <SCORE.INTER.SOLV>
15.1048

>  <SCORE.INTER.VDW>
-10.9611

>  <SCORE.INTER.norm>
0.423898

>  <SCORE.INTRA>
-16.1037

>  <SCORE.INTRA.DIHEDRAL>
-31.2629

>  <SCORE.INTRA.DIHEDRAL.0>
31.9578

>  <SCORE.INTRA.POLAR>
0

>  <SCORE.INTRA.POLAR.0>
0

>  <SCORE.INTRA.REPUL>
0

>  <SCORE.INTRA.REPUL.0>
0

>  <SCORE.INTRA.SOLV>
-1.30129

>  <SCORE.INTRA.SOLV.lig_0>
-48.4032

>  <SCORE.INTRA.VDW>
0.178405

>  <SCORE.INTRA.VDW.0>
-1.65238

>  <SCORE.INTRA.norm>
-1.23874

>  <SCORE.RESTR>
0

>  <SCORE.RESTR.CAVITY>
0

>  <SCORE.RESTR.norm>
0

>  <SCORE.SYSTEM>
0

>  <SCORE.SYSTEM.CONST>
0

>  <SCORE.SYSTEM.DIHEDRAL>
0

>  <SCORE.SYSTEM.SOLV>
0

>  <SCORE.SYSTEM.norm>
0

>  <SCORE.heavy>
13

>  <SCORE.norm>
-0.814846

>  <RMSD>
4.725

$$$$
ligand
 OpenBabel11021811473D
libRbt.so/2013.1/901 2013/11/27
 13 12  0  0  0  0  0  0  0  0999 V2000
   31.2418   32.8287   45.6015 O   0  0  0  0  0  0  0  0  0  0  0  0
   28.2260   33.1359   47.7535 O   0  0  0  0  0  0  0  0  0  0  0  0
   33.4827   31.7906   41.9705 P   0  0  1  0  0  0  0  0  0  0  0  0
   33.5231   32.8810   40.9359 O   0  5  0  0  0  0  0  0  0  0  0  0
   34.4496   30.7434   42.2178 O   0  0  0  0  0  0  0  0  0  0  0  0
   32.6510   32.4586   43.1810 O   0  0  0  0  0  0  0  0  0  0  0  0
   26.7114   31.3966   46.0108 O   0  0  0  0  0  0  0  0  0  0  0  0
   33.3022   32.9549   44.3706 C   0  0  0  0  0  0  0  0  0  0  0  0
   29.1782   32.4808   46.8933 C   0  0  0  0  0  0  0  0  0  0  0  0
   26.1299   32.0287   47.1649 C   0  0  0  0  0  0  0  0  0  0  0  0
   32.3043   33.7197   45.2527 C   0  0  0  0  0  0  0  0  0  0  0  0
   30.2713   33.4787   46.4448 C   0  0  0  0  0  0  0  0  0  0  0  0
   27.2105   32.2463   48.2499 C   0  0  0  0  0  0  0  0  0  0  0  0
  1 12  1  0  0  0  0
  1 11  1  0  0  0  0
  2 13  1  0  0  0  0
  2  9  1  0  0  0  0
  3  4  1  1  0  0  0
  3  5  2  0  0  0  0
  3  6  1  0  0  0  0
  6  8  1  0  0  0  0
  7 10  1  0  0  0  0
  8 11  1  0  0  0  0
  9 12  1  0  0  0  0
 10 13  1  0  0  0  0
M  CHG  1   4  -1
M  END
>  <CHROM.1>
-176.18550937,-79.79926330,-102.87304795,171.54897762,59.00332852,-177.64565339
179.05147364,62.65853722,179.37559146,30.91990725,32.40485797,44.78621829
-2.54321977,-0.36675777,-2.11326227

>  <Name>
ligand

>  <RI>
0

>  <Rbt.Current_Directory>
/home/itssahil/PROJECTS/Mol_Feturizer/New_Systems/rnas/3GS8

>  <Rbt.Executable>
rbdock ($Id: //depot/dev/client3/rdock/2013.1/src/exe/rbdock.cxx#4 $)

>  <Rbt.Library>
libRbt.so (2013.1, Build901 2013/11/27)

>  <Rbt.Parameter_File>
/export/apps/rDock/src/rDock_2013.1_src/data/scripts/dock_solv.prm

>  <Rbt.Receptor>
prm/pocket_docking_6.prm

>  <SCORE>
-9.29835

>  <SCORE.INTER>
4.55319

>  <SCORE.INTER.CONST>
1

>  <SCORE.INTER.POLAR>
0

>  <SCORE.INTER.ROT>
9

>  <SCORE.INTER.SOLV>
11.6483

>  <SCORE.INTER.VDW>
-10.4473

>  <SCORE.INTER.norm>
0.350245

>  <SCORE.INTRA>
-13.854

>  <SCORE.INTRA.DIHEDRAL>
-29.0078

>  <SCORE.INTRA.DIHEDRAL.0>
31.9578

>  <SCORE.INTRA.POLAR>
0

>  <SCORE.INTRA.POLAR.0>
0

>  <SCORE.INTRA.REPUL>
0

>  <SCORE.INTRA.REPUL.0>
0

>  <SCORE.INTRA.SOLV>
-1.07752

>  <SCORE.INTRA.SOLV.lig_0>
-48.4032

>  <SCORE.INTRA.VDW>
1.18861

>  <SCORE.INTRA.VDW.0>
-1.65238

>  <SCORE.INTRA.norm>
-1.06569

>  <SCORE.RESTR>
0.00249177

>  <SCORE.RESTR.CAVITY>
0.00249177

>  <SCORE.RESTR.norm>
0.000191675

>  <SCORE.SYSTEM>
0

>  <SCORE.SYSTEM.CONST>
0

>  <SCORE.SYSTEM.DIHEDRAL>
0

>  <SCORE.SYSTEM.SOLV>
0

>  <SCORE.SYSTEM.norm>
0

>  <SCORE.heavy>
13

>  <SCORE.norm>
-0.715258

>  <RMSD>
4.756

$$$$
ligand
 OpenBabel11021811473D
libRbt.so/2013.1/901 2013/11/27
 13 12  0  0  0  0  0  0  0  0999 V2000
   30.9056   32.7816   48.2538 O   0  0  0  0  0  0  0  0  0  0  0  0
   31.4438   31.8190   50.9718 O   0  0  0  0  0  0  0  0  0  0  0  0
   32.7368   33.2459   43.5512 P   0  0  1  0  0  0  0  0  0  0  0  0
   32.5022   34.7113   43.3093 O   0  5  0  0  0  0  0  0  0  0  0  0
   33.9749   32.5026   43.4643 O   0  0  0  0  0  0  0  0  0  0  0  0
   31.6127   32.8659   44.6445 O   0  0  0  0  0  0  0  0  0  0  0  0
   35.0428   32.5539   50.5205 O   0  0  0  0  0  0  0  0  0  0  0  0
   31.7878   33.1523   46.0491 C   0  0  0  0  0  0  0  0  0  0  0  0
   30.1987   32.4311   50.5831 C   0  0  0  0  0  0  0  0  0  0  0  0
   33.8861   31.8417   50.9942 C   0  0  0  0  0  0  0  0  0  0  0  0
   30.6282   32.5659   46.8678 C   0  0  0  0  0  0  0  0  0  0  0  0
   29.9105   32.1582   49.0884 C   0  0  0  0  0  0  0  0  0  0  0  0
   32.5965   32.5478   50.5143 C   0  0  0  0  0  0  0  0  0  0  0  0
  1 12  1  0  0  0  0
  1 11  1  0  0  0  0
  2 13  1  0  0  0  0
  2  9  1  0  0  0  0
  3  4  1  1  0  0  0
  3  5  2  0  0  0  0
  3  6  1  0  0  0  0
  6  8  1  0  0  0  0
  7 10  1  0  0  0  0
  8 11  1  0  0  0  0
  9 12  1  0  0  0  0
 10 13  1  0  0  0  0
M  CHG  1   4  -1
M  END
>  <CHROM.1>
-178.42590953,178.94167942,-80.31158983,-174.65084830,175.34181922,76.30519015
-64.33458980,179.03864712,-175.24706124,32.17316490,32.75861008,47.23438414
1.64056296,-0.00101137,1.73853538

>  <Name>
ligand

>  <RI>
0

>  <Rbt.Current_Directory>
/home/itssahil/PROJECTS/Mol_Feturizer/New_Systems/rnas/3GS8

>  <Rbt.Executable>
rbdock ($Id: //depot/dev/client3/rdock/2013.1/src/exe/rbdock.cxx#4 $)

>  <Rbt.Library>
libRbt.so (2013.1, Build901 2013/11/27)

>  <Rbt.Parameter_File>
/export/apps/rDock/src/rDock_2013.1_src/data/scripts/dock_solv.prm

>  <Rbt.Receptor>
prm/pocket_docking_4.prm

>  <SCORE>
-10.1074

>  <SCORE.INTER>
4.38247

>  <SCORE.INTER.CONST>
1

>  <SCORE.INTER.POLAR>
0

>  <SCORE.INTER.ROT>
9

>  <SCORE.INTER.SOLV>
7.97817

>  <SCORE.INTER.VDW>
-9.33775

>  <SCORE.INTER.norm>
0.337113

>  <SCORE.INTRA>
-14.4899

>  <SCORE.INTRA.DIHEDRAL>
-30.0073

>  <SCORE.INTRA.DIHEDRAL.0>
31.9578

>  <SCORE.INTRA.POLAR>
0

>  <SCORE.INTRA.POLAR.0>
0

>  <SCORE.INTRA.REPUL>
0

>  <SCORE.INTRA.REPUL.0>
0

>  <SCORE.INTRA.SOLV>
-1.36088

>  <SCORE.INTRA.SOLV.lig_0>
-48.4032

>  <SCORE.INTRA.VDW>
1.1942

>  <SCORE.INTRA.VDW.0>
-1.65238

>  <SCORE.INTRA.norm>
-1.11461

>  <SCORE.RESTR>
0

>  <SCORE.RESTR.CAVITY>
0

>  <SCORE.RESTR.norm>
0

>  <SCORE.SYSTEM>
0

>  <SCORE.SYSTEM.CONST>
0

>  <SCORE.SYSTEM.DIHEDRAL>
0

>  <SCORE.SYSTEM.SOLV>
0

>  <SCORE.SYSTEM.norm>
0

>  <SCORE.heavy>
13

>  <SCORE.norm>
-0.777494

>  <RMSD>
4.779

$$$$
ligand
 OpenBabel11021811473D
libRbt.so/2013.1/901 2013/11/27
 13 12  0  0  0  0  0  0  0  0999 V2000
   29.6016   32.9933   47.4182 O   0  0  0  0  0  0  0  0  0  0  0  0
   29.4735   33.1929   50.3229 O   0  0  0  0  0  0  0  0  0  0  0  0
   29.8541   36.8403   45.3909 P   0  0  1  0  0  0  0  0  0  0  0  0
   29.9804   37.7813   46.5570 O   0  5  0  0  0  0  0  0  0  0  0  0
   30.0864   37.1042   43.9876 O   0  0  0  0  0  0  0  0  0  0  0  0
   30.1993   35.4022   46.0358 O   0  0  0  0  0  0  0  0  0  0  0  0
   28.4152   34.7373   53.5154 O   0  0  0  0  0  0  0  0  0  0  0  0
   29.9111   34.1676   45.3442 C   0  0  0  0  0  0  0  0  0  0  0  0
   29.1981   31.9676   49.6167 C   0  0  0  0  0  0  0  0  0  0  0  0
   29.1205   34.6300   52.2661 C   0  0  0  0  0  0  0  0  0  0  0  0
   30.3384   32.9613   46.1933 C   0  0  0  0  0  0  0  0  0  0  0  0
   29.9974   31.9197   48.2936 C   0  0  0  0  0  0  0  0  0  0  0  0
   28.7633   33.2961   51.5695 C   0  0  0  0  0  0  0  0  0  0  0  0
  1 12  1  0  0  0  0
  1 11  1  0  0  0  0
  2 13  1  0  0  0  0
  2  9  1  0  0  0  0
  3  4  1  1  0  0  0
  3  5  2  0  0  0  0
  3  6  1  0  0  0  0
  6  8  1  0  0  0  0
  7 10  1  0  0  0  0
  8 11  1  0  0  0  0
  9 12  1  0  0  0  0
 10 13  1  0  0  0  0
M  CHG  1   4  -1
M  END
>  <CHROM.1>
179.78347612,179.61843495,165.92857753,-179.75388645,60.61470220,-179.70921593
-62.39033133,-179.86517491,-177.37614508,29.63111833,34.62713585,47.95588383
-2.46001827,1.37881793,-0.28285925

>  <Name>
ligand

>  <RI>
0

>  <Rbt.Current_Directory>
/home/itssahil/PROJECTS/Mol_Feturizer/New_Systems/rnas/3GS8

>  <Rbt.Executable>
rbdock ($Id: //depot/dev/client3/rdock/2013.1/src/exe/rbdock.cxx#4 $)

>  <Rbt.Library>
libRbt.so (2013.1, Build901 2013/11/27)

>  <Rbt.Parameter_File>
/export/apps/rDock/src/rDock_2013.1_src/data/scripts/dock_solv.prm

>  <Rbt.Receptor>
prm/pocket_docking_4.prm

>  <SCORE>
-8.83665

>  <SCORE.INTER>
7.64113

>  <SCORE.INTER.CONST>
1

>  <SCORE.INTER.POLAR>
0

>  <SCORE.INTER.ROT>
9

>  <SCORE.INTER.SOLV>
5.17403

>  <SCORE.INTER.VDW>
-6.23059

>  <SCORE.INTER.norm>
0.587779

>  <SCORE.INTRA>
-16.4778

>  <SCORE.INTRA.DIHEDRAL>
-31.6136

>  <SCORE.INTRA.DIHEDRAL.0>
31.9578

>  <SCORE.INTRA.POLAR>
0

>  <SCORE.INTRA.POLAR.0>
0

>  <SCORE.INTRA.REPUL>
0

>  <SCORE.INTRA.REPUL.0>
0

>  <SCORE.INTRA.SOLV>
-1.69456

>  <SCORE.INTRA.SOLV.lig_0>
-48.4032

>  <SCORE.INTRA.VDW>
0.17629

>  <SCORE.INTRA.VDW.0>
-1.65238

>  <SCORE.INTRA.norm>
-1.26752

>  <SCORE.RESTR>
0

>  <SCORE.RESTR.CAVITY>
0

>  <SCORE.RESTR.norm>
0

>  <SCORE.SYSTEM>
0

>  <SCORE.SYSTEM.CONST>
0

>  <SCORE.SYSTEM.DIHEDRAL>
0

>  <SCORE.SYSTEM.SOLV>
0

>  <SCORE.SYSTEM.norm>
0

>  <SCORE.heavy>
13

>  <SCORE.norm>
-0.679742

>  <RMSD>
4.810

$$$$
ligand
 OpenBabel11021811473D
libRbt.so/2013.1/901 2013/11/27
 13 12  0  0  0  0  0  0  0  0999 V2000
   31.1362   32.4303   46.8559 O   0  0  0  0  0  0  0  0  0  0  0  0
   31.4036   32.4692   49.6610 O   0  0  0  0  0  0  0  0  0  0  0  0
   33.3907   33.1733   42.3720 P   0  0  1  0  0  0  0  0  0  0  0  0
   34.1800   34.4277   42.6258 O   0  5  0  0  0  0  0  0  0  0  0  0
   33.8619   31.8889   41.9019 O   0  0  0  0  0  0  0  0  0  0  0  0
   32.1769   33.2785   43.4298 O   0  0  0  0  0  0  0  0  0  0  0  0
   34.0611   31.9115   50.6844 O   0  0  0  0  0  0  0  0  0  0  0  0
   32.2867   32.7540   44.7708 C   0  0  0  0  0  0  0  0  0  0  0  0
   30.1500   32.0628   49.0787 C   0  0  0  0  0  0  0  0  0  0  0  0
   32.9893   32.3884   51.5171 C   0  0  0  0  0  0  0  0  0  0  0  0
   31.0013   33.0297   45.5649 C   0  0  0  0  0  0  0  0  0  0  0  0
   29.9811   32.6921   47.6761 C   0  0  0  0  0  0  0  0  0  0  0  0
   31.6306   31.9000   50.9624 C   0  0  0  0  0  0  0  0  0  0  0  0
  1 12  1  0  0  0  0
  1 11  1  0  0  0  0
  2 13  1  0  0  0  0
  2  9  1  0  0  0  0
  3  4  1  1  0  0  0
  3  5  2  0  0  0  0
  3  6  1  0  0  0  0
  6  8  1  0  0  0  0
  7 10  1  0  0  0  0
  8 11  1  0  0  0  0
  9 12  1  0  0  0  0
 10 13  1  0  0  0  0
M  CHG  1   4  -1
M  END
>  <CHROM.1>
-178.89106648,-179.79086881,-88.96097378,178.33654037,176.98981513,-179.14121374
52.04424601,-63.78334686,177.89579361,32.30612067,32.69384205,46.30555671
1.74761068,0.00665570,1.69404929

>  <Name>
ligand

>  <RI>
0

>  <Rbt.Current_Directory>
/home/itssahil/PROJECTS/Mol_Feturizer/New_Systems/rnas/3GS8

>  <Rbt.Executable>
rbdock ($Id: //depot/dev/client3/rdock/2013.1/src/exe/rbdock.cxx#4 $)

>  <Rbt.Library>
libRbt.so (2013.1, Build901 2013/11/27)

>  <Rbt.Parameter_File>
/export/apps/rDock/src/rDock_2013.1_src/data/scripts/dock_solv.prm

>  <Rbt.Receptor>
prm/pocket_docking_4.prm

>  <SCORE>
-11.8803

>  <SCORE.INTER>
4.17923

>  <SCORE.INTER.CONST>
1

>  <SCORE.INTER.POLAR>
0

>  <SCORE.INTER.ROT>
9

>  <SCORE.INTER.SOLV>
7.842

>  <SCORE.INTER.VDW>
-9.42785

>  <SCORE.INTER.norm>
0.321479

>  <SCORE.INTRA>
-16.0712

>  <SCORE.INTRA.DIHEDRAL>
-31.2008

>  <SCORE.INTRA.DIHEDRAL.0>
31.9578

>  <SCORE.INTRA.POLAR>
0

>  <SCORE.INTRA.POLAR.0>
0

>  <SCORE.INTRA.REPUL>
0

>  <SCORE.INTRA.REPUL.0>
0

>  <SCORE.INTRA.SOLV>
-1.30084

>  <SCORE.INTRA.SOLV.lig_0>
-48.4032

>  <SCORE.INTRA.VDW>
0.179682

>  <SCORE.INTRA.VDW.0>
-1.65238

>  <SCORE.INTRA.norm>
-1.23624

>  <SCORE.RESTR>
0.0116239

>  <SCORE.RESTR.CAVITY>
0.0116239

>  <SCORE.RESTR.norm>
0.000894145

>  <SCORE.SYSTEM>
0

>  <SCORE.SYSTEM.CONST>
0

>  <SCORE.SYSTEM.DIHEDRAL>
0

>  <SCORE.SYSTEM.SOLV>
0

>  <SCORE.SYSTEM.norm>
0

>  <SCORE.heavy>
13

>  <SCORE.norm>
-0.91387

>  <RMSD>
4.819

$$$$
ligand
 OpenBabel11021811473D
libRbt.so/2013.1/901 2013/11/27
 13 12  0  0  0  0  0  0  0  0999 V2000
   30.1229   32.0177   47.9686 O   0  0  0  0  0  0  0  0  0  0  0  0
   31.1393   31.7843   50.6513 O   0  0  0  0  0  0  0  0  0  0  0  0
   33.0069   33.6563   45.1286 P   0  0  1  0  0  0  0  0  0  0  0  0
   33.7241   34.8426   45.7111 O   0  5  0  0  0  0  0  0  0  0  0  0
   33.5497   32.5665   44.3472 O   0  0  0  0  0  0  0  0  0  0  0  0
   31.7899   33.4155   46.1602 O   0  0  0  0  0  0  0  0  0  0  0  0
   33.9968   31.8794   50.9246 O   0  0  0  0  0  0  0  0  0  0  0  0
   30.5427   32.8193   45.7422 C   0  0  0  0  0  0  0  0  0  0  0  0
   29.8978   31.1641   50.2641 C   0  0  0  0  0  0  0  0  0  0  0  0
   33.1279   31.8131   52.0692 C   0  0  0  0  0  0  0  0  0  0  0  0
   29.5444   32.7832   46.9086 C   0  0  0  0  0  0  0  0  0  0  0  0
   29.2421   31.9531   49.1068 C   0  0  0  0  0  0  0  0  0  0  0  0
   31.8210   31.0732   51.6995 C   0  0  0  0  0  0  0  0  0  0  0  0
  1 12  1  0  0  0  0
  1 11  1  0  0  0  0
  2 13  1  0  0  0  0
  2  9  1  0  0  0  0
  3  4  1  1  0  0  0
  3  5  2  0  0  0  0
  3  6  1  0  0  0  0
  6  8  1  0  0  0  0
  7 10  1  0  0  0  0
  8 11  1  0  0  0  0
  9 12  1  0  0  0  0
 10 13  1  0  0  0  0
M  CHG  1   4  -1
M  END
>  <CHROM.1>
-178.06476970,-179.15432209,151.79351385,-176.90623415,-59.38990973,-178.22459924
58.59719941,-60.75371940,179.40860374,31.80392961,32.55826043,47.92680514
1.74632675,0.18854683,1.86661285

>  <Name>
ligand

>  <RI>
0

>  <Rbt.Current_Directory>
/home/itssahil/PROJECTS/Mol_Feturizer/New_Systems/rnas/3GS8

>  <Rbt.Executable>
rbdock ($Id: //depot/dev/client3/rdock/2013.1/src/exe/rbdock.cxx#4 $)

>  <Rbt.Library>
libRbt.so (2013.1, Build901 2013/11/27)

>  <Rbt.Parameter_File>
/export/apps/rDock/src/rDock_2013.1_src/data/scripts/dock_solv.prm

>  <Rbt.Receptor>
prm/pocket_docking_8.prm

>  <SCORE>
-12.6157

>  <SCORE.INTER>
3.8093

>  <SCORE.INTER.CONST>
1

>  <SCORE.INTER.POLAR>
0

>  <SCORE.INTER.ROT>
9

>  <SCORE.INTER.SOLV>
7.28544

>  <SCORE.INTER.VDW>
-9.48895

>  <SCORE.INTER.norm>
0.293023

>  <SCORE.INTRA>
-16.425

>  <SCORE.INTRA.DIHEDRAL>
-31.4851

>  <SCORE.INTRA.DIHEDRAL.0>
31.9578

>  <SCORE.INTRA.POLAR>
0

>  <SCORE.INTRA.POLAR.0>
0

>  <SCORE.INTRA.REPUL>
0

>  <SCORE.INTRA.REPUL.0>
0

>  <SCORE.INTRA.SOLV>
-1.49149

>  <SCORE.INTRA.SOLV.lig_0>
-48.4032

>  <SCORE.INTRA.VDW>
0.063268

>  <SCORE.INTRA.VDW.0>
-1.65238

>  <SCORE.INTRA.norm>
-1.26347

>  <SCORE.RESTR>
0

>  <SCORE.RESTR.CAVITY>
0

>  <SCORE.RESTR.norm>
0

>  <SCORE.SYSTEM>
0

>  <SCORE.SYSTEM.CONST>
0

>  <SCORE.SYSTEM.DIHEDRAL>
0

>  <SCORE.SYSTEM.SOLV>
0

>  <SCORE.SYSTEM.norm>
0

>  <SCORE.heavy>
13

>  <SCORE.norm>
-0.970442

>  <RMSD>
4.854

$$$$
ligand
 OpenBabel11021811473D
libRbt.so/2013.1/901 2013/11/27
 13 12  0  0  0  0  0  0  0  0999 V2000
   30.4390   32.7398   47.0784 O   0  0  0  0  0  0  0  0  0  0  0  0
   29.7122   31.2274   49.4126 O   0  0  0  0  0  0  0  0  0  0  0  0
   33.6520   33.0186   43.1697 P   0  0  1  0  0  0  0  0  0  0  0  0
   33.3510   32.6692   41.7385 O   0  5  0  0  0  0  0  0  0  0  0  0
   34.7385   33.8159   43.6958 O   0  0  0  0  0  0  0  0  0  0  0  0
   32.1944   33.0380   43.8612 O   0  0  0  0  0  0  0  0  0  0  0  0
   30.5587   29.5475   52.5996 O   0  0  0  0  0  0  0  0  0  0  0  0
   32.0303   32.9939   45.2953 C   0  0  0  0  0  0  0  0  0  0  0  0
   28.9664   32.3951   49.0177 C   0  0  0  0  0  0  0  0  0  0  0  0
   30.5504   29.7609   51.1769 C   0  0  0  0  0  0  0  0  0  0  0  0
   30.5409   32.9402   45.6664 C   0  0  0  0  0  0  0  0  0  0  0  0
   29.0647   32.6026   47.4883 C   0  0  0  0  0  0  0  0  0  0  0  0
   29.6835   30.9944   50.8318 C   0  0  0  0  0  0  0  0  0  0  0  0
  1 12  1  0  0  0  0
  1 11  1  0  0  0  0
  2 13  1  0  0  0  0
  2  9  1  0  0  0  0
  3  4  1  6  0  0  0
  3  5  2  0  0  0  0
  3  6  1  0  0  0  0
  6  8  1  0  0  0  0
  7 10  1  0  0  0  0
  8 11  1  0  0  0  0
  9 12  1  0  0  0  0
 10 13  1  0  0  0  0
M  CHG  1   4  -1
M  END
>  <CHROM.1>
-179.65111583,-177.75043717,163.86304460,-176.61409984,173.29559017,178.77921581
-58.23233631,178.24279521,-176.69896913,31.42443069,32.20729254,46.66093462
2.00573401,-0.31333475,2.02488962

>  <Name>
ligand

>  <RI>
0

>  <Rbt.Current_Directory>
/home/itssahil/PROJECTS/Mol_Feturizer/New_Systems/rnas/3GS8

>  <Rbt.Executable>
rbdock ($Id: //depot/dev/client3/rdock/2013.1/src/exe/rbdock.cxx#4 $)

>  <Rbt.Library>
libRbt.so (2013.1, Build901 2013/11/27)

>  <Rbt.Parameter_File>
/export/apps/rDock/src/rDock_2013.1_src/data/scripts/dock_solv.prm

>  <Rbt.Receptor>
prm/pocket_docking_6.prm

>  <SCORE>
-12.3991

>  <SCORE.INTER>
3.88026

>  <SCORE.INTER.CONST>
1

>  <SCORE.INTER.POLAR>
0

>  <SCORE.INTER.ROT>
9

>  <SCORE.INTER.SOLV>
8.25298

>  <SCORE.INTER.VDW>
-9.76415

>  <SCORE.INTER.norm>
0.298482

>  <SCORE.INTRA>
-16.2794

>  <SCORE.INTRA.DIHEDRAL>
-31.3417

>  <SCORE.INTRA.DIHEDRAL.0>
31.9578

>  <SCORE.INTRA.POLAR>
0

>  <SCORE.INTRA.POLAR.0>
0

>  <SCORE.INTRA.REPUL>
0

>  <SCORE.INTRA.REPUL.0>
0

>  <SCORE.INTRA.SOLV>
-1.81865

>  <SCORE.INTRA.SOLV.lig_0>
-48.4032

>  <SCORE.INTRA.VDW>
0.300785

>  <SCORE.INTRA.VDW.0>
-1.65238

>  <SCORE.INTRA.norm>
-1.25226

>  <SCORE.RESTR>
0

>  <SCORE.RESTR.CAVITY>
0

>  <SCORE.RESTR.norm>
0

>  <SCORE.SYSTEM>
0

>  <SCORE.SYSTEM.CONST>
0

>  <SCORE.SYSTEM.DIHEDRAL>
0

>  <SCORE.SYSTEM.SOLV>
0

>  <SCORE.SYSTEM.norm>
0

>  <SCORE.heavy>
13

>  <SCORE.norm>
-0.953777

>  <RMSD>
4.927

$$$$
ligand
 OpenBabel11021811473D
libRbt.so/2013.1/901 2013/11/27
 13 12  0  0  0  0  0  0  0  0999 V2000
   34.2054   31.7743   50.1604 O   0  0  0  0  0  0  0  0  0  0  0  0
   31.5971   32.6132   49.2337 O   0  0  0  0  0  0  0  0  0  0  0  0
   37.2012   30.9569   47.1118 P   0  0  1  0  0  0  0  0  0  0  0  0
   36.7962   31.7390   45.8930 O   0  5  0  0  0  0  0  0  0  0  0  0
   38.4627   30.3054   47.3893 O   0  0  0  0  0  0  0  0  0  0  0  0
   36.3381   31.6376   48.2929 O   0  0  0  0  0  0  0  0  0  0  0  0
   31.0773   32.4447   46.4135 O   0  0  0  0  0  0  0  0  0  0  0  0
   36.5006   31.2523   49.6752 C   0  0  0  0  0  0  0  0  0  0  0  0
   31.8035   32.1106   50.5681 C   0  0  0  0  0  0  0  0  0  0  0  0
   30.1104   32.9848   47.3317 C   0  0  0  0  0  0  0  0  0  0  0  0
   35.5457   32.0517   50.5739 C   0  0  0  0  0  0  0  0  0  0  0  0
   33.2486   32.4041   51.0342 C   0  0  0  0  0  0  0  0  0  0  0  0
   30.2813   32.3335   48.7241 C   0  0  0  0  0  0  0  0  0  0  0  0
  1 12  1  0  0  0  0
  1 11  1  0  0  0  0
  2 13  1  0  0  0  0
  2  9  1  0  0  0  0
  3  4  1  6  0  0  0
  3  5  2  0  0  0  0
  3  6  1  0  0  0  0
  6  8  1  0  0  0  0
  7 10  1  0  0  0  0
  8 11  1  0  0  0  0
  9 12  1  0  0  0  0
 10 13  1  0  0  0  0
M  CHG  1   4  -1
M  END
>  <CHROM.1>
179.35384486,176.25592738,-175.10479656,-179.46317814,60.32293037,178.13858037
-60.09949747,60.79903055,175.12269175,34.37637636,31.80991219,48.48112267
-2.95279166,0.22759564,-1.59666945

>  <Name>
ligand

>  <RI>
0

>  <Rbt.Current_Directory>
/home/itssahil/PROJECTS/Mol_Feturizer/New_Systems/rnas/3GS8

>  <Rbt.Executable>
rbdock ($Id: //depot/dev/client3/rdock/2013.1/src/exe/rbdock.cxx#4 $)

>  <Rbt.Library>
libRbt.so (2013.1, Build901 2013/11/27)

>  <Rbt.Parameter_File>
/export/apps/rDock/src/rDock_2013.1_src/data/scripts/dock_solv.prm

>  <Rbt.Receptor>
prm/pocket_docking_5.prm

>  <SCORE>
-14.4356

>  <SCORE.INTER>
1.73589

>  <SCORE.INTER.CONST>
1

>  <SCORE.INTER.POLAR>
0

>  <SCORE.INTER.ROT>
9

>  <SCORE.INTER.SOLV>
12.0822

>  <SCORE.INTER.VDW>
-12.4702

>  <SCORE.INTER.norm>
0.13353

>  <SCORE.INTRA>
-16.1727

>  <SCORE.INTRA.DIHEDRAL>
-31.1739

>  <SCORE.INTRA.DIHEDRAL.0>
31.9578

>  <SCORE.INTRA.POLAR>
0

>  <SCORE.INTRA.POLAR.0>
0

>  <SCORE.INTRA.REPUL>
0

>  <SCORE.INTRA.REPUL.0>
0

>  <SCORE.INTRA.SOLV>
-1.38146

>  <SCORE.INTRA.SOLV.lig_0>
-48.4032

>  <SCORE.INTRA.VDW>
0.105011

>  <SCORE.INTRA.VDW.0>
-1.65238

>  <SCORE.INTRA.norm>
-1.24405

>  <SCORE.RESTR>
0.00117091

>  <SCORE.RESTR.CAVITY>
0.00117091

>  <SCORE.RESTR.norm>
9.00698e-05

>  <SCORE.SYSTEM>
0

>  <SCORE.SYSTEM.CONST>
0

>  <SCORE.SYSTEM.DIHEDRAL>
0

>  <SCORE.SYSTEM.SOLV>
0

>  <SCORE.SYSTEM.norm>
0

>  <SCORE.heavy>
13

>  <SCORE.norm>
-1.11043

>  <RMSD>
4.934

$$$$
ligand
 OpenBabel11021811473D
libRbt.so/2013.1/901 2013/11/27
 13 12  0  0  0  0  0  0  0  0999 V2000
   34.8974   31.7635   49.7794 O   0  0  0  0  0  0  0  0  0  0  0  0
   32.0512   31.9115   50.2972 O   0  0  0  0  0  0  0  0  0  0  0  0
   36.9821   32.2046   46.0147 P   0  0  1  0  0  0  0  0  0  0  0  0
   36.1401   33.3068   45.4341 O   0  5  0  0  0  0  0  0  0  0  0  0
   38.2873   31.7460   45.5915 O   0  0  0  0  0  0  0  0  0  0  0  0
   36.5624   32.1988   47.5726 O   0  0  0  0  0  0  0  0  0  0  0  0
   28.5094   32.2367   49.2739 O   0  0  0  0  0  0  0  0  0  0  0  0
   36.7233   31.0269   48.4012 C   0  0  0  0  0  0  0  0  0  0  0  0
   33.0019   32.7102   51.0280 C   0  0  0  0  0  0  0  0  0  0  0  0
   29.8001   31.6135   49.3972 C   0  0  0  0  0  0  0  0  0  0  0  0
   36.2527   31.3114   49.8352 C   0  0  0  0  0  0  0  0  0  0  0  0
   34.3670   31.9871   51.1001 C   0  0  0  0  0  0  0  0  0  0  0  0
   30.7625   32.5393   50.1775 C   0  0  0  0  0  0  0  0  0  0  0  0
  1 12  1  0  0  0  0
  1 11  1  0  0  0  0
  2 13  1  0  0  0  0
  2  9  1  0  0  0  0
  3  4  1  1  0  0  0
  3  5  2  0  0  0  0
  3  6  1  0  0  0  0
  6  8  1  0  0  0  0
  7 10  1  0  0  0  0
  8 11  1  0  0  0  0
  9 12  1  0  0  0  0
 10 13  1  0  0  0  0
M  CHG  1   4  -1
M  END
>  <CHROM.1>
169.86833868,-179.35830303,156.39545021,179.60138717,56.23074186,-179.15835356
60.55029461,-179.97728357,177.13148722,34.41751414,32.06425422,48.49806055
-2.65004032,0.09556108,-1.40568159

>  <Name>
ligand

>  <RI>
0

>  <Rbt.Current_Directory>
/home/itssahil/PROJECTS/Mol_Feturizer/New_Systems/rnas/3GS8

>  <Rbt.Executable>
rbdock ($Id: //depot/dev/client3/rdock/2013.1/src/exe/rbdock.cxx#4 $)

>  <Rbt.Library>
libRbt.so (2013.1, Build901 2013/11/27)

>  <Rbt.Parameter_File>
/export/apps/rDock/src/rDock_2013.1_src/data/scripts/dock_solv.prm

>  <Rbt.Receptor>
prm/pocket_docking_5.prm

>  <SCORE>
-13.3979

>  <SCORE.INTER>
2.80534

>  <SCORE.INTER.CONST>
1

>  <SCORE.INTER.POLAR>
0

>  <SCORE.INTER.ROT>
9

>  <SCORE.INTER.SOLV>
4.97629

>  <SCORE.INTER.VDW>
-9.38853

>  <SCORE.INTER.norm>
0.215796

>  <SCORE.INTRA>
-16.2033

>  <SCORE.INTRA.DIHEDRAL>
-31.045

>  <SCORE.INTRA.DIHEDRAL.0>
31.9578

>  <SCORE.INTRA.POLAR>
0

>  <SCORE.INTRA.POLAR.0>
0

>  <SCORE.INTRA.REPUL>
0

>  <SCORE.INTRA.REPUL.0>
0

>  <SCORE.INTRA.SOLV>
-1.69596

>  <SCORE.INTRA.SOLV.lig_0>
-48.4032

>  <SCORE.INTRA.VDW>
0.167172

>  <SCORE.INTRA.VDW.0>
-1.65238

>  <SCORE.INTRA.norm>
-1.24641

>  <SCORE.RESTR>
0

>  <SCORE.RESTR.CAVITY>
0

>  <SCORE.RESTR.norm>
0

>  <SCORE.SYSTEM>
0

>  <SCORE.SYSTEM.CONST>
0

>  <SCORE.SYSTEM.DIHEDRAL>
0

>  <SCORE.SYSTEM.SOLV>
0

>  <SCORE.SYSTEM.norm>
0

>  <SCORE.heavy>
13

>  <SCORE.norm>
-1.03061

>  <RMSD>
4.954

$$$$
ligand
 OpenBabel11021811473D
libRbt.so/2013.1/901 2013/11/27
 13 12  0  0  0  0  0  0  0  0999 V2000
   32.3316   32.2020   50.5334 O   0  0  0  0  0  0  0  0  0  0  0  0
   30.6972   32.3295   48.2133 O   0  0  0  0  0  0  0  0  0  0  0  0
   36.5823   31.6299   49.6479 P   0  0  1  0  0  0  0  0  0  0  0  0
   36.5691   32.9949   49.0173 O   0  5  0  0  0  0  0  0  0  0  0  0
   37.6708   30.9565   50.3221 O   0  0  0  0  0  0  0  0  0  0  0  0
   35.0546   31.4275   50.1258 O   0  0  0  0  0  0  0  0  0  0  0  0
   32.0503   33.2908   45.8760 O   0  0  0  0  0  0  0  0  0  0  0  0
   34.5696   31.9632   51.3762 C   0  0  0  0  0  0  0  0  0  0  0  0
   30.1176   32.5359   49.5161 C   0  0  0  0  0  0  0  0  0  0  0  0
   30.7038   32.7883   45.8142 C   0  0  0  0  0  0  0  0  0  0  0  0
   33.0922   31.5980   51.5827 C   0  0  0  0  0  0  0  0  0  0  0  0
   30.9486   31.8032   50.5951 C   0  0  0  0  0  0  0  0  0  0  0  0
   29.9903   33.0187   47.1671 C   0  0  0  0  0  0  0  0  0  0  0  0
  1 12  1  0  0  0  0
  1 11  1  0  0  0  0
  2 13  1  0  0  0  0
  2  9  1  0  0  0  0
  3  4  1  1  0  0  0
  3  5  2  0  0  0  0
  3  6  1  0  0  0  0
  6  8  1  0  0  0  0
  7 10  1  0  0  0  0
  8 11  1  0  0  0  0
  9 12  1  0  0  0  0
 10 13  1  0  0  0  0
M  CHG  1   4  -1
M  END
>  <CHROM.1>
176.15991773,177.94201754,-83.20001322,-178.99275933,-62.55478000,-178.34120506
54.57181240,-60.19351771,174.85512508,33.43862987,32.15016330,49.23800163
2.71327853,0.07234782,-1.32259468

>  <Name>
ligand

>  <RI>
0

>  <Rbt.Current_Directory>
/home/itssahil/PROJECTS/Mol_Feturizer/New_Systems/rnas/3GS8

>  <Rbt.Executable>
rbdock ($Id: //depot/dev/client3/rdock/2013.1/src/exe/rbdock.cxx#4 $)

>  <Rbt.Library>
libRbt.so (2013.1, Build901 2013/11/27)

>  <Rbt.Parameter_File>
/export/apps/rDock/src/rDock_2013.1_src/data/scripts/dock_solv.prm

>  <Rbt.Receptor>
prm/pocket_docking_8.prm

>  <SCORE>
-14.044

>  <SCORE.INTER>
2.14222

>  <SCORE.INTER.CONST>
1

>  <SCORE.INTER.POLAR>
0

>  <SCORE.INTER.ROT>
9

>  <SCORE.INTER.SOLV>
10.7674

>  <SCORE.INTER.VDW>
-11.761

>  <SCORE.INTER.norm>
0.164786

>  <SCORE.INTRA>
-16.1862

>  <SCORE.INTRA.DIHEDRAL>
-31.2679

>  <SCORE.INTRA.DIHEDRAL.0>
31.9578

>  <SCORE.INTRA.POLAR>
0

>  <SCORE.INTRA.POLAR.0>
0

>  <SCORE.INTRA.REPUL>
0

>  <SCORE.INTRA.REPUL.0>
0

>  <SCORE.INTRA.SOLV>
-1.18332

>  <SCORE.INTRA.SOLV.lig_0>
-48.4032

>  <SCORE.INTRA.VDW>
0.0393519

>  <SCORE.INTRA.VDW.0>
-1.65238

>  <SCORE.INTRA.norm>
-1.24509

>  <SCORE.RESTR>
0

>  <SCORE.RESTR.CAVITY>
0

>  <SCORE.RESTR.norm>
0

>  <SCORE.SYSTEM>
0

>  <SCORE.SYSTEM.CONST>
0

>  <SCORE.SYSTEM.DIHEDRAL>
0

>  <SCORE.SYSTEM.SOLV>
0

>  <SCORE.SYSTEM.norm>
0

>  <SCORE.heavy>
13

>  <SCORE.norm>
-1.08031

>  <RMSD>
4.964

$$$$
ligand
 OpenBabel11021811473D
libRbt.so/2013.1/901 2013/11/27
 13 12  0  0  0  0  0  0  0  0999 V2000
   31.5864   33.0600   46.7160 O   0  0  0  0  0  0  0  0  0  0  0  0
   32.2865   32.6133   49.4183 O   0  0  0  0  0  0  0  0  0  0  0  0
   33.7123   32.7967   42.1268 P   0  0  1  0  0  0  0  0  0  0  0  0
   33.6323   31.5899   41.2334 O   0  5  0  0  0  0  0  0  0  0  0  0
   34.1395   34.1388   41.7964 O   0  0  0  0  0  0  0  0  0  0  0  0
   32.5408   32.5377   43.2056 O   0  0  0  0  0  0  0  0  0  0  0  0
   34.5058   31.4267   50.7387 O   0  0  0  0  0  0  0  0  0  0  0  0
   32.5830   33.1128   44.5297 C   0  0  0  0  0  0  0  0  0  0  0  0
   30.9092   32.8555   49.0714 C   0  0  0  0  0  0  0  0  0  0  0  0
   34.1057   32.7753   51.0401 C   0  0  0  0  0  0  0  0  0  0  0  0
   31.3921   32.6251   45.3679 C   0  0  0  0  0  0  0  0  0  0  0  0
   30.6429   32.4347   47.6072 C   0  0  0  0  0  0  0  0  0  0  0  0
   32.5901   32.9474   50.7841 C   0  0  0  0  0  0  0  0  0  0  0  0
  1 12  1  0  0  0  0
  1 11  1  0  0  0  0
  2 13  1  0  0  0  0
  2  9  1  0  0  0  0
  3  4  1  6  0  0  0
  3  5  2  0  0  0  0
  3  6  1  0  0  0  0
  6  8  1  0  0  0  0
  7 10  1  0  0  0  0
  8 11  1  0  0  0  0
  9 12  1  0  0  0  0
 10 13  1  0  0  0  0
M  CHG  1   4  -1
M  END
>  <CHROM.1>
177.05450439,-175.15182031,154.26449679,-176.22952956,171.57134849,-178.24404173
-53.04729655,-57.61255248,-169.32848581,32.77307390,32.68760460,46.03649162
1.65424792,-0.11348344,1.61759489

>  <Name>
ligand

>  <RI>
0

>  <Rbt.Current_Directory>
/home/itssahil/PROJECTS/Mol_Feturizer/New_Systems/rnas/3GS8

>  <Rbt.Executable>
rbdock ($Id: //depot/dev/client3/rdock/2013.1/src/exe/rbdock.cxx#4 $)

>  <Rbt.Library>
libRbt.so (2013.1, Build901 2013/11/27)

>  <Rbt.Parameter_File>
/export/apps/rDock/src/rDock_2013.1_src/data/scripts/dock_solv.prm

>  <Rbt.Receptor>
prm/pocket_docking_5.prm

>  <SCORE>
-10.8192

>  <SCORE.INTER>
4.93092

>  <SCORE.INTER.CONST>
1

>  <SCORE.INTER.POLAR>
0

>  <SCORE.INTER.ROT>
9

>  <SCORE.INTER.SOLV>
8.03341

>  <SCORE.INTER.VDW>
-8.99052

>  <SCORE.INTER.norm>
0.379302

>  <SCORE.INTRA>
-15.7501

>  <SCORE.INTRA.DIHEDRAL>
-30.3598

>  <SCORE.INTRA.DIHEDRAL.0>
31.9578

>  <SCORE.INTRA.POLAR>
0

>  <SCORE.INTRA.POLAR.0>
0

>  <SCORE.INTRA.REPUL>
0

>  <SCORE.INTRA.REPUL.0>
0

>  <SCORE.INTRA.SOLV>
-1.58147

>  <SCORE.INTRA.SOLV.lig_0>
-48.4032

>  <SCORE.INTRA.VDW>
0.220536

>  <SCORE.INTRA.VDW.0>
-1.65238

>  <SCORE.INTRA.norm>
-1.21155

>  <SCORE.RESTR>
0

>  <SCORE.RESTR.CAVITY>
0

>  <SCORE.RESTR.norm>
0

>  <SCORE.SYSTEM>
0

>  <SCORE.SYSTEM.CONST>
0

>  <SCORE.SYSTEM.DIHEDRAL>
0

>  <SCORE.SYSTEM.SOLV>
0

>  <SCORE.SYSTEM.norm>
0

>  <SCORE.heavy>
13

>  <SCORE.norm>
-0.832244

>  <RMSD>
4.982

$$$$
ligand
 OpenBabel11021811473D
libRbt.so/2013.1/901 2013/11/27
 13 12  0  0  0  0  0  0  0  0999 V2000
   33.6085   32.0796   44.4714 O   0  0  0  0  0  0  0  0  0  0  0  0
   30.3742   33.8870   44.7713 O   0  0  0  0  0  0  0  0  0  0  0  0
   37.7022   31.0900   45.4558 P   0  0  1  0  0  0  0  0  0  0  0  0
   38.7944   32.0331   45.0331 O   0  5  0  0  0  0  0  0  0  0  0  0
   37.5626   30.3701   46.7028 O   0  0  0  0  0  0  0  0  0  0  0  0
   36.4093   31.6409   44.6633 O   0  0  0  0  0  0  0  0  0  0  0  0
   27.3645   35.3660   46.3372 O   0  0  0  0  0  0  0  0  0  0  0  0
   35.5401   30.7611   43.9176 C   0  0  0  0  0  0  0  0  0  0  0  0
   31.5674   33.2226   45.2303 C   0  0  0  0  0  0  0  0  0  0  0  0
   28.2472   34.9800   45.2688 C   0  0  0  0  0  0  0  0  0  0  0  0
   34.3337   31.5350   43.3660 C   0  0  0  0  0  0  0  0  0  0  0  0
   32.4412   32.7975   44.0271 C   0  0  0  0  0  0  0  0  0  0  0  0
   29.4949   34.2693   45.8436 C   0  0  0  0  0  0  0  0  0  0  0  0
  1 12  1  0  0  0  0
  1 11  1  0  0  0  0
  2 13  1  0  0  0  0
  2  9  1  0  0  0  0
  3  4  1  1  0  0  0
  3  5  2  0  0  0  0
  3  6  1  0  0  0  0
  6  8  1  0  0  0  0
  7 10  1  0  0  0  0
  8 11  1  0  0  0  0
  9 12  1  0  0  0  0
 10 13  1  0  0  0  0
M  CHG  1   4  -1
M  END
>  <CHROM.1>
172.59497958,179.69558667,131.97257285,175.32039584,-60.66125377,178.05558249
-177.45297523,-179.93740950,-178.72817095,33.72954959,32.49214278,45.06094636
0.13737837,0.35396576,-1.87032771

>  <Name>
ligand

>  <RI>
0

>  <Rbt.Current_Directory>
/home/itssahil/PROJECTS/Mol_Feturizer/New_Systems/rnas/3GS8

>  <Rbt.Executable>
rbdock ($Id: //depot/dev/client3/rdock/2013.1/src/exe/rbdock.cxx#4 $)

>  <Rbt.Library>
libRbt.so (2013.1, Build901 2013/11/27)

>  <Rbt.Parameter_File>
/export/apps/rDock/src/rDock_2013.1_src/data/scripts/dock_solv.prm

>  <Rbt.Receptor>
prm/pocket_docking_7.prm

>  <SCORE>
-11.285

>  <SCORE.INTER>
4.72788

>  <SCORE.INTER.CONST>
1

>  <SCORE.INTER.POLAR>
0

>  <SCORE.INTER.ROT>
9

>  <SCORE.INTER.SOLV>
13.6195

>  <SCORE.INTER.VDW>
-10.9879

>  <SCORE.INTER.norm>
0.363683

>  <SCORE.INTRA>
-16.0129

>  <SCORE.INTRA.DIHEDRAL>
-30.6891

>  <SCORE.INTRA.DIHEDRAL.0>
31.9578

>  <SCORE.INTRA.POLAR>
0

>  <SCORE.INTRA.POLAR.0>
0

>  <SCORE.INTRA.REPUL>
0

>  <SCORE.INTRA.REPUL.0>
0

>  <SCORE.INTRA.SOLV>
-1.91652

>  <SCORE.INTRA.SOLV.lig_0>
-48.4032

>  <SCORE.INTRA.VDW>
0.28992

>  <SCORE.INTRA.VDW.0>
-1.65238

>  <SCORE.INTRA.norm>
-1.23176

>  <SCORE.RESTR>
0

>  <SCORE.RESTR.CAVITY>
0

>  <SCORE.RESTR.norm>
0

>  <SCORE.SYSTEM>
0

>  <SCORE.SYSTEM.CONST>
0

>  <SCORE.SYSTEM.DIHEDRAL>
0

>  <SCORE.SYSTEM.SOLV>
0

>  <SCORE.SYSTEM.norm>
0

>  <SCORE.heavy>
13

>  <SCORE.norm>
-0.868079

>  <RMSD>
4.986

$$$$
ligand
 OpenBabel11021811473D
libRbt.so/2013.1/901 2013/11/27
 13 12  0  0  0  0  0  0  0  0999 V2000
   28.3193   32.3256   49.6930 O   0  0  0  0  0  0  0  0  0  0  0  0
   28.1940   33.3391   52.4989 O   0  0  0  0  0  0  0  0  0  0  0  0
   29.8713   34.9536   46.5384 P   0  0  1  0  0  0  0  0  0  0  0  0
   31.1357   34.5170   45.8515 O   0  5  0  0  0  0  0  0  0  0  0  0
   28.7372   35.6580   45.9811 O   0  0  0  0  0  0  0  0  0  0  0  0
   29.6770   33.8467   47.6960 O   0  0  0  0  0  0  0  0  0  0  0  0
   28.8650   36.0537   53.0739 O   0  0  0  0  0  0  0  0  0  0  0  0
   29.0843   32.5576   47.4265 C   0  0  0  0  0  0  0  0  0  0  0  0
   27.4169   32.2427   51.9793 C   0  0  0  0  0  0  0  0  0  0  0  0
   28.4563   35.1504   54.1164 C   0  0  0  0  0  0  0  0  0  0  0  0
   29.1043   31.6805   48.6870 C   0  0  0  0  0  0  0  0  0  0  0  0
   28.2042   31.5048   50.8714 C   0  0  0  0  0  0  0  0  0  0  0  0
   27.5165   34.0662   53.5388 C   0  0  0  0  0  0  0  0  0  0  0  0
  1 12  1  0  0  0  0
  1 11  1  0  0  0  0
  2 13  1  0  0  0  0
  2  9  1  0  0  0  0
  3  4  1  6  0  0  0
  3  5  2  0  0  0  0
  3  6  1  0  0  0  0
  6  8  1  0  0  0  0
  7 10  1  0  0  0  0
  8 11  1  0  0  0  0
  9 12  1  0  0  0  0
 10 13  1  0  0  0  0
M  CHG  1   4  -1
M  END
>  <CHROM.1>
177.01687808,175.57978750,-81.60507281,176.52718188,61.92426509,-179.84471443
-69.66564809,58.95359339,175.33742299,28.91795788,33.82013947,49.53745656
2.51783571,1.24859152,0.72686668

>  <Name>
ligand

>  <RI>
0

>  <Rbt.Current_Directory>
/home/itssahil/PROJECTS/Mol_Feturizer/New_Systems/rnas/3GS8

>  <Rbt.Executable>
rbdock ($Id: //depot/dev/client3/rdock/2013.1/src/exe/rbdock.cxx#4 $)

>  <Rbt.Library>
libRbt.so (2013.1, Build901 2013/11/27)

>  <Rbt.Parameter_File>
/export/apps/rDock/src/rDock_2013.1_src/data/scripts/dock_solv.prm

>  <Rbt.Receptor>
prm/pocket_docking_5.prm

>  <SCORE>
-11.0405

>  <SCORE.INTER>
4.97448

>  <SCORE.INTER.CONST>
1

>  <SCORE.INTER.POLAR>
0

>  <SCORE.INTER.ROT>
9

>  <SCORE.INTER.SOLV>
6.34594

>  <SCORE.INTER.VDW>
-8.39899

>  <SCORE.INTER.norm>
0.382652

>  <SCORE.INTRA>
-16.015

>  <SCORE.INTRA.DIHEDRAL>
-30.9882

>  <SCORE.INTRA.DIHEDRAL.0>
31.9578

>  <SCORE.INTRA.POLAR>
0

>  <SCORE.INTRA.POLAR.0>
0

>  <SCORE.INTRA.REPUL>
0

>  <SCORE.INTRA.REPUL.0>
0

>  <SCORE.INTRA.SOLV>
-1.20453

>  <SCORE.INTRA.SOLV.lig_0>
-48.4032

>  <SCORE.INTRA.VDW>
0.0813764

>  <SCORE.INTRA.VDW.0>
-1.65238

>  <SCORE.INTRA.norm>
-1.23192

>  <SCORE.RESTR>
0

>  <SCORE.RESTR.CAVITY>
0

>  <SCORE.RESTR.norm>
0

>  <SCORE.SYSTEM>
0

>  <SCORE.SYSTEM.CONST>
0

>  <SCORE.SYSTEM.DIHEDRAL>
0

>  <SCORE.SYSTEM.SOLV>
0

>  <SCORE.SYSTEM.norm>
0

>  <SCORE.heavy>
13

>  <SCORE.norm>
-0.849268

>  <RMSD>
4.997

$$$$
ligand
 OpenBabel11021811473D
libRbt.so/2013.1/901 2013/11/27
 13 12  0  0  0  0  0  0  0  0999 V2000
   31.4253   31.9087   50.5754 O   0  0  0  0  0  0  0  0  0  0  0  0
   30.1723   32.0919   48.0366 O   0  0  0  0  0  0  0  0  0  0  0  0
   35.7234   32.4024   50.3140 P   0  0  1  0  0  0  0  0  0  0  0  0
   35.3878   33.7285   49.6896 O   0  5  0  0  0  0  0  0  0  0  0  0
   36.8431   32.0615   51.1642 O   0  0  0  0  0  0  0  0  0  0  0  0
   34.2787   31.7156   50.5247 O   0  0  0  0  0  0  0  0  0  0  0  0
   31.7665   33.4719   46.1028 O   0  0  0  0  0  0  0  0  0  0  0  0
   33.5248   31.8847   51.7448 C   0  0  0  0  0  0  0  0  0  0  0  0
   29.3697   32.0474   49.2323 C   0  0  0  0  0  0  0  0  0  0  0  0
   30.5028   32.8822   45.7492 C   0  0  0  0  0  0  0  0  0  0  0  0
   32.1384   31.2365   51.6165 C   0  0  0  0  0  0  0  0  0  0  0  0
   30.1303   31.3144   50.3619 C   0  0  0  0  0  0  0  0  0  0  0  0
   29.5670   32.8582   46.9804 C   0  0  0  0  0  0  0  0  0  0  0  0
  1 12  1  0  0  0  0
  1 11  1  0  0  0  0
  2 13  1  0  0  0  0
  2  9  1  0  0  0  0
  3  4  1  1  0  0  0
  3  5  2  0  0  0  0
  3  6  1  0  0  0  0
  6  8  1  0  0  0  0
  7 10  1  0  0  0  0
  8 11  1  0  0  0  0
  9 12  1  0  0  0  0
 10 13  1  0  0  0  0
M  CHG  1   4  -1
M  END
>  <CHROM.1>
-179.88291483,178.73940687,-90.67253401,174.56920626,-62.57989933,-175.13834376
54.15616392,-59.59886002,177.63769013,32.69332010,32.29954630,49.46333101
2.62731605,-0.17999238,-1.19798381

>  <Name>
ligand

>  <RI>
0

>  <Rbt.Current_Directory>
/home/itssahil/PROJECTS/Mol_Feturizer/New_Systems/rnas/3GS8

>  <Rbt.Executable>
rbdock ($Id: //depot/dev/client3/rdock/2013.1/src/exe/rbdock.cxx#4 $)

>  <Rbt.Library>
libRbt.so (2013.1, Build901 2013/11/27)

>  <Rbt.Parameter_File>
/export/apps/rDock/src/rDock_2013.1_src/data/scripts/dock_solv.prm

>  <Rbt.Receptor>
prm/pocket_docking_6.prm

>  <SCORE>
-13.7385

>  <SCORE.INTER>
2.37499

>  <SCORE.INTER.CONST>
1

>  <SCORE.INTER.POLAR>
0

>  <SCORE.INTER.ROT>
9

>  <SCORE.INTER.SOLV>
6.84265

>  <SCORE.INTER.VDW>
-10.2976

>  <SCORE.INTER.norm>
0.182692

>  <SCORE.INTRA>
-16.1135

>  <SCORE.INTRA.DIHEDRAL>
-31.0907

>  <SCORE.INTRA.DIHEDRAL.0>
31.9578

>  <SCORE.INTRA.POLAR>
0

>  <SCORE.INTRA.POLAR.0>
0

>  <SCORE.INTRA.REPUL>
0

>  <SCORE.INTRA.REPUL.0>
0

>  <SCORE.INTRA.SOLV>
-1.14242

>  <SCORE.INTRA.SOLV.lig_0>
-48.4032

>  <SCORE.INTRA.VDW>
0.00308972

>  <SCORE.INTRA.VDW.0>
-1.65238

>  <SCORE.INTRA.norm>
-1.2395

>  <SCORE.RESTR>
0

>  <SCORE.RESTR.CAVITY>
0

>  <SCORE.RESTR.norm>
0

>  <SCORE.SYSTEM>
0

>  <SCORE.SYSTEM.CONST>
0

>  <SCORE.SYSTEM.DIHEDRAL>
0

>  <SCORE.SYSTEM.SOLV>
0

>  <SCORE.SYSTEM.norm>
0

>  <SCORE.heavy>
13

>  <SCORE.norm>
-1.05681

>  <RMSD>
5.016

$$$$
ligand
 OpenBabel11021811473D
libRbt.so/2013.1/901 2013/11/27
 13 12  0  0  0  0  0  0  0  0999 V2000
   31.6156   31.4644   50.9151 O   0  0  0  0  0  0  0  0  0  0  0  0
   29.0126   32.2635   49.8688 O   0  0  0  0  0  0  0  0  0  0  0  0
   35.8148   32.1116   49.9298 P   0  0  1  0  0  0  0  0  0  0  0  0
   36.4403   30.9128   49.2721 O   0  5  0  0  0  0  0  0  0  0  0  0
   35.9148   33.5044   49.5519 O   0  0  0  0  0  0  0  0  0  0  0  0
   34.4575   31.5178   50.5689 O   0  0  0  0  0  0  0  0  0  0  0  0
   27.8599   32.6409   46.3723 O   0  0  0  0  0  0  0  0  0  0  0  0
   33.7863   32.1665   51.6709 C   0  0  0  0  0  0  0  0  0  0  0  0
   29.4087   30.8843   49.9982 C   0  0  0  0  0  0  0  0  0  0  0  0
   28.7929   32.3970   47.4398 C   0  0  0  0  0  0  0  0  0  0  0  0
   32.4995   31.4127   52.0378 C   0  0  0  0  0  0  0  0  0  0  0  0
   30.4079   30.7205   51.1671 C   0  0  0  0  0  0  0  0  0  0  0  0
   28.0698   32.4810   48.8044 C   0  0  0  0  0  0  0  0  0  0  0  0
  1 12  1  0  0  0  0
  1 11  1  0  0  0  0
  2 13  1  0  0  0  0
  2  9  1  0  0  0  0
  3  4  1  6  0  0  0
  3  5  2  0  0  0  0
  3  6  1  0  0  0  0
  6  8  1  0  0  0  0
  7 10  1  0  0  0  0
  8 11  1  0  0  0  0
  9 12  1  0  0  0  0
 10 13  1  0  0  0  0
M  CHG  1   4  -1
M  END
>  <CHROM.1>
175.07028162,-74.35013960,157.54665096,177.94154026,-62.88188481,-179.38407280
-62.66703293,-178.82877169,177.29541698,32.20953500,31.91064573,49.80246931
2.91798723,-0.06111610,-1.23056384

>  <Name>
ligand

>  <RI>
0

>  <Rbt.Current_Directory>
/home/itssahil/PROJECTS/Mol_Feturizer/New_Systems/rnas/3GS8

>  <Rbt.Executable>
rbdock ($Id: //depot/dev/client3/rdock/2013.1/src/exe/rbdock.cxx#4 $)

>  <Rbt.Library>
libRbt.so (2013.1, Build901 2013/11/27)

>  <Rbt.Parameter_File>
/export/apps/rDock/src/rDock_2013.1_src/data/scripts/dock_solv.prm

>  <Rbt.Receptor>
prm/pocket_docking_5.prm

>  <SCORE>
-11.8093

>  <SCORE.INTER>
3.28972

>  <SCORE.INTER.CONST>
1

>  <SCORE.INTER.POLAR>
0

>  <SCORE.INTER.ROT>
9

>  <SCORE.INTER.SOLV>
11.789

>  <SCORE.INTER.VDW>
-11.3365

>  <SCORE.INTER.norm>
0.253055

>  <SCORE.INTRA>
-15.099

>  <SCORE.INTRA.DIHEDRAL>
-30.441

>  <SCORE.INTRA.DIHEDRAL.0>
31.9578

>  <SCORE.INTRA.POLAR>
0

>  <SCORE.INTRA.POLAR.0>
0

>  <SCORE.INTRA.REPUL>
0

>  <SCORE.INTRA.REPUL.0>
0

>  <SCORE.INTRA.SOLV>
-1.6393

>  <SCORE.INTRA.SOLV.lig_0>
-48.4032

>  <SCORE.INTRA.VDW>
0.941134

>  <SCORE.INTRA.VDW.0>
-1.65238

>  <SCORE.INTRA.norm>
-1.16146

>  <SCORE.RESTR>
0

>  <SCORE.RESTR.CAVITY>
0

>  <SCORE.RESTR.norm>
0

>  <SCORE.SYSTEM>
0

>  <SCORE.SYSTEM.CONST>
0

>  <SCORE.SYSTEM.DIHEDRAL>
0

>  <SCORE.SYSTEM.SOLV>
0

>  <SCORE.SYSTEM.norm>
0

>  <SCORE.heavy>
13

>  <SCORE.norm>
-0.908407

>  <RMSD>
5.052

$$$$
ligand
 OpenBabel11021811473D
libRbt.so/2013.1/901 2013/11/27
 13 12  0  0  0  0  0  0  0  0999 V2000
   33.9586   31.4636   50.7813 O   0  0  0  0  0  0  0  0  0  0  0  0
   31.2852   32.1370   49.9451 O   0  0  0  0  0  0  0  0  0  0  0  0
   36.9842   31.6117   47.6600 P   0  0  1  0  0  0  0  0  0  0  0  0
   36.2796   32.3205   46.5365 O   0  5  0  0  0  0  0  0  0  0  0  0
   38.3964   31.3352   47.8092 O   0  0  0  0  0  0  0  0  0  0  0  0
   36.0596   31.9371   48.9415 O   0  0  0  0  0  0  0  0  0  0  0  0
   30.7967   32.2005   47.1317 O   0  0  0  0  0  0  0  0  0  0  0  0
   36.2925   31.3197   50.2261 C   0  0  0  0  0  0  0  0  0  0  0  0
   31.5353   31.4758   51.2005 C   0  0  0  0  0  0  0  0  0  0  0  0
   29.7884   32.6084   48.0733 C   0  0  0  0  0  0  0  0  0  0  0  0
   35.2626   31.8096   51.2548 C   0  0  0  0  0  0  0  0  0  0  0  0
   32.9417   31.8423   51.7290 C   0  0  0  0  0  0  0  0  0  0  0  0
   29.9791   31.8567   49.4116 C   0  0  0  0  0  0  0  0  0  0  0  0
  1 12  1  0  0  0  0
  1 11  1  0  0  0  0
  2 13  1  0  0  0  0
  2  9  1  0  0  0  0
  3  4  1  6  0  0  0
  3  5  2  0  0  0  0
  3  6  1  0  0  0  0
  6  8  1  0  0  0  0
  7 10  1  0  0  0  0
  8 11  1  0  0  0  0
  9 12  1  0  0  0  0
 10 13  1  0  0  0  0
M  CHG  1   4  -1
M  END
>  <CHROM.1>
179.45519358,179.64809937,172.96132572,-179.83699763,59.75348412,-178.86782132
-58.88511359,59.10211349,177.45098988,34.10335663,31.82483715,49.11162354
-2.94128757,0.08832699,-1.44610562

>  <Name>
ligand

>  <RI>
0

>  <Rbt.Current_Directory>
/home/itssahil/PROJECTS/Mol_Feturizer/New_Systems/rnas/3GS8

>  <Rbt.Executable>
rbdock ($Id: //depot/dev/client3/rdock/2013.1/src/exe/rbdock.cxx#4 $)

>  <Rbt.Library>
libRbt.so (2013.1, Build901 2013/11/27)

>  <Rbt.Parameter_File>
/export/apps/rDock/src/rDock_2013.1_src/data/scripts/dock_solv.prm

>  <Rbt.Receptor>
prm/pocket_docking_8.prm

>  <SCORE>
-15.2441

>  <SCORE.INTER>
1.1465

>  <SCORE.INTER.CONST>
1

>  <SCORE.INTER.POLAR>
0

>  <SCORE.INTER.ROT>
9

>  <SCORE.INTER.SOLV>
7.91198

>  <SCORE.INTER.VDW>
-11.473

>  <SCORE.INTER.norm>
0.0881921

>  <SCORE.INTRA>
-16.3906

>  <SCORE.INTRA.DIHEDRAL>
-31.5653

>  <SCORE.INTRA.DIHEDRAL.0>
31.9578

>  <SCORE.INTRA.POLAR>
0

>  <SCORE.INTRA.POLAR.0>
0

>  <SCORE.INTRA.REPUL>
0

>  <SCORE.INTRA.REPUL.0>
0

>  <SCORE.INTRA.SOLV>
-1.40388

>  <SCORE.INTRA.SOLV.lig_0>
-48.4032

>  <SCORE.INTRA.VDW>
0.094014

>  <SCORE.INTRA.VDW.0>
-1.65238

>  <SCORE.INTRA.norm>
-1.26081

>  <SCORE.RESTR>
0

>  <SCORE.RESTR.CAVITY>
0

>  <SCORE.RESTR.norm>
0

>  <SCORE.SYSTEM>
0

>  <SCORE.SYSTEM.CONST>
0

>  <SCORE.SYSTEM.DIHEDRAL>
0

>  <SCORE.SYSTEM.SOLV>
0

>  <SCORE.SYSTEM.norm>
0

>  <SCORE.heavy>
13

>  <SCORE.norm>
-1.17262

>  <RMSD>
5.093

$$$$
ligand
 OpenBabel11021811473D
libRbt.so/2013.1/901 2013/11/27
 13 12  0  0  0  0  0  0  0  0999 V2000
   29.9068   32.8641   46.3018 O   0  0  0  0  0  0  0  0  0  0  0  0
   27.3238   31.6893   46.9870 O   0  0  0  0  0  0  0  0  0  0  0  0
   34.0099   32.4250   43.3651 P   0  0  1  0  0  0  0  0  0  0  0  0
   33.6396   33.6291   42.5441 O   0  5  0  0  0  0  0  0  0  0  0  0
   35.2181   31.6311   43.3109 O   0  0  0  0  0  0  0  0  0  0  0  0
   33.2419   32.6778   44.7614 O   0  0  0  0  0  0  0  0  0  0  0  0
   26.0259   30.2946   44.9033 O   0  0  0  0  0  0  0  0  0  0  0  0
   31.8050   32.8059   44.8288 C   0  0  0  0  0  0  0  0  0  0  0  0
   27.8495   32.8560   47.6492 C   0  0  0  0  0  0  0  0  0  0  0  0
   25.4057   30.3997   46.1971 C   0  0  0  0  0  0  0  0  0  0  0  0
   31.3366   32.8635   46.2903 C   0  0  0  0  0  0  0  0  0  0  0  0
   29.3956   32.8224   47.6481 C   0  0  0  0  0  0  0  0  0  0  0  0
   25.8873   31.6839   46.9120 C   0  0  0  0  0  0  0  0  0  0  0  0
  1 12  1  0  0  0  0
  1 11  1  0  0  0  0
  2 13  1  0  0  0  0
  2  9  1  0  0  0  0
  3  4  1  1  0  0  0
  3  5  2  0  0  0  0
  3  6  1  0  0  0  0
  6  8  1  0  0  0  0
  7 10  1  0  0  0  0
  8 11  1  0  0  0  0
  9 12  1  0  0  0  0
 10 13  1  0  0  0  0
M  CHG  1   4  -1
M  END
>  <CHROM.1>
178.70942393,-179.68807962,60.11325539,172.92807198,-174.68887332,-177.90687801
62.88989307,-55.64484906,175.95501820,30.44136125,32.21699912,45.30270580
-2.88130482,-0.32670164,-2.09029824

>  <Name>
ligand

>  <RI>
0

>  <Rbt.Current_Directory>
/home/itssahil/PROJECTS/Mol_Feturizer/New_Systems/rnas/3GS8

>  <Rbt.Executable>
rbdock ($Id: //depot/dev/client3/rdock/2013.1/src/exe/rbdock.cxx#4 $)

>  <Rbt.Library>
libRbt.so (2013.1, Build901 2013/11/27)

>  <Rbt.Parameter_File>
/export/apps/rDock/src/rDock_2013.1_src/data/scripts/dock_solv.prm

>  <Rbt.Receptor>
prm/pocket_docking_8.prm

>  <SCORE>
-13.607

>  <SCORE.INTER>
2.20357

>  <SCORE.INTER.CONST>
1

>  <SCORE.INTER.POLAR>
0

>  <SCORE.INTER.ROT>
9

>  <SCORE.INTER.SOLV>
9.24874

>  <SCORE.INTER.VDW>
-11.2139

>  <SCORE.INTER.norm>
0.169506

>  <SCORE.INTRA>
-15.8106

>  <SCORE.INTRA.DIHEDRAL>
-30.928

>  <SCORE.INTRA.DIHEDRAL.0>
31.9578

>  <SCORE.INTRA.POLAR>
0

>  <SCORE.INTRA.POLAR.0>
0

>  <SCORE.INTRA.REPUL>
0

>  <SCORE.INTRA.REPUL.0>
0

>  <SCORE.INTRA.SOLV>
-1.39192

>  <SCORE.INTRA.SOLV.lig_0>
-48.4032

>  <SCORE.INTRA.VDW>
0.349424

>  <SCORE.INTRA.VDW.0>
-1.65238

>  <SCORE.INTRA.norm>
-1.2162

>  <SCORE.RESTR>
0

>  <SCORE.RESTR.CAVITY>
0

>  <SCORE.RESTR.norm>
0

>  <SCORE.SYSTEM>
0

>  <SCORE.SYSTEM.CONST>
0

>  <SCORE.SYSTEM.DIHEDRAL>
0

>  <SCORE.SYSTEM.SOLV>
0

>  <SCORE.SYSTEM.norm>
0

>  <SCORE.heavy>
13

>  <SCORE.norm>
-1.04669

>  <RMSD>
5.098

$$$$
ligand
 OpenBabel11021811473D
libRbt.so/2013.1/901 2013/11/27
 13 12  0  0  0  0  0  0  0  0999 V2000
   34.4695   32.1368   50.2346 O   0  0  0  0  0  0  0  0  0  0  0  0
   31.8318   32.3916   49.1647 O   0  0  0  0  0  0  0  0  0  0  0  0
   37.4885   30.6020   47.4345 P   0  0  1  0  0  0  0  0  0  0  0  0
   37.3157   31.8604   46.6298 O   0  5  0  0  0  0  0  0  0  0  0  0
   38.6711   29.7830   47.5881 O   0  0  0  0  0  0  0  0  0  0  0  0
   36.4441   30.7924   48.6495 O   0  0  0  0  0  0  0  0  0  0  0  0
   31.6779   32.9368   46.3298 O   0  0  0  0  0  0  0  0  0  0  0  0
   36.7691   31.5757   49.8184 C   0  0  0  0  0  0  0  0  0  0  0  0
   32.1228   32.8189   50.5096 C   0  0  0  0  0  0  0  0  0  0  0  0
   30.5169   32.6234   47.1194 C   0  0  0  0  0  0  0  0  0  0  0  0
   35.6180   31.5320   50.8342 C   0  0  0  0  0  0  0  0  0  0  0  0
   33.3117   32.0132   51.0830 C   0  0  0  0  0  0  0  0  0  0  0  0
   30.7245   33.0971   48.5770 C   0  0  0  0  0  0  0  0  0  0  0  0
  1 12  1  0  0  0  0
  1 11  1  0  0  0  0
  2 13  1  0  0  0  0
  2  9  1  0  0  0  0
  3  4  1  1  0  0  0
  3  5  2  0  0  0  0
  3  6  1  0  0  0  0
  6  8  1  0  0  0  0
  7 10  1  0  0  0  0
  8 11  1  0  0  0  0
  9 12  1  0  0  0  0
 10 13  1  0  0  0  0
M  CHG  1   4  -1
M  END
>  <CHROM.1>
172.97782990,177.61870939,-81.91626344,-177.47764759,-63.23362798,179.49853735
56.42668196,-62.68703983,174.31801959,34.66954517,31.74615441,48.62271936
-3.02432938,0.31717785,-1.58671207

>  <Name>
ligand

>  <RI>
0

>  <Rbt.Current_Directory>
/home/itssahil/PROJECTS/Mol_Feturizer/New_Systems/rnas/3GS8

>  <Rbt.Executable>
rbdock ($Id: //depot/dev/client3/rdock/2013.1/src/exe/rbdock.cxx#4 $)

>  <Rbt.Library>
libRbt.so (2013.1, Build901 2013/11/27)

>  <Rbt.Parameter_File>
/export/apps/rDock/src/rDock_2013.1_src/data/scripts/dock_solv.prm

>  <Rbt.Receptor>
prm/pocket_docking_6.prm

>  <SCORE>
-15.1503

>  <SCORE.INTER>
0.957565

>  <SCORE.INTER.CONST>
1

>  <SCORE.INTER.POLAR>
0

>  <SCORE.INTER.ROT>
9

>  <SCORE.INTER.SOLV>
11.7206

>  <SCORE.INTER.VDW>
-12.8685

>  <SCORE.INTER.norm>
0.0736588

>  <SCORE.INTRA>
-16.1079

>  <SCORE.INTRA.DIHEDRAL>
-31.0818

>  <SCORE.INTRA.DIHEDRAL.0>
31.9578

>  <SCORE.INTRA.POLAR>
0

>  <SCORE.INTRA.POLAR.0>
0

>  <SCORE.INTRA.REPUL>
0

>  <SCORE.INTRA.REPUL.0>
0

>  <SCORE.INTRA.SOLV>
-1.20819

>  <SCORE.INTRA.SOLV.lig_0>
-48.4032

>  <SCORE.INTRA.VDW>
0.0371381

>  <SCORE.INTRA.VDW.0>
-1.65238

>  <SCORE.INTRA.norm>
-1.23907

>  <SCORE.RESTR>
0

>  <SCORE.RESTR.CAVITY>
0

>  <SCORE.RESTR.norm>
0

>  <SCORE.SYSTEM>
0

>  <SCORE.SYSTEM.CONST>
0

>  <SCORE.SYSTEM.DIHEDRAL>
0

>  <SCORE.SYSTEM.SOLV>
0

>  <SCORE.SYSTEM.norm>
0

>  <SCORE.heavy>
13

>  <SCORE.norm>
-1.16541

>  <RMSD>
5.108

$$$$
ligand
 OpenBabel11021811473D
libRbt.so/2013.1/901 2013/11/27
 13 12  0  0  0  0  0  0  0  0999 V2000
   30.7748   32.3235   48.0863 O   0  0  0  0  0  0  0  0  0  0  0  0
   32.6163   32.3427   50.2143 O   0  0  0  0  0  0  0  0  0  0  0  0
   32.6601   33.7124   44.3778 P   0  0  1  0  0  0  0  0  0  0  0  0
   33.3682   32.3884   44.2951 O   0  5  0  0  0  0  0  0  0  0  0  0
   32.2423   34.5825   43.3003 O   0  0  0  0  0  0  0  0  0  0  0  0
   31.7878   33.5825   45.7289 O   0  0  0  0  0  0  0  0  0  0  0  0
   35.2240   31.8309   49.2105 O   0  0  0  0  0  0  0  0  0  0  0  0
   30.5305   32.8727   45.7593 C   0  0  0  0  0  0  0  0  0  0  0  0
   31.2876   31.8338   50.4412 C   0  0  0  0  0  0  0  0  0  0  0  0
   35.0216   32.1580   50.5968 C   0  0  0  0  0  0  0  0  0  0  0  0
   29.8957   32.9594   47.1551 C   0  0  0  0  0  0  0  0  0  0  0  0
   30.2936   32.4626   49.4371 C   0  0  0  0  0  0  0  0  0  0  0  0
   33.6091   31.7147   51.0444 C   0  0  0  0  0  0  0  0  0  0  0  0
  1 12  1  0  0  0  0
  1 11  1  0  0  0  0
  2 13  1  0  0  0  0
  2  9  1  0  0  0  0
  3  4  1  6  0  0  0
  3  5  2  0  0  0  0
  3  6  1  0  0  0  0
  6  8  1  0  0  0  0
  7 10  1  0  0  0  0
  8 11  1  0  0  0  0
  9 12  1  0  0  0  0
 10 13  1  0  0  0  0
M  CHG  1   4  -1
M  END
>  <CHROM.1>
-177.14219782,171.58010473,-80.04093643,-177.68724263,-62.34306570,-175.19764369
51.60684231,-57.47540795,175.30330597,32.31050111,32.76687893,47.35312812
1.42289987,-0.05835917,1.82989495

>  <Name>
ligand

>  <RI>
0

>  <Rbt.Current_Directory>
/home/itssahil/PROJECTS/Mol_Feturizer/New_Systems/rnas/3GS8

>  <Rbt.Executable>
rbdock ($Id: //depot/dev/client3/rdock/2013.1/src/exe/rbdock.cxx#4 $)

>  <Rbt.Library>
libRbt.so (2013.1, Build901 2013/11/27)

>  <Rbt.Parameter_File>
/export/apps/rDock/src/rDock_2013.1_src/data/scripts/dock_solv.prm

>  <Rbt.Receptor>
prm/pocket_docking_4.prm

>  <SCORE>
-11.5253

>  <SCORE.INTER>
4.36998

>  <SCORE.INTER.CONST>
1

>  <SCORE.INTER.POLAR>
0

>  <SCORE.INTER.ROT>
9

>  <SCORE.INTER.SOLV>
9.41918

>  <SCORE.INTER.VDW>
-9.82641

>  <SCORE.INTER.norm>
0.336152

>  <SCORE.INTRA>
-15.8952

>  <SCORE.INTRA.DIHEDRAL>
-30.7284

>  <SCORE.INTRA.DIHEDRAL.0>
31.9578

>  <SCORE.INTRA.POLAR>
0

>  <SCORE.INTRA.POLAR.0>
0

>  <SCORE.INTRA.REPUL>
0

>  <SCORE.INTRA.REPUL.0>
0

>  <SCORE.INTRA.SOLV>
-1.15528

>  <SCORE.INTRA.SOLV.lig_0>
-48.4032

>  <SCORE.INTRA.VDW>
0.0465926

>  <SCORE.INTRA.VDW.0>
-1.65238

>  <SCORE.INTRA.norm>
-1.22271

>  <SCORE.RESTR>
0

>  <SCORE.RESTR.CAVITY>
0

>  <SCORE.RESTR.norm>
0

>  <SCORE.SYSTEM>
0

>  <SCORE.SYSTEM.CONST>
0

>  <SCORE.SYSTEM.DIHEDRAL>
0

>  <SCORE.SYSTEM.SOLV>
0

>  <SCORE.SYSTEM.norm>
0

>  <SCORE.heavy>
13

>  <SCORE.norm>
-0.886558

>  <RMSD>
5.114

$$$$
ligand
 OpenBabel11021811473D
libRbt.so/2013.1/901 2013/11/27
 13 12  0  0  0  0  0  0  0  0999 V2000
   35.1709   31.3197   50.0891 O   0  0  0  0  0  0  0  0  0  0  0  0
   32.4508   32.2411   50.1160 O   0  0  0  0  0  0  0  0  0  0  0  0
   36.8904   31.1837   46.0651 P   0  0  1  0  0  0  0  0  0  0  0  0
   35.8658   31.9195   45.2466 O   0  5  0  0  0  0  0  0  0  0  0  0
   38.2408   30.8132   45.7015 O   0  0  0  0  0  0  0  0  0  0  0  0
   36.5192   31.5947   47.5805 O   0  0  0  0  0  0  0  0  0  0  0  0
   29.0003   32.5667   48.8184 O   0  0  0  0  0  0  0  0  0  0  0  0
   37.1042   30.9234   48.7175 C   0  0  0  0  0  0  0  0  0  0  0  0
   33.0707   31.7157   51.3059 C   0  0  0  0  0  0  0  0  0  0  0  0
   30.4331   32.6948   48.8163 C   0  0  0  0  0  0  0  0  0  0  0  0
   36.5838   31.5304   50.0288 C   0  0  0  0  0  0  0  0  0  0  0  0
   34.6001   31.9398   51.2575 C   0  0  0  0  0  0  0  0  0  0  0  0
   31.0161   32.1383   50.1364 C   0  0  0  0  0  0  0  0  0  0  0  0
  1 12  1  0  0  0  0
  1 11  1  0  0  0  0
  2 13  1  0  0  0  0
  2  9  1  0  0  0  0
  3  4  1  6  0  0  0
  3  5  2  0  0  0  0
  3  6  1  0  0  0  0
  6  8  1  0  0  0  0
  7 10  1  0  0  0  0
  8 11  1  0  0  0  0
  9 12  1  0  0  0  0
 10 13  1  0  0  0  0
M  CHG  1   4  -1
M  END
>  <CHROM.1>
179.51693397,-178.82436147,168.74160992,179.33279014,62.66764014,-176.36798401
-57.94686415,178.69784102,-176.35851564,34.59096373,31.69291079,48.49686713
-2.65669448,0.19122476,-1.54466162

>  <Name>
ligand

>  <RI>
0

>  <Rbt.Current_Directory>
/home/itssahil/PROJECTS/Mol_Feturizer/New_Systems/rnas/3GS8

>  <Rbt.Executable>
rbdock ($Id: //depot/dev/client3/rdock/2013.1/src/exe/rbdock.cxx#4 $)

>  <Rbt.Library>
libRbt.so (2013.1, Build901 2013/11/27)

>  <Rbt.Parameter_File>
/export/apps/rDock/src/rDock_2013.1_src/data/scripts/dock_solv.prm

>  <Rbt.Receptor>
prm/pocket_docking_5.prm

>  <SCORE>
-14.6288

>  <SCORE.INTER>
1.78984

>  <SCORE.INTER.CONST>
1

>  <SCORE.INTER.POLAR>
0

>  <SCORE.INTER.ROT>
9

>  <SCORE.INTER.SOLV>
12.3593

>  <SCORE.INTER.VDW>
-12.5266

>  <SCORE.INTER.norm>
0.13768

>  <SCORE.INTRA>
-16.4187

>  <SCORE.INTRA.DIHEDRAL>
-31.4674

>  <SCORE.INTRA.DIHEDRAL.0>
31.9578

>  <SCORE.INTRA.POLAR>
0

>  <SCORE.INTRA.POLAR.0>
0

>  <SCORE.INTRA.REPUL>
0

>  <SCORE.INTRA.REPUL.0>
0

>  <SCORE.INTRA.SOLV>
-1.69319

>  <SCORE.INTRA.SOLV.lig_0>
-48.4032

>  <SCORE.INTRA.VDW>
0.161549

>  <SCORE.INTRA.VDW.0>
-1.65238

>  <SCORE.INTRA.norm>
-1.26298

>  <SCORE.RESTR>
0.000104801

>  <SCORE.RESTR.CAVITY>
0.000104801

>  <SCORE.RESTR.norm>
8.0616e-06

>  <SCORE.SYSTEM>
0

>  <SCORE.SYSTEM.CONST>
0

>  <SCORE.SYSTEM.DIHEDRAL>
0

>  <SCORE.SYSTEM.SOLV>
0

>  <SCORE.SYSTEM.norm>
0

>  <SCORE.heavy>
13

>  <SCORE.norm>
-1.12529

>  <RMSD>
5.130

$$$$
ligand
 OpenBabel11021811473D
libRbt.so/2013.1/901 2013/11/27
 13 12  0  0  0  0  0  0  0  0999 V2000
   34.0017   32.1405   44.4378 O   0  0  0  0  0  0  0  0  0  0  0  0
   31.2933   32.7731   45.2559 O   0  0  0  0  0  0  0  0  0  0  0  0
   37.5443   31.7217   46.8460 P   0  0  1  0  0  0  0  0  0  0  0  0
   37.5441   33.0388   47.5714 O   0  5  0  0  0  0  0  0  0  0  0  0
   37.7590   30.3951   47.3817 O   0  0  0  0  0  0  0  0  0  0  0  0
   36.5194   31.9707   45.6251 O   0  0  0  0  0  0  0  0  0  0  0  0
   30.5759   32.2189   47.9740 O   0  0  0  0  0  0  0  0  0  0  0  0
   36.0141   30.8834   44.8200 C   0  0  0  0  0  0  0  0  0  0  0  0
   31.9749   33.5176   44.2278 C   0  0  0  0  0  0  0  0  0  0  0  0
   29.6033   32.6739   47.0166 C   0  0  0  0  0  0  0  0  0  0  0  0
   35.0278   31.4062   43.7652 C   0  0  0  0  0  0  0  0  0  0  0  0
   33.0084   32.6185   43.5101 C   0  0  0  0  0  0  0  0  0  0  0  0
   30.2894   33.5449   45.9383 C   0  0  0  0  0  0  0  0  0  0  0  0
  1 12  1  0  0  0  0
  1 11  1  0  0  0  0
  2 13  1  0  0  0  0
  2  9  1  0  0  0  0
  3  4  1  1  0  0  0
  3  5  2  0  0  0  0
  3  6  1  0  0  0  0
  6  8  1  0  0  0  0
  7 10  1  0  0  0  0
  8 11  1  0  0  0  0
  9 12  1  0  0  0  0
 10 13  1  0  0  0  0
M  CHG  1   4  -1
M  END
>  <CHROM.1>
-174.85623681,179.71795750,-167.52084900,178.19032654,-55.20046629,-178.36974692
-60.80071502,60.04326511,-177.74580085,34.26291535,32.17556834,45.84773402
-3.04077462,-0.19394288,1.57859240

>  <Name>
ligand

>  <RI>
0

>  <Rbt.Current_Directory>
/home/itssahil/PROJECTS/Mol_Feturizer/New_Systems/rnas/3GS8

>  <Rbt.Executable>
rbdock ($Id: //depot/dev/client3/rdock/2013.1/src/exe/rbdock.cxx#4 $)

>  <Rbt.Library>
libRbt.so (2013.1, Build901 2013/11/27)

>  <Rbt.Parameter_File>
/export/apps/rDock/src/rDock_2013.1_src/data/scripts/dock_solv.prm

>  <Rbt.Receptor>
prm/pocket_docking_4.prm

>  <SCORE>
-12.0934

>  <SCORE.INTER>
3.89396

>  <SCORE.INTER.CONST>
1

>  <SCORE.INTER.POLAR>
0

>  <SCORE.INTER.ROT>
9

>  <SCORE.INTER.SOLV>
10.3131

>  <SCORE.INTER.VDW>
-10.4417

>  <SCORE.INTER.norm>
0.299535

>  <SCORE.INTRA>
-15.9874

>  <SCORE.INTRA.DIHEDRAL>
-30.9112

>  <SCORE.INTRA.DIHEDRAL.0>
31.9578

>  <SCORE.INTRA.POLAR>
0

>  <SCORE.INTRA.POLAR.0>
0

>  <SCORE.INTRA.REPUL>
0

>  <SCORE.INTRA.REPUL.0>
0

>  <SCORE.INTRA.SOLV>
-1.32295

>  <SCORE.INTRA.SOLV.lig_0>
-48.4032

>  <SCORE.INTRA.VDW>
0.129669

>  <SCORE.INTRA.VDW.0>
-1.65238

>  <SCORE.INTRA.norm>
-1.2298

>  <SCORE.RESTR>
0

>  <SCORE.RESTR.CAVITY>
0

>  <SCORE.RESTR.norm>
0

>  <SCORE.SYSTEM>
0

>  <SCORE.SYSTEM.CONST>
0

>  <SCORE.SYSTEM.DIHEDRAL>
0

>  <SCORE.SYSTEM.SOLV>
0

>  <SCORE.SYSTEM.norm>
0

>  <SCORE.heavy>
13

>  <SCORE.norm>
-0.930265

>  <RMSD>
5.146

$$$$
ligand
 OpenBabel11021811473D
libRbt.so/2013.1/901 2013/11/27
 13 12  0  0  0  0  0  0  0  0999 V2000
   33.5788   31.6063   50.8983 O   0  0  0  0  0  0  0  0  0  0  0  0
   30.9297   31.9867   49.9846 O   0  0  0  0  0  0  0  0  0  0  0  0
   37.1045   30.9922   48.4377 P   0  0  1  0  0  0  0  0  0  0  0  0
   36.6153   32.0637   47.5031 O   0  5  0  0  0  0  0  0  0  0  0  0
   38.4616   30.5506   48.6748 O   0  0  0  0  0  0  0  0  0  0  0  0
   36.0159   31.0134   49.6283 O   0  0  0  0  0  0  0  0  0  0  0  0
   28.3364   32.3407   47.3681 O   0  0  0  0  0  0  0  0  0  0  0  0
   35.8943   32.1346   50.5303 C   0  0  0  0  0  0  0  0  0  0  0  0
   31.1807   31.0953   51.0884 C   0  0  0  0  0  0  0  0  0  0  0  0
   29.5540   32.6378   48.0743 C   0  0  0  0  0  0  0  0  0  0  0  0
   34.8076   31.8657   51.5818 C   0  0  0  0  0  0  0  0  0  0  0  0
   32.4789   31.5035   51.8231 C   0  0  0  0  0  0  0  0  0  0  0  0
   29.7181   31.6759   49.2742 C   0  0  0  0  0  0  0  0  0  0  0  0
  1 12  1  0  0  0  0
  1 11  1  0  0  0  0
  2 13  1  0  0  0  0
  2  9  1  0  0  0  0
  3  4  1  1  0  0  0
  3  5  2  0  0  0  0
  3  6  1  0  0  0  0
  6  8  1  0  0  0  0
  7 10  1  0  0  0  0
  8 11  1  0  0  0  0
  9 12  1  0  0  0  0
 10 13  1  0  0  0  0
M  CHG  1   4  -1
M  END
>  <CHROM.1>
-174.80938300,-177.64096972,-67.69081687,-178.47206351,-57.57287005,-178.82800641
-53.14478796,-179.39981472,-173.06958277,33.76201676,31.59512055,49.47805492
-3.12910773,0.11692094,-1.49690892

>  <Name>
ligand

>  <RI>
0

>  <Rbt.Current_Directory>
/home/itssahil/PROJECTS/Mol_Feturizer/New_Systems/rnas/3GS8

>  <Rbt.Executable>
rbdock ($Id: //depot/dev/client3/rdock/2013.1/src/exe/rbdock.cxx#4 $)

>  <Rbt.Library>
libRbt.so (2013.1, Build901 2013/11/27)

>  <Rbt.Parameter_File>
/export/apps/rDock/src/rDock_2013.1_src/data/scripts/dock_solv.prm

>  <Rbt.Receptor>
prm/pocket_docking_7.prm

>  <SCORE>
-15.3898

>  <SCORE.INTER>
0.591145

>  <SCORE.INTER.CONST>
1

>  <SCORE.INTER.POLAR>
0

>  <SCORE.INTER.ROT>
9

>  <SCORE.INTER.SOLV>
11.0354

>  <SCORE.INTER.VDW>
-12.8844

>  <SCORE.INTER.norm>
0.0454727

>  <SCORE.INTRA>
-15.981

>  <SCORE.INTRA.DIHEDRAL>
-31.0102

>  <SCORE.INTRA.DIHEDRAL.0>
31.9578

>  <SCORE.INTRA.POLAR>
0

>  <SCORE.INTRA.POLAR.0>
0

>  <SCORE.INTRA.REPUL>
0

>  <SCORE.INTRA.REPUL.0>
0

>  <SCORE.INTRA.SOLV>
-1.35562

>  <SCORE.INTRA.SOLV.lig_0>
-48.4032

>  <SCORE.INTRA.VDW>
0.201929

>  <SCORE.INTRA.VDW.0>
-1.65238

>  <SCORE.INTRA.norm>
-1.22931

>  <SCORE.RESTR>
0

>  <SCORE.RESTR.CAVITY>
0

>  <SCORE.RESTR.norm>
0

>  <SCORE.SYSTEM>
0

>  <SCORE.SYSTEM.CONST>
0

>  <SCORE.SYSTEM.DIHEDRAL>
0

>  <SCORE.SYSTEM.SOLV>
0

>  <SCORE.SYSTEM.norm>
0

>  <SCORE.heavy>
13

>  <SCORE.norm>
-1.18383

>  <RMSD>
5.159

$$$$
ligand
 OpenBabel11021811473D
libRbt.so/2013.1/901 2013/11/27
 13 12  0  0  0  0  0  0  0  0999 V2000
   34.5243   32.3105   49.6972 O   0  0  0  0  0  0  0  0  0  0  0  0
   32.1154   32.6938   48.1734 O   0  0  0  0  0  0  0  0  0  0  0  0
   37.7804   30.5283   47.4250 P   0  0  1  0  0  0  0  0  0  0  0  0
   38.6408   29.5179   48.1320 O   0  5  0  0  0  0  0  0  0  0  0  0
   37.6036   30.7275   46.0031 O   0  0  0  0  0  0  0  0  0  0  0  0
   36.5625   30.7647   48.4566 O   0  0  0  0  0  0  0  0  0  0  0  0
   30.3402   33.5686   45.0460 O   0  0  0  0  0  0  0  0  0  0  0  0
   36.7569   31.4214   49.7281 C   0  0  0  0  0  0  0  0  0  0  0  0
   32.2753   33.2815   49.4791 C   0  0  0  0  0  0  0  0  0  0  0  0
   31.1790   32.7921   45.9196 C   0  0  0  0  0  0  0  0  0  0  0  0
   35.4264   31.5318   50.4872 C   0  0  0  0  0  0  0  0  0  0  0  0
   33.2388   32.4286   50.3369 C   0  0  0  0  0  0  0  0  0  0  0  0
   31.2587   33.4629   47.3109 C   0  0  0  0  0  0  0  0  0  0  0  0
  1 12  1  0  0  0  0
  1 11  1  0  0  0  0
  2 13  1  0  0  0  0
  2  9  1  0  0  0  0
  3  4  1  6  0  0  0
  3  5  2  0  0  0  0
  3  6  1  0  0  0  0
  6  8  1  0  0  0  0
  7 10  1  0  0  0  0
  8 11  1  0  0  0  0
  9 12  1  0  0  0  0
 10 13  1  0  0  0  0
M  CHG  1   4  -1
M  END
>  <CHROM.1>
179.55982128,178.07154819,68.21536922,178.94738331,-60.82497461,-178.30023651
58.37507504,-179.09399609,178.60918116,34.73633830,31.79482412,48.07639803
3.04909239,0.41505736,-1.65250902

>  <Name>
ligand

>  <RI>
0

>  <Rbt.Current_Directory>
/home/itssahil/PROJECTS/Mol_Feturizer/New_Systems/rnas/3GS8

>  <Rbt.Executable>
rbdock ($Id: //depot/dev/client3/rdock/2013.1/src/exe/rbdock.cxx#4 $)

>  <Rbt.Library>
libRbt.so (2013.1, Build901 2013/11/27)

>  <Rbt.Parameter_File>
/export/apps/rDock/src/rDock_2013.1_src/data/scripts/dock_solv.prm

>  <Rbt.Receptor>
prm/pocket_docking_6.prm

>  <SCORE>
-14.5668

>  <SCORE.INTER>
1.61716

>  <SCORE.INTER.CONST>
1

>  <SCORE.INTER.POLAR>
0

>  <SCORE.INTER.ROT>
9

>  <SCORE.INTER.SOLV>
14.9283

>  <SCORE.INTER.VDW>
-13.498

>  <SCORE.INTER.norm>
0.124397

>  <SCORE.INTRA>
-16.1839

>  <SCORE.INTRA.DIHEDRAL>
-31.2346

>  <SCORE.INTRA.DIHEDRAL.0>
31.9578

>  <SCORE.INTRA.POLAR>
0

>  <SCORE.INTRA.POLAR.0>
0

>  <SCORE.INTRA.REPUL>
0

>  <SCORE.INTRA.REPUL.0>
0

>  <SCORE.INTRA.SOLV>
-1.54475

>  <SCORE.INTRA.SOLV.lig_0>
-48.4032

>  <SCORE.INTRA.VDW>
0.205757

>  <SCORE.INTRA.VDW.0>
-1.65238

>  <SCORE.INTRA.norm>
-1.24492

>  <SCORE.RESTR>
0

>  <SCORE.RESTR.CAVITY>
0

>  <SCORE.RESTR.norm>
0

>  <SCORE.SYSTEM>
0

>  <SCORE.SYSTEM.CONST>
0

>  <SCORE.SYSTEM.DIHEDRAL>
0

>  <SCORE.SYSTEM.SOLV>
0

>  <SCORE.SYSTEM.norm>
0

>  <SCORE.heavy>
13

>  <SCORE.norm>
-1.12052

>  <RMSD>
5.174

$$$$
ligand
 OpenBabel11021811473D
libRbt.so/2013.1/901 2013/11/27
 13 12  0  0  0  0  0  0  0  0999 V2000
   34.3210   32.3660   49.6038 O   0  0  0  0  0  0  0  0  0  0  0  0
   32.0145   32.7362   47.9351 O   0  0  0  0  0  0  0  0  0  0  0  0
   37.7169   30.4686   47.5692 P   0  0  1  0  0  0  0  0  0  0  0  0
   37.8813   31.7625   46.8210 O   0  5  0  0  0  0  0  0  0  0  0  0
   38.7308   29.5089   47.9482 O   0  0  0  0  0  0  0  0  0  0  0  0
   36.4389   30.7465   48.5140 O   0  0  0  0  0  0  0  0  0  0  0  0
   32.5371   32.9396   45.0790 O   0  0  0  0  0  0  0  0  0  0  0  0
   36.5512   31.4828   49.7513 C   0  0  0  0  0  0  0  0  0  0  0  0
   32.0765   33.3091   49.2557 C   0  0  0  0  0  0  0  0  0  0  0  0
   31.2122   32.8393   45.6304 C   0  0  0  0  0  0  0  0  0  0  0  0
   35.1831   31.5911   50.4407 C   0  0  0  0  0  0  0  0  0  0  0  0
   32.9976   32.4626   50.1649 C   0  0  0  0  0  0  0  0  0  0  0  0
   31.1742   33.4819   47.0368 C   0  0  0  0  0  0  0  0  0  0  0  0
  1 12  1  0  0  0  0
  1 11  1  0  0  0  0
  2 13  1  0  0  0  0
  2  9  1  0  0  0  0
  3  4  1  1  0  0  0
  3  5  2  0  0  0  0
  3  6  1  0  0  0  0
  6  8  1  0  0  0  0
  7 10  1  0  0  0  0
  8 11  1  0  0  0  0
  9 12  1  0  0  0  0
 10 13  1  0  0  0  0
M  CHG  1   4  -1
M  END
>  <CHROM.1>
179.68561024,177.48580123,-80.09419563,-179.87676856,-64.57065955,-179.81195744
57.81267927,-64.67963138,177.61314630,34.82648391,31.83869319,48.06207113
3.02759378,0.39732814,-1.57266347

>  <Name>
ligand

>  <RI>
0

>  <Rbt.Current_Directory>
/home/itssahil/PROJECTS/Mol_Feturizer/New_Systems/rnas/3GS8

>  <Rbt.Executable>
rbdock ($Id: //depot/dev/client3/rdock/2013.1/src/exe/rbdock.cxx#4 $)

>  <Rbt.Library>
libRbt.so (2013.1, Build901 2013/11/27)

>  <Rbt.Parameter_File>
/export/apps/rDock/src/rDock_2013.1_src/data/scripts/dock_solv.prm

>  <Rbt.Receptor>
prm/pocket_docking_8.prm

>  <SCORE>
-15.1662

>  <SCORE.INTER>
1.13772

>  <SCORE.INTER.CONST>
1

>  <SCORE.INTER.POLAR>
0

>  <SCORE.INTER.ROT>
9

>  <SCORE.INTER.SOLV>
12.049

>  <SCORE.INTER.VDW>
-12.8579

>  <SCORE.INTER.norm>
0.0875169

>  <SCORE.INTRA>
-16.304

>  <SCORE.INTRA.DIHEDRAL>
-31.4284

>  <SCORE.INTRA.DIHEDRAL.0>
31.9578

>  <SCORE.INTRA.POLAR>
0

>  <SCORE.INTRA.POLAR.0>
0

>  <SCORE.INTRA.REPUL>
0

>  <SCORE.INTRA.REPUL.0>
0

>  <SCORE.INTRA.SOLV>
-1.20086

>  <SCORE.INTRA.SOLV.lig_0>
-48.4032

>  <SCORE.INTRA.VDW>
0.0106644

>  <SCORE.INTRA.VDW.0>
-1.65238

>  <SCORE.INTRA.norm>
-1.25415

>  <SCORE.RESTR>
0

>  <SCORE.RESTR.CAVITY>
0

>  <SCORE.RESTR.norm>
0

>  <SCORE.SYSTEM>
0

>  <SCORE.SYSTEM.CONST>
0

>  <SCORE.SYSTEM.DIHEDRAL>
0

>  <SCORE.SYSTEM.SOLV>
0

>  <SCORE.SYSTEM.norm>
0

>  <SCORE.heavy>
13

>  <SCORE.norm>
-1.16663

>  <RMSD>
5.180

$$$$
ligand
 OpenBabel11021811473D
libRbt.so/2013.1/901 2013/11/27
 13 12  0  0  0  0  0  0  0  0999 V2000
   34.2356   31.4375   50.8458 O   0  0  0  0  0  0  0  0  0  0  0  0
   30.7561   31.9805   52.0353 O   0  0  0  0  0  0  0  0  0  0  0  0
   37.1639   31.4626   47.7309 P   0  0  1  0  0  0  0  0  0  0  0  0
   36.2959   31.9212   46.5919 O   0  5  0  0  0  0  0  0  0  0  0  0
   38.6042   31.3343   47.7744 O   0  0  0  0  0  0  0  0  0  0  0  0
   36.3280   31.9082   49.0370 O   0  0  0  0  0  0  0  0  0  0  0  0
   28.3898   33.6270   52.4981 O   0  0  0  0  0  0  0  0  0  0  0  0
   36.5823   31.3340   50.3374 C   0  0  0  0  0  0  0  0  0  0  0  0
   31.8003   31.4631   51.1881 C   0  0  0  0  0  0  0  0  0  0  0  0
   28.3803   32.1899   52.5625 C   0  0  0  0  0  0  0  0  0  0  0  0
   35.5242   31.7992   51.3488 C   0  0  0  0  0  0  0  0  0  0  0  0
   33.1867   31.8920   51.7226 C   0  0  0  0  0  0  0  0  0  0  0  0
   29.4380   31.6098   51.5944 C   0  0  0  0  0  0  0  0  0  0  0  0
  1 12  1  0  0  0  0
  1 11  1  0  0  0  0
  2 13  1  0  0  0  0
  2  9  1  0  0  0  0
  3  4  1  6  0  0  0
  3  5  2  0  0  0  0
  3  6  1  0  0  0  0
  6  8  1  0  0  0  0
  7 10  1  0  0  0  0
  8 11  1  0  0  0  0
  9 12  1  0  0  0  0
 10 13  1  0  0  0  0
M  CHG  1   4  -1
M  END
>  <CHROM.1>
-178.50883969,179.39577983,161.45943280,-172.41571260,56.97700227,-179.70505583
-177.08428837,65.58981713,-177.72411771,33.90656419,31.82324948,50.15642217
-0.47297783,-0.15709816,1.67217727

>  <Name>
ligand

>  <RI>
0

>  <Rbt.Current_Directory>
/home/itssahil/PROJECTS/Mol_Feturizer/New_Systems/rnas/3GS8

>  <Rbt.Executable>
rbdock ($Id: //depot/dev/client3/rdock/2013.1/src/exe/rbdock.cxx#4 $)

>  <Rbt.Library>
libRbt.so (2013.1, Build901 2013/11/27)

>  <Rbt.Parameter_File>
/export/apps/rDock/src/rDock_2013.1_src/data/scripts/dock_solv.prm

>  <Rbt.Receptor>
prm/pocket_docking_7.prm

>  <SCORE>
-13.4496

>  <SCORE.INTER>
2.6872

>  <SCORE.INTER.CONST>
1

>  <SCORE.INTER.POLAR>
0

>  <SCORE.INTER.ROT>
9

>  <SCORE.INTER.SOLV>
7.7115

>  <SCORE.INTER.VDW>
-10.379

>  <SCORE.INTER.norm>
0.206708

>  <SCORE.INTRA>
-16.1368

>  <SCORE.INTRA.DIHEDRAL>
-31.1708

>  <SCORE.INTRA.DIHEDRAL.0>
31.9578

>  <SCORE.INTRA.POLAR>
0

>  <SCORE.INTRA.POLAR.0>
0

>  <SCORE.INTRA.REPUL>
0

>  <SCORE.INTRA.REPUL.0>
0

>  <SCORE.INTRA.SOLV>
-1.59006

>  <SCORE.INTRA.SOLV.lig_0>
-48.4032

>  <SCORE.INTRA.VDW>
0.243656

>  <SCORE.INTRA.VDW.0>
-1.65238

>  <SCORE.INTRA.norm>
-1.24129

>  <SCORE.RESTR>
0

>  <SCORE.RESTR.CAVITY>
0

>  <SCORE.RESTR.norm>
0

>  <SCORE.SYSTEM>
0

>  <SCORE.SYSTEM.CONST>
0

>  <SCORE.SYSTEM.DIHEDRAL>
0

>  <SCORE.SYSTEM.SOLV>
0

>  <SCORE.SYSTEM.norm>
0

>  <SCORE.heavy>
13

>  <SCORE.norm>
-1.03458

>  <RMSD>
5.181

$$$$
ligand
 OpenBabel11021811473D
libRbt.so/2013.1/901 2013/11/27
 13 12  0  0  0  0  0  0  0  0999 V2000
   28.5789   32.2554   49.0567 O   0  0  0  0  0  0  0  0  0  0  0  0
   28.0928   33.0853   51.8142 O   0  0  0  0  0  0  0  0  0  0  0  0
   29.5825   35.4843   46.2794 P   0  0  1  0  0  0  0  0  0  0  0  0
   28.7165   35.6339   45.0594 O   0  5  0  0  0  0  0  0  0  0  0  0
   30.3977   36.4823   46.9368 O   0  0  0  0  0  0  0  0  0  0  0  0
   28.8359   34.3306   47.1249 O   0  0  0  0  0  0  0  0  0  0  0  0
   28.7386   35.1829   54.7941 O   0  0  0  0  0  0  0  0  0  0  0  0
   28.9603   32.9331   46.7827 C   0  0  0  0  0  0  0  0  0  0  0  0
   28.3121   31.7112   51.4402 C   0  0  0  0  0  0  0  0  0  0  0  0
   28.2921   34.8782   53.4609 C   0  0  0  0  0  0  0  0  0  0  0  0
   28.1042   32.0696   47.7209 C   0  0  0  0  0  0  0  0  0  0  0  0
   27.8230   31.4643   49.9940 C   0  0  0  0  0  0  0  0  0  0  0  0
   28.5404   33.3839   53.1482 C   0  0  0  0  0  0  0  0  0  0  0  0
  1 12  1  0  0  0  0
  1 11  1  0  0  0  0
  2 13  1  0  0  0  0
  2  9  1  0  0  0  0
  3  4  1  1  0  0  0
  3  5  2  0  0  0  0
  3  6  1  0  0  0  0
  6  8  1  0  0  0  0
  7 10  1  0  0  0  0
  8 11  1  0  0  0  0
  9 12  1  0  0  0  0
 10 13  1  0  0  0  0
M  CHG  1   4  -1
M  END
>  <CHROM.1>
-177.99130478,179.03167917,78.29628142,-177.86180541,-61.21179839,-179.40660301
63.00824679,-179.96860855,-179.62544077,28.77338383,33.94060391,49.22827781
2.01444343,1.26950442,1.34136871

>  <Name>
ligand

>  <RI>
0

>  <Rbt.Current_Directory>
/home/itssahil/PROJECTS/Mol_Feturizer/New_Systems/rnas/3GS8

>  <Rbt.Executable>
rbdock ($Id: //depot/dev/client3/rdock/2013.1/src/exe/rbdock.cxx#4 $)

>  <Rbt.Library>
libRbt.so (2013.1, Build901 2013/11/27)

>  <Rbt.Parameter_File>
/export/apps/rDock/src/rDock_2013.1_src/data/scripts/dock_solv.prm

>  <Rbt.Receptor>
prm/pocket_docking_5.prm

>  <SCORE>
-10.3203

>  <SCORE.INTER>
5.77264

>  <SCORE.INTER.CONST>
1

>  <SCORE.INTER.POLAR>
0

>  <SCORE.INTER.ROT>
9

>  <SCORE.INTER.SOLV>
4.75195

>  <SCORE.INTER.VDW>
-7.33556

>  <SCORE.INTER.norm>
0.444049

>  <SCORE.INTRA>
-16.0929

>  <SCORE.INTRA.DIHEDRAL>
-30.939

>  <SCORE.INTRA.DIHEDRAL.0>
31.9578

>  <SCORE.INTRA.POLAR>
0

>  <SCORE.INTRA.POLAR.0>
0

>  <SCORE.INTRA.REPUL>
0

>  <SCORE.INTRA.REPUL.0>
0

>  <SCORE.INTRA.SOLV>
-1.60849

>  <SCORE.INTRA.SOLV.lig_0>
-48.4032

>  <SCORE.INTRA.VDW>
0.180854

>  <SCORE.INTRA.VDW.0>
-1.65238

>  <SCORE.INTRA.norm>
-1.23792

>  <SCORE.RESTR>
0

>  <SCORE.RESTR.CAVITY>
0

>  <SCORE.RESTR.norm>
0

>  <SCORE.SYSTEM>
0

>  <SCORE.SYSTEM.CONST>
0

>  <SCORE.SYSTEM.DIHEDRAL>
0

>  <SCORE.SYSTEM.SOLV>
0

>  <SCORE.SYSTEM.norm>
0

>  <SCORE.heavy>
13

>  <SCORE.norm>
-0.793866

>  <RMSD>
5.202

$$$$
ligand
 OpenBabel11021811473D
libRbt.so/2013.1/901 2013/11/27
 13 12  0  0  0  0  0  0  0  0999 V2000
   30.0325   32.8618   46.9470 O   0  0  0  0  0  0  0  0  0  0  0  0
   27.3332   31.8740   46.5638 O   0  0  0  0  0  0  0  0  0  0  0  0
   32.8560   33.0014   43.4852 P   0  0  1  0  0  0  0  0  0  0  0  0
   33.1386   31.6593   42.8688 O   0  5  0  0  0  0  0  0  0  0  0  0
   32.6444   34.2718   42.8264 O   0  0  0  0  0  0  0  0  0  0  0  0
   32.0709   32.6273   44.8442 O   0  0  0  0  0  0  0  0  0  0  0  0
   25.9898   29.9370   45.0070 O   0  0  0  0  0  0  0  0  0  0  0  0
   32.1809   33.4361   46.0356 C   0  0  0  0  0  0  0  0  0  0  0  0
   27.7535   32.4937   47.7947 C   0  0  0  0  0  0  0  0  0  0  0  0
   25.5528   31.3075   44.9904 C   0  0  0  0  0  0  0  0  0  0  0  0
   31.4361   32.7769   47.2058 C   0  0  0  0  0  0  0  0  0  0  0  0
   29.2679   32.2729   48.0167 C   0  0  0  0  0  0  0  0  0  0  0  0
   25.9198   31.9961   46.3258 C   0  0  0  0  0  0  0  0  0  0  0  0
  1 12  1  0  0  0  0
  1 11  1  0  0  0  0
  2 13  1  0  0  0  0
  2  9  1  0  0  0  0
  3  4  1  6  0  0  0
  3  5  2  0  0  0  0
  3  6  1  0  0  0  0
  6  8  1  0  0  0  0
  7 10  1  0  0  0  0
  8 11  1  0  0  0  0
  9 12  1  0  0  0  0
 10 13  1  0  0  0  0
M  CHG  1   4  -1
M  END
>  <CHROM.1>
174.40702450,-179.99398322,148.19382953,-174.76536532,-70.24030862,177.58147534
60.87501777,55.80363535,-179.36267417,29.98652339,32.39187862,45.39520959
-2.83563473,-0.32343312,-1.80611387

>  <Name>
ligand

>  <RI>
0

>  <Rbt.Current_Directory>
/home/itssahil/PROJECTS/Mol_Feturizer/New_Systems/rnas/3GS8

>  <Rbt.Executable>
rbdock ($Id: //depot/dev/client3/rdock/2013.1/src/exe/rbdock.cxx#4 $)

>  <Rbt.Library>
libRbt.so (2013.1, Build901 2013/11/27)

>  <Rbt.Parameter_File>
/export/apps/rDock/src/rDock_2013.1_src/data/scripts/dock_solv.prm

>  <Rbt.Receptor>
prm/pocket_docking_8.prm

>  <SCORE>
-13.0108

>  <SCORE.INTER>
3.06604

>  <SCORE.INTER.CONST>
1

>  <SCORE.INTER.POLAR>
0

>  <SCORE.INTER.ROT>
9

>  <SCORE.INTER.SOLV>
14.2407

>  <SCORE.INTER.VDW>
-12.3029

>  <SCORE.INTER.norm>
0.235849

>  <SCORE.INTRA>
-16.0768

>  <SCORE.INTRA.DIHEDRAL>
-30.7442

>  <SCORE.INTRA.DIHEDRAL.0>
31.9578

>  <SCORE.INTRA.POLAR>
0

>  <SCORE.INTRA.POLAR.0>
0

>  <SCORE.INTRA.REPUL>
0

>  <SCORE.INTRA.REPUL.0>
0

>  <SCORE.INTRA.SOLV>
-1.57722

>  <SCORE.INTRA.SOLV.lig_0>
-48.4032

>  <SCORE.INTRA.VDW>
0.0839031

>  <SCORE.INTRA.VDW.0>
-1.65238

>  <SCORE.INTRA.norm>
-1.23668

>  <SCORE.RESTR>
0

>  <SCORE.RESTR.CAVITY>
0

>  <SCORE.RESTR.norm>
0

>  <SCORE.SYSTEM>
0

>  <SCORE.SYSTEM.CONST>
0

>  <SCORE.SYSTEM.DIHEDRAL>
0

>  <SCORE.SYSTEM.SOLV>
0

>  <SCORE.SYSTEM.norm>
0

>  <SCORE.heavy>
13

>  <SCORE.norm>
-1.00083

>  <RMSD>
5.206

$$$$
ligand
 OpenBabel11021811473D
libRbt.so/2013.1/901 2013/11/27
 13 12  0  0  0  0  0  0  0  0999 V2000
   30.5823   32.0304   49.7439 O   0  0  0  0  0  0  0  0  0  0  0  0
   30.4288   32.3630   46.9314 O   0  0  0  0  0  0  0  0  0  0  0  0
   34.5807   32.4264   51.0458 P   0  0  1  0  0  0  0  0  0  0  0  0
   34.5684   32.5414   52.5450 O   0  5  0  0  0  0  0  0  0  0  0  0
   35.7169   32.3123   50.1576 O   0  0  0  0  0  0  0  0  0  0  0  0
   33.1907   31.6746   50.7201 O   0  0  0  0  0  0  0  0  0  0  0  0
   32.7783   33.4330   45.6928 O   0  0  0  0  0  0  0  0  0  0  0  0
   32.0604   31.7401   51.6166 C   0  0  0  0  0  0  0  0  0  0  0  0
   29.2299   32.4252   47.7281 C   0  0  0  0  0  0  0  0  0  0  0  0
   31.6519   32.9934   44.9134 C   0  0  0  0  0  0  0  0  0  0  0  0
   30.7877   31.2399   50.9174 C   0  0  0  0  0  0  0  0  0  0  0  0
   29.4064   31.6059   49.0278 C   0  0  0  0  0  0  0  0  0  0  0  0
   30.3485   33.1514   45.7309 C   0  0  0  0  0  0  0  0  0  0  0  0
  1 12  1  0  0  0  0
  1 11  1  0  0  0  0
  2 13  1  0  0  0  0
  2  9  1  0  0  0  0
  3  4  1  1  0  0  0
  3  5  2  0  0  0  0
  3  6  1  0  0  0  0
  6  8  1  0  0  0  0
  7 10  1  0  0  0  0
  8 11  1  0  0  0  0
  9 12  1  0  0  0  0
 10 13  1  0  0  0  0
M  CHG  1   4  -1
M  END
>  <CHROM.1>
-177.45074102,-178.13659106,24.84270999,166.15552670,-57.19575144,-177.62941045
54.05921997,-59.85198490,179.45122674,32.21189047,32.31777347,49.16571418
2.20665903,-0.18358085,-1.33081092

>  <Name>
ligand

>  <RI>
0

>  <Rbt.Current_Directory>
/home/itssahil/PROJECTS/Mol_Feturizer/New_Systems/rnas/3GS8

>  <Rbt.Executable>
rbdock ($Id: //depot/dev/client3/rdock/2013.1/src/exe/rbdock.cxx#4 $)

>  <Rbt.Library>
libRbt.so (2013.1, Build901 2013/11/27)

>  <Rbt.Parameter_File>
/export/apps/rDock/src/rDock_2013.1_src/data/scripts/dock_solv.prm

>  <Rbt.Receptor>
prm/pocket_docking_6.prm

>  <SCORE>
-11.8535

>  <SCORE.INTER>
3.08052

>  <SCORE.INTER.CONST>
1

>  <SCORE.INTER.POLAR>
0

>  <SCORE.INTER.ROT>
9

>  <SCORE.INTER.SOLV>
9.149

>  <SCORE.INTER.VDW>
-10.596

>  <SCORE.INTER.norm>
0.236963

>  <SCORE.INTRA>
-14.9438

>  <SCORE.INTRA.DIHEDRAL>
-30.303

>  <SCORE.INTRA.DIHEDRAL.0>
31.9578

>  <SCORE.INTRA.POLAR>
0

>  <SCORE.INTRA.POLAR.0>
0

>  <SCORE.INTRA.REPUL>
0

>  <SCORE.INTRA.REPUL.0>
0

>  <SCORE.INTRA.SOLV>
-0.979455

>  <SCORE.INTRA.SOLV.lig_0>
-48.4032

>  <SCORE.INTRA.VDW>
0.697454

>  <SCORE.INTRA.VDW.0>
-1.65238

>  <SCORE.INTRA.norm>
-1.14952

>  <SCORE.RESTR>
0.00978769

>  <SCORE.RESTR.CAVITY>
0.00978769

>  <SCORE.RESTR.norm>
0.000752899

>  <SCORE.SYSTEM>
0

>  <SCORE.SYSTEM.CONST>
0

>  <SCORE.SYSTEM.DIHEDRAL>
0

>  <SCORE.SYSTEM.SOLV>
0

>  <SCORE.SYSTEM.norm>
0

>  <SCORE.heavy>
13

>  <SCORE.norm>
-0.911805

>  <RMSD>
5.212

$$$$
ligand
 OpenBabel11021811473D
libRbt.so/2013.1/901 2013/11/27
 13 12  0  0  0  0  0  0  0  0999 V2000
   31.4533   31.9644   50.4851 O   0  0  0  0  0  0  0  0  0  0  0  0
   30.5524   32.1835   47.7919 O   0  0  0  0  0  0  0  0  0  0  0  0
   35.8439   31.7813   50.9214 P   0  0  1  0  0  0  0  0  0  0  0  0
   36.3836   31.1579   49.6640 O   0  5  0  0  0  0  0  0  0  0  0  0
   36.3426   32.9294   51.6468 O   0  0  0  0  0  0  0  0  0  0  0  0
   34.2628   31.4702   50.8405 O   0  0  0  0  0  0  0  0  0  0  0  0
   30.9316   33.8006   44.4852 O   0  0  0  0  0  0  0  0  0  0  0  0
   33.3669   31.7866   51.9282 C   0  0  0  0  0  0  0  0  0  0  0  0
   29.6118   32.2541   48.8810 C   0  0  0  0  0  0  0  0  0  0  0  0
   31.2795   32.9446   45.5878 C   0  0  0  0  0  0  0  0  0  0  0  0
   31.9523   31.2683   51.6300 C   0  0  0  0  0  0  0  0  0  0  0  0
   30.1506   31.4795   50.1063 C   0  0  0  0  0  0  0  0  0  0  0  0
   30.1707   32.9921   46.6651 C   0  0  0  0  0  0  0  0  0  0  0  0
  1 12  1  0  0  0  0
  1 11  1  0  0  0  0
  2 13  1  0  0  0  0
  2  9  1  0  0  0  0
  3  4  1  6  0  0  0
  3  5  2  0  0  0  0
  3  6  1  0  0  0  0
  6  8  1  0  0  0  0
  7 10  1  0  0  0  0
  8 11  1  0  0  0  0
  9 12  1  0  0  0  0
 10 13  1  0  0  0  0
M  CHG  1   4  -1
M  END
>  <CHROM.1>
179.11924831,175.78337925,173.92207439,-174.87515140,-64.01258590,-174.33643563
55.38866767,-177.33512420,177.11590859,32.80127913,32.13022163,49.40415065
2.39363015,-0.04640076,-1.29693231

>  <Name>
ligand

>  <RI>
0

>  <Rbt.Current_Directory>
/home/itssahil/PROJECTS/Mol_Feturizer/New_Systems/rnas/3GS8

>  <Rbt.Executable>
rbdock ($Id: //depot/dev/client3/rdock/2013.1/src/exe/rbdock.cxx#4 $)

>  <Rbt.Library>
libRbt.so (2013.1, Build901 2013/11/27)

>  <Rbt.Parameter_File>
/export/apps/rDock/src/rDock_2013.1_src/data/scripts/dock_solv.prm

>  <Rbt.Receptor>
prm/pocket_docking_6.prm

>  <SCORE>
-13.958

>  <SCORE.INTER>
2.23448

>  <SCORE.INTER.CONST>
1

>  <SCORE.INTER.POLAR>
0

>  <SCORE.INTER.ROT>
9

>  <SCORE.INTER.SOLV>
14.1664

>  <SCORE.INTER.VDW>
-12.8325

>  <SCORE.INTER.norm>
0.171883

>  <SCORE.INTRA>
-16.1924

>  <SCORE.INTRA.DIHEDRAL>
-31.0151

>  <SCORE.INTRA.DIHEDRAL.0>
31.9578

>  <SCORE.INTRA.POLAR>
0

>  <SCORE.INTRA.POLAR.0>
0

>  <SCORE.INTRA.REPUL>
0

>  <SCORE.INTRA.REPUL.0>
0

>  <SCORE.INTRA.SOLV>
-1.70472

>  <SCORE.INTRA.SOLV.lig_0>
-48.4032

>  <SCORE.INTRA.VDW>
0.167461

>  <SCORE.INTRA.VDW.0>
-1.65238

>  <SCORE.INTRA.norm>
-1.24557

>  <SCORE.RESTR>
0

>  <SCORE.RESTR.CAVITY>
0

>  <SCORE.RESTR.norm>
0

>  <SCORE.SYSTEM>
0

>  <SCORE.SYSTEM.CONST>
0

>  <SCORE.SYSTEM.DIHEDRAL>
0

>  <SCORE.SYSTEM.SOLV>
0

>  <SCORE.SYSTEM.norm>
0

>  <SCORE.heavy>
13

>  <SCORE.norm>
-1.07369

>  <RMSD>
5.216

$$$$
ligand
 OpenBabel11021811473D
libRbt.so/2013.1/901 2013/11/27
 13 12  0  0  0  0  0  0  0  0999 V2000
   33.5741   31.5840   50.9096 O   0  0  0  0  0  0  0  0  0  0  0  0
   30.8647   31.9535   50.0828 O   0  0  0  0  0  0  0  0  0  0  0  0
   37.1304   30.9651   48.4514 P   0  0  1  0  0  0  0  0  0  0  0  0
   36.6172   31.9924   47.4807 O   0  5  0  0  0  0  0  0  0  0  0  0
   38.4974   30.5660   48.7059 O   0  0  0  0  0  0  0  0  0  0  0  0
   36.0380   30.9981   49.6383 O   0  0  0  0  0  0  0  0  0  0  0  0
   30.4336   32.4379   47.2613 O   0  0  0  0  0  0  0  0  0  0  0  0
   35.8708   32.1534   50.4886 C   0  0  0  0  0  0  0  0  0  0  0  0
   31.1872   31.0435   51.1523 C   0  0  0  0  0  0  0  0  0  0  0  0
   29.3952   32.6033   48.2431 C   0  0  0  0  0  0  0  0  0  0  0  0
   34.8095   31.8819   51.5650 C   0  0  0  0  0  0  0  0  0  0  0  0
   32.4923   31.4836   51.8557 C   0  0  0  0  0  0  0  0  0  0  0  0
   29.6257   31.6335   49.4258 C   0  0  0  0  0  0  0  0  0  0  0  0
  1 12  1  0  0  0  0
  1 11  1  0  0  0  0
  2 13  1  0  0  0  0
  2  9  1  0  0  0  0
  3  4  1  1  0  0  0
  3  5  2  0  0  0  0
  3  6  1  0  0  0  0
  6  8  1  0  0  0  0
  7 10  1  0  0  0  0
  8 11  1  0  0  0  0
  9 12  1  0  0  0  0
 10 13  1  0  0  0  0
M  CHG  1   4  -1
M  END
>  <CHROM.1>
-175.17943225,-176.71825248,-66.66945582,-177.47622136,-59.88242953,-177.33405976
-56.30045204,63.09778202,-172.73566023,33.90719322,31.58136521,49.50548262
-3.07290036,0.12751814,-1.46356022

>  <Name>
ligand

>  <RI>
0

>  <Rbt.Current_Directory>
/home/itssahil/PROJECTS/Mol_Feturizer/New_Systems/rnas/3GS8

>  <Rbt.Executable>
rbdock ($Id: //depot/dev/client3/rdock/2013.1/src/exe/rbdock.cxx#4 $)

>  <Rbt.Library>
libRbt.so (2013.1, Build901 2013/11/27)

>  <Rbt.Parameter_File>
/export/apps/rDock/src/rDock_2013.1_src/data/scripts/dock_solv.prm

>  <Rbt.Receptor>
prm/pocket_docking_6.prm

>  <SCORE>
-15.2696

>  <SCORE.INTER>
0.707422

>  <SCORE.INTER.CONST>
1

>  <SCORE.INTER.POLAR>
0

>  <SCORE.INTER.ROT>
9

>  <SCORE.INTER.SOLV>
11.1641

>  <SCORE.INTER.VDW>
-12.8497

>  <SCORE.INTER.norm>
0.0544171

>  <SCORE.INTRA>
-15.9771

>  <SCORE.INTRA.DIHEDRAL>
-31.0303

>  <SCORE.INTRA.DIHEDRAL.0>
31.9578

>  <SCORE.INTRA.POLAR>
0

>  <SCORE.INTRA.POLAR.0>
0

>  <SCORE.INTRA.REPUL>
0

>  <SCORE.INTRA.REPUL.0>
0

>  <SCORE.INTRA.SOLV>
-1.13648

>  <SCORE.INTRA.SOLV.lig_0>
-48.4032

>  <SCORE.INTRA.VDW>
0.106328

>  <SCORE.INTRA.VDW.0>
-1.65238

>  <SCORE.INTRA.norm>
-1.229

>  <SCORE.RESTR>
0

>  <SCORE.RESTR.CAVITY>
0

>  <SCORE.RESTR.norm>
0

>  <SCORE.SYSTEM>
0

>  <SCORE.SYSTEM.CONST>
0

>  <SCORE.SYSTEM.DIHEDRAL>
0

>  <SCORE.SYSTEM.SOLV>
0

>  <SCORE.SYSTEM.norm>
0

>  <SCORE.heavy>
13

>  <SCORE.norm>
-1.17459

>  <RMSD>
5.220

$$$$
ligand
 OpenBabel11021811473D
libRbt.so/2013.1/901 2013/11/27
 13 12  0  0  0  0  0  0  0  0999 V2000
   33.5585   31.5678   50.9369 O   0  0  0  0  0  0  0  0  0  0  0  0
   30.8611   31.9317   50.1000 O   0  0  0  0  0  0  0  0  0  0  0  0
   37.1003   30.9845   48.4668 P   0  0  1  0  0  0  0  0  0  0  0  0
   36.5492   31.9854   47.4894 O   0  5  0  0  0  0  0  0  0  0  0  0
   38.4802   30.6244   48.7100 O   0  0  0  0  0  0  0  0  0  0  0  0
   36.0214   31.0046   49.6663 O   0  0  0  0  0  0  0  0  0  0  0  0
   30.4651   32.4201   47.2660 O   0  0  0  0  0  0  0  0  0  0  0  0
   35.8505   32.1577   50.5188 C   0  0  0  0  0  0  0  0  0  0  0  0
   31.1723   31.0214   51.1726 C   0  0  0  0  0  0  0  0  0  0  0  0
   29.4170   32.5773   48.2389 C   0  0  0  0  0  0  0  0  0  0  0  0
   34.7892   31.8812   51.5939 C   0  0  0  0  0  0  0  0  0  0  0  0
   32.4769   31.4539   51.8817 C   0  0  0  0  0  0  0  0  0  0  0  0
   29.6385   31.6011   49.4180 C   0  0  0  0  0  0  0  0  0  0  0  0
  1 12  1  0  0  0  0
  1 11  1  0  0  0  0
  2 13  1  0  0  0  0
  2  9  1  0  0  0  0
  3  4  1  1  0  0  0
  3  5  2  0  0  0  0
  3  6  1  0  0  0  0
  6  8  1  0  0  0  0
  7 10  1  0  0  0  0
  8 11  1  0  0  0  0
  9 12  1  0  0  0  0
 10 13  1  0  0  0  0
M  CHG  1   4  -1
M  END
>  <CHROM.1>
-176.17238344,-177.01319068,-67.79132839,-178.35091109,-59.28619248,-178.65723313
-55.31578150,63.89449400,-173.06990971,33.89358246,31.57727766,49.52078648
-3.07222256,0.12132180,-1.46214388

>  <Name>
ligand

>  <RI>
0

>  <Rbt.Current_Directory>
/home/itssahil/PROJECTS/Mol_Feturizer/New_Systems/rnas/3GS8

>  <Rbt.Executable>
rbdock ($Id: //depot/dev/client3/rdock/2013.1/src/exe/rbdock.cxx#4 $)

>  <Rbt.Library>
libRbt.so (2013.1, Build901 2013/11/27)

>  <Rbt.Parameter_File>
/export/apps/rDock/src/rDock_2013.1_src/data/scripts/dock_solv.prm

>  <Rbt.Receptor>
prm/pocket_docking_6.prm

>  <SCORE>
-15.2893

>  <SCORE.INTER>
0.729815

>  <SCORE.INTER.CONST>
1

>  <SCORE.INTER.POLAR>
0

>  <SCORE.INTER.ROT>
9

>  <SCORE.INTER.SOLV>
11.2748

>  <SCORE.INTER.VDW>
-12.8717

>  <SCORE.INTER.norm>
0.0561396

>  <SCORE.INTRA>
-16.0191

>  <SCORE.INTRA.DIHEDRAL>
-31.1088

>  <SCORE.INTRA.DIHEDRAL.0>
31.9578

>  <SCORE.INTRA.POLAR>
0

>  <SCORE.INTRA.POLAR.0>
0

>  <SCORE.INTRA.REPUL>
0

>  <SCORE.INTRA.REPUL.0>
0

>  <SCORE.INTRA.SOLV>
-1.12929

>  <SCORE.INTRA.SOLV.lig_0>
-48.4032

>  <SCORE.INTRA.VDW>
0.0999107

>  <SCORE.INTRA.VDW.0>
-1.65238

>  <SCORE.INTRA.norm>
-1.23224

>  <SCORE.RESTR>
0

>  <SCORE.RESTR.CAVITY>
0

>  <SCORE.RESTR.norm>
0

>  <SCORE.SYSTEM>
0

>  <SCORE.SYSTEM.CONST>
0

>  <SCORE.SYSTEM.DIHEDRAL>
0

>  <SCORE.SYSTEM.SOLV>
0

>  <SCORE.SYSTEM.norm>
0

>  <SCORE.heavy>
13

>  <SCORE.norm>
-1.1761

>  <RMSD>
5.230

$$$$
ligand
 OpenBabel11021811473D
libRbt.so/2013.1/901 2013/11/27
 13 12  0  0  0  0  0  0  0  0999 V2000
   33.5675   31.5554   50.9282 O   0  0  0  0  0  0  0  0  0  0  0  0
   30.8749   31.9347   50.0785 O   0  0  0  0  0  0  0  0  0  0  0  0
   37.1047   30.9875   48.4483 P   0  0  1  0  0  0  0  0  0  0  0  0
   36.6213   32.0511   47.5017 O   0  5  0  0  0  0  0  0  0  0  0  0
   38.4611   30.5546   48.7046 O   0  0  0  0  0  0  0  0  0  0  0  0
   36.0013   31.0093   49.6253 O   0  0  0  0  0  0  0  0  0  0  0  0
   30.4699   32.4117   47.2487 O   0  0  0  0  0  0  0  0  0  0  0  0
   35.8644   32.1337   50.5212 C   0  0  0  0  0  0  0  0  0  0  0  0
   31.1764   31.0273   51.1563 C   0  0  0  0  0  0  0  0  0  0  0  0
   29.4284   32.5943   48.2242 C   0  0  0  0  0  0  0  0  0  0  0  0
   34.8009   31.8448   51.5909 C   0  0  0  0  0  0  0  0  0  0  0  0
   32.4807   31.4550   51.8686 C   0  0  0  0  0  0  0  0  0  0  0  0
   29.6390   31.6250   49.4109 C   0  0  0  0  0  0  0  0  0  0  0  0
  1 12  1  0  0  0  0
  1 11  1  0  0  0  0
  2 13  1  0  0  0  0
  2  9  1  0  0  0  0
  3  4  1  1  0  0  0
  3  5  2  0  0  0  0
  3  6  1  0  0  0  0
  6  8  1  0  0  0  0
  7 10  1  0  0  0  0
  8 11  1  0  0  0  0
  9 12  1  0  0  0  0
 10 13  1  0  0  0  0
M  CHG  1   4  -1
M  END
>  <CHROM.1>
-175.31973326,-176.94312351,-67.82217735,-176.44937474,-57.85731520,-177.44054502
-55.44393348,63.41857533,-172.05870938,33.90183097,31.57559436,49.50843535
-3.07339914,0.12385762,-1.45505609

>  <Name>
ligand

>  <RI>
0

>  <Rbt.Current_Directory>
/home/itssahil/PROJECTS/Mol_Feturizer/New_Systems/rnas/3GS8

>  <Rbt.Executable>
rbdock ($Id: //depot/dev/client3/rdock/2013.1/src/exe/rbdock.cxx#4 $)

>  <Rbt.Library>
libRbt.so (2013.1, Build901 2013/11/27)

>  <Rbt.Parameter_File>
/export/apps/rDock/src/rDock_2013.1_src/data/scripts/dock_solv.prm

>  <Rbt.Receptor>
prm/pocket_docking_6.prm

>  <SCORE>
-15.2526

>  <SCORE.INTER>
0.672315

>  <SCORE.INTER.CONST>
1

>  <SCORE.INTER.POLAR>
0

>  <SCORE.INTER.ROT>
9

>  <SCORE.INTER.SOLV>
11.2031

>  <SCORE.INTER.VDW>
-12.8862

>  <SCORE.INTER.norm>
0.0517165

>  <SCORE.INTRA>
-15.9249

>  <SCORE.INTRA.DIHEDRAL>
-30.9293

>  <SCORE.INTRA.DIHEDRAL.0>
31.9578

>  <SCORE.INTRA.POLAR>
0

>  <SCORE.INTRA.POLAR.0>
0

>  <SCORE.INTRA.REPUL>
0

>  <SCORE.INTRA.REPUL.0>
0

>  <SCORE.INTRA.SOLV>
-1.13435

>  <SCORE.INTRA.SOLV.lig_0>
-48.4032

>  <SCORE.INTRA.VDW>
0.10691

>  <SCORE.INTRA.VDW.0>
-1.65238

>  <SCORE.INTRA.norm>
-1.22499

>  <SCORE.RESTR>
0

>  <SCORE.RESTR.CAVITY>
0

>  <SCORE.RESTR.norm>
0

>  <SCORE.SYSTEM>
0

>  <SCORE.SYSTEM.CONST>
0

>  <SCORE.SYSTEM.DIHEDRAL>
0

>  <SCORE.SYSTEM.SOLV>
0

>  <SCORE.SYSTEM.norm>
0

>  <SCORE.heavy>
13

>  <SCORE.norm>
-1.17328

>  <RMSD>
5.231

$$$$
ligand
 OpenBabel11021811473D
libRbt.so/2013.1/901 2013/11/27
 13 12  0  0  0  0  0  0  0  0999 V2000
   33.3585   31.5627   50.8852 O   0  0  0  0  0  0  0  0  0  0  0  0
   30.6770   31.8670   49.9723 O   0  0  0  0  0  0  0  0  0  0  0  0
   36.9923   31.3375   48.4770 P   0  0  1  0  0  0  0  0  0  0  0  0
   38.0286   30.3080   48.8334 O   0  5  0  0  0  0  0  0  0  0  0  0
   36.5997   31.8083   47.1666 O   0  0  0  0  0  0  0  0  0  0  0  0
   35.9166   31.2103   49.6727 O   0  0  0  0  0  0  0  0  0  0  0  0
   30.3569   32.4183   47.1490 O   0  0  0  0  0  0  0  0  0  0  0  0
   35.6148   32.3187   50.5479 C   0  0  0  0  0  0  0  0  0  0  0  0
   30.9828   30.9456   51.0370 C   0  0  0  0  0  0  0  0  0  0  0  0
   29.2674   32.5099   48.0841 C   0  0  0  0  0  0  0  0  0  0  0  0
   34.5552   31.9152   51.5838 C   0  0  0  0  0  0  0  0  0  0  0  0
   32.2519   31.4021   51.7936 C   0  0  0  0  0  0  0  0  0  0  0  0
   29.4846   31.5156   49.2487 C   0  0  0  0  0  0  0  0  0  0  0  0
  1 12  1  0  0  0  0
  1 11  1  0  0  0  0
  2 13  1  0  0  0  0
  2  9  1  0  0  0  0
  3  4  1  6  0  0  0
  3  5  2  0  0  0  0
  3  6  1  0  0  0  0
  6  8  1  0  0  0  0
  7 10  1  0  0  0  0
  8 11  1  0  0  0  0
  9 12  1  0  0  0  0
 10 13  1  0  0  0  0
M  CHG  1   4  -1
M  END
>  <CHROM.1>
-176.88670771,-177.18161536,119.30488260,179.73779512,-61.80457045,-178.54770285
-55.45264567,63.03343969,-169.76921892,33.72318719,31.59615633,49.45005752
-3.08216290,0.10095783,-1.46053057

>  <Name>
ligand

>  <RI>
0

>  <Rbt.Current_Directory>
/home/itssahil/PROJECTS/Mol_Feturizer/New_Systems/rnas/3GS8

>  <Rbt.Executable>
rbdock ($Id: //depot/dev/client3/rdock/2013.1/src/exe/rbdock.cxx#4 $)

>  <Rbt.Library>
libRbt.so (2013.1, Build901 2013/11/27)

>  <Rbt.Parameter_File>
/export/apps/rDock/src/rDock_2013.1_src/data/scripts/dock_solv.prm

>  <Rbt.Receptor>
prm/pocket_docking_5.prm

>  <SCORE>
-14.0823

>  <SCORE.INTER>
1.65231

>  <SCORE.INTER.CONST>
1

>  <SCORE.INTER.POLAR>
0

>  <SCORE.INTER.ROT>
9

>  <SCORE.INTER.SOLV>
11.874

>  <SCORE.INTER.VDW>
-12.4565

>  <SCORE.INTER.norm>
0.127101

>  <SCORE.INTRA>
-15.7346

>  <SCORE.INTRA.DIHEDRAL>
-30.0806

>  <SCORE.INTRA.DIHEDRAL.0>
31.9578

>  <SCORE.INTRA.POLAR>
0

>  <SCORE.INTRA.POLAR.0>
0

>  <SCORE.INTRA.REPUL>
0

>  <SCORE.INTRA.REPUL.0>
0

>  <SCORE.INTRA.SOLV>
-1.4879

>  <SCORE.INTRA.SOLV.lig_0>
-48.4032

>  <SCORE.INTRA.VDW>
0.0496362

>  <SCORE.INTRA.VDW.0>
-1.65238

>  <SCORE.INTRA.norm>
-1.21036

>  <SCORE.RESTR>
0

>  <SCORE.RESTR.CAVITY>
0

>  <SCORE.RESTR.norm>
0

>  <SCORE.SYSTEM>
0

>  <SCORE.SYSTEM.CONST>
0

>  <SCORE.SYSTEM.DIHEDRAL>
0

>  <SCORE.SYSTEM.SOLV>
0

>  <SCORE.SYSTEM.norm>
0

>  <SCORE.heavy>
13

>  <SCORE.norm>
-1.08325

>  <RMSD>
5.263

$$$$
ligand
 OpenBabel11021811473D
libRbt.so/2013.1/901 2013/11/27
 13 12  0  0  0  0  0  0  0  0999 V2000
   35.6961   31.2259   49.2500 O   0  0  0  0  0  0  0  0  0  0  0  0
   33.1639   32.3282   49.8839 O   0  0  0  0  0  0  0  0  0  0  0  0
   36.4354   31.1484   44.9149 P   0  0  1  0  0  0  0  0  0  0  0  0
   35.2036   31.8516   44.4157 O   0  5  0  0  0  0  0  0  0  0  0  0
   37.6720   30.8837   44.2124 O   0  0  0  0  0  0  0  0  0  0  0  0
   36.4281   31.4659   46.4968 O   0  0  0  0  0  0  0  0  0  0  0  0
   31.2589   34.0455   48.6213 O   0  0  0  0  0  0  0  0  0  0  0  0
   37.1724   30.6633   47.4389 C   0  0  0  0  0  0  0  0  0  0  0  0
   34.0184   31.8446   50.9384 C   0  0  0  0  0  0  0  0  0  0  0  0
   30.9173   32.7006   49.0007 C   0  0  0  0  0  0  0  0  0  0  0  0
   37.0691   31.2557   48.8521 C   0  0  0  0  0  0  0  0  0  0  0  0
   35.5003   31.9122   50.5015 C   0  0  0  0  0  0  0  0  0  0  0  0
   31.7661   32.2621   50.2170 C   0  0  0  0  0  0  0  0  0  0  0  0
  1 12  1  0  0  0  0
  1 11  1  0  0  0  0
  2 13  1  0  0  0  0
  2  9  1  0  0  0  0
  3  4  1  6  0  0  0
  3  5  2  0  0  0  0
  3  6  1  0  0  0  0
  6  8  1  0  0  0  0
  7 10  1  0  0  0  0
  8 11  1  0  0  0  0
  9 12  1  0  0  0  0
 10 13  1  0  0  0  0
M  CHG  1   4  -1
M  END
>  <CHROM.1>
-178.65365563,-175.92185916,160.12701548,175.69311845,62.43121193,178.63614823
-53.76388045,-59.37473405,-173.10894160,34.93054036,31.76953371,47.75392150
-2.36990903,0.36550096,-1.52912068

>  <Name>
ligand

>  <RI>
0

>  <Rbt.Current_Directory>
/home/itssahil/PROJECTS/Mol_Feturizer/New_Systems/rnas/3GS8

>  <Rbt.Executable>
rbdock ($Id: //depot/dev/client3/rdock/2013.1/src/exe/rbdock.cxx#4 $)

>  <Rbt.Library>
libRbt.so (2013.1, Build901 2013/11/27)

>  <Rbt.Parameter_File>
/export/apps/rDock/src/rDock_2013.1_src/data/scripts/dock_solv.prm

>  <Rbt.Receptor>
prm/pocket_docking_5.prm

>  <SCORE>
-14.1193

>  <SCORE.INTER>
2.07685

>  <SCORE.INTER.CONST>
1

>  <SCORE.INTER.POLAR>
0

>  <SCORE.INTER.ROT>
9

>  <SCORE.INTER.SOLV>
12.5856

>  <SCORE.INTER.VDW>
-12.4106

>  <SCORE.INTER.norm>
0.159758

>  <SCORE.INTRA>
-16.1962

>  <SCORE.INTRA.DIHEDRAL>
-31.0761

>  <SCORE.INTRA.DIHEDRAL.0>
31.9578

>  <SCORE.INTRA.POLAR>
0

>  <SCORE.INTRA.POLAR.0>
0

>  <SCORE.INTRA.REPUL>
0

>  <SCORE.INTRA.REPUL.0>
0

>  <SCORE.INTRA.SOLV>
-1.46524

>  <SCORE.INTRA.SOLV.lig_0>
-48.4032

>  <SCORE.INTRA.VDW>
0.0745188

>  <SCORE.INTRA.VDW.0>
-1.65238

>  <SCORE.INTRA.norm>
-1.24586

>  <SCORE.RESTR>
0

>  <SCORE.RESTR.CAVITY>
0

>  <SCORE.RESTR.norm>
0

>  <SCORE.SYSTEM>
0

>  <SCORE.SYSTEM.CONST>
0

>  <SCORE.SYSTEM.DIHEDRAL>
0

>  <SCORE.SYSTEM.SOLV>
0

>  <SCORE.SYSTEM.norm>
0

>  <SCORE.heavy>
13

>  <SCORE.norm>
-1.0861

>  <RMSD>
5.263

$$$$
ligand
 OpenBabel11021811473D
libRbt.so/2013.1/901 2013/11/27
 13 12  0  0  0  0  0  0  0  0999 V2000
   35.6693   31.2256   49.2638 O   0  0  0  0  0  0  0  0  0  0  0  0
   33.1253   32.3997   49.9148 O   0  0  0  0  0  0  0  0  0  0  0  0
   36.5310   31.1626   44.9591 P   0  0  1  0  0  0  0  0  0  0  0  0
   35.3990   31.9932   44.4208 O   0  5  0  0  0  0  0  0  0  0  0  0
   37.7612   30.7777   44.3023 O   0  0  0  0  0  0  0  0  0  0  0  0
   36.4928   31.4658   46.5433 O   0  0  0  0  0  0  0  0  0  0  0  0
   31.0301   32.1302   47.9318 O   0  0  0  0  0  0  0  0  0  0  0  0
   37.1851   30.6304   47.4964 C   0  0  0  0  0  0  0  0  0  0  0  0
   33.9701   31.8326   50.9350 C   0  0  0  0  0  0  0  0  0  0  0  0
   30.8914   32.9580   49.1002 C   0  0  0  0  0  0  0  0  0  0  0  0
   37.0554   31.2074   48.9138 C   0  0  0  0  0  0  0  0  0  0  0  0
   35.4547   31.9164   50.5098 C   0  0  0  0  0  0  0  0  0  0  0  0
   31.7298   32.3773   50.2629 C   0  0  0  0  0  0  0  0  0  0  0  0
  1 12  1  0  0  0  0
  1 11  1  0  0  0  0
  2 13  1  0  0  0  0
  2  9  1  0  0  0  0
  3  4  1  6  0  0  0
  3  5  2  0  0  0  0
  3  6  1  0  0  0  0
  6  8  1  0  0  0  0
  7 10  1  0  0  0  0
  8 11  1  0  0  0  0
  9 12  1  0  0  0  0
 10 13  1  0  0  0  0
M  CHG  1   4  -1
M  END
>  <CHROM.1>
-175.48213163,-178.12276181,164.20749033,176.12095563,61.78910514,-178.78927602
-58.41187194,63.33813344,-172.40915242,34.93831222,31.65337812,47.74018670
-2.36370083,0.25019537,-1.57701371

>  <Name>
ligand

>  <RI>
0

>  <Rbt.Current_Directory>
/home/itssahil/PROJECTS/Mol_Feturizer/New_Systems/rnas/3GS8

>  <Rbt.Executable>
rbdock ($Id: //depot/dev/client3/rdock/2013.1/src/exe/rbdock.cxx#4 $)

>  <Rbt.Library>
libRbt.so (2013.1, Build901 2013/11/27)

>  <Rbt.Parameter_File>
/export/apps/rDock/src/rDock_2013.1_src/data/scripts/dock_solv.prm

>  <Rbt.Receptor>
prm/pocket_docking_5.prm

>  <SCORE>
-14.4335

>  <SCORE.INTER>
1.80065

>  <SCORE.INTER.CONST>
1

>  <SCORE.INTER.POLAR>
0

>  <SCORE.INTER.ROT>
9

>  <SCORE.INTER.SOLV>
13.2049

>  <SCORE.INTER.VDW>
-12.8012

>  <SCORE.INTER.norm>
0.138512

>  <SCORE.INTRA>
-16.2342

>  <SCORE.INTRA.DIHEDRAL>
-31.133

>  <SCORE.INTRA.DIHEDRAL.0>
31.9578

>  <SCORE.INTRA.POLAR>
0

>  <SCORE.INTRA.POLAR.0>
0

>  <SCORE.INTRA.REPUL>
0

>  <SCORE.INTRA.REPUL.0>
0

>  <SCORE.INTRA.SOLV>
-1.4692

>  <SCORE.INTRA.SOLV.lig_0>
-48.4032

>  <SCORE.INTRA.VDW>
0.0669176

>  <SCORE.INTRA.VDW.0>
-1.65238

>  <SCORE.INTRA.norm>
-1.24878

>  <SCORE.RESTR>
0

>  <SCORE.RESTR.CAVITY>
0

>  <SCORE.RESTR.norm>
0

>  <SCORE.SYSTEM>
0

>  <SCORE.SYSTEM.CONST>
0

>  <SCORE.SYSTEM.DIHEDRAL>
0

>  <SCORE.SYSTEM.SOLV>
0

>  <SCORE.SYSTEM.norm>
0

>  <SCORE.heavy>
13

>  <SCORE.norm>
-1.11027

>  <RMSD>
5.340

$$$$
ligand
 OpenBabel11021811473D
libRbt.so/2013.1/901 2013/11/27
 13 12  0  0  0  0  0  0  0  0999 V2000
   32.5572   32.9948   45.7808 O   0  0  0  0  0  0  0  0  0  0  0  0
   35.0459   33.8425   46.3651 O   0  0  0  0  0  0  0  0  0  0  0  0
   29.9131   32.2036   49.0534 P   0  0  1  0  0  0  0  0  0  0  0  0
   30.9346   31.6453   50.0051 O   0  5  0  0  0  0  0  0  0  0  0  0
   28.8579   33.1572   49.3178 O   0  0  0  0  0  0  0  0  0  0  0  0
   30.6783   32.1812   47.6331 O   0  0  0  0  0  0  0  0  0  0  0  0
   33.4955   34.9710   48.5597 O   0  0  0  0  0  0  0  0  0  0  0  0
   30.2762   33.0312   46.5370 C   0  0  0  0  0  0  0  0  0  0  0  0
   34.9398   33.0401   45.1731 C   0  0  0  0  0  0  0  0  0  0  0  0
   34.6160   34.0904   48.7567 C   0  0  0  0  0  0  0  0  0  0  0  0
   31.2088   32.8357   45.3325 C   0  0  0  0  0  0  0  0  0  0  0  0
   33.4769   33.0145   44.6721 C   0  0  0  0  0  0  0  0  0  0  0  0
   34.7361   33.1119   47.5649 C   0  0  0  0  0  0  0  0  0  0  0  0
  1 12  1  0  0  0  0
  1 11  1  0  0  0  0
  2 13  1  0  0  0  0
  2  9  1  0  0  0  0
  3  4  1  1  0  0  0
  3  5  2  0  0  0  0
  3  6  1  0  0  0  0
  6  8  1  0  0  0  0
  7 10  1  0  0  0  0
  8 11  1  0  0  0  0
  9 12  1  0  0  0  0
 10 13  1  0  0  0  0
M  CHG  1   4  -1
M  END
>  <CHROM.1>
-174.16644986,-169.58097043,-158.07355420,177.97546623,-52.21484371,84.83899545
-36.47688285,65.04904806,-171.76055479,32.14312218,33.01783893,47.46695500
0.50395376,-0.29370245,-1.67566779

>  <Name>
ligand

>  <RI>
0

>  <Rbt.Current_Directory>
/home/itssahil/PROJECTS/Mol_Feturizer/New_Systems/rnas/3GS8

>  <Rbt.Executable>
rbdock ($Id: //depot/dev/client3/rdock/2013.1/src/exe/rbdock.cxx#4 $)

>  <Rbt.Library>
libRbt.so (2013.1, Build901 2013/11/27)

>  <Rbt.Parameter_File>
/export/apps/rDock/src/rDock_2013.1_src/data/scripts/dock_solv.prm

>  <Rbt.Receptor>
prm/pocket_docking_3.prm

>  <SCORE>
-5.17076

>  <SCORE.INTER>
7.41152

>  <SCORE.INTER.CONST>
1

>  <SCORE.INTER.POLAR>
0

>  <SCORE.INTER.ROT>
9

>  <SCORE.INTER.SOLV>
8.20841

>  <SCORE.INTER.VDW>
-7.39512

>  <SCORE.INTER.norm>
0.570117

>  <SCORE.INTRA>
-12.5823

>  <SCORE.INTRA.DIHEDRAL>
-25.0936

>  <SCORE.INTRA.DIHEDRAL.0>
31.9578

>  <SCORE.INTRA.POLAR>
0

>  <SCORE.INTRA.POLAR.0>
0

>  <SCORE.INTRA.REPUL>
0

>  <SCORE.INTRA.REPUL.0>
0

>  <SCORE.INTRA.SOLV>
-0.667174

>  <SCORE.INTRA.SOLV.lig_0>
-48.4032

>  <SCORE.INTRA.VDW>
0.2981

>  <SCORE.INTRA.VDW.0>
-1.65238

>  <SCORE.INTRA.norm>
-0.967868

>  <SCORE.RESTR>
0

>  <SCORE.RESTR.CAVITY>
0

>  <SCORE.RESTR.norm>
0

>  <SCORE.SYSTEM>
0

>  <SCORE.SYSTEM.CONST>
0

>  <SCORE.SYSTEM.DIHEDRAL>
0

>  <SCORE.SYSTEM.SOLV>
0

>  <SCORE.SYSTEM.norm>
0

>  <SCORE.heavy>
13

>  <SCORE.norm>
-0.397751

>  <RMSD>
5.359

$$$$
ligand
 OpenBabel11021811473D
libRbt.so/2013.1/901 2013/11/27
 13 12  0  0  0  0  0  0  0  0999 V2000
   31.2217   31.6963   50.7390 O   0  0  0  0  0  0  0  0  0  0  0  0
   28.8689   31.5949   49.0687 O   0  0  0  0  0  0  0  0  0  0  0  0
   36.2774   32.0260   50.8884 P   0  0  1  0  0  0  0  0  0  0  0  0
   36.5075   32.9958   52.0143 O   0  5  0  0  0  0  0  0  0  0  0  0
   37.2548   31.2991   50.1081 O   0  0  0  0  0  0  0  0  0  0  0  0
   34.8466   31.3728   51.2483 O   0  0  0  0  0  0  0  0  0  0  0  0
   29.0563   32.8928   46.5212 O   0  0  0  0  0  0  0  0  0  0  0  0
   33.6041   31.9927   50.8516 C   0  0  0  0  0  0  0  0  0  0  0  0
   28.7778   31.5505   50.5059 C   0  0  0  0  0  0  0  0  0  0  0  0
   27.8764   32.1683   46.9118 C   0  0  0  0  0  0  0  0  0  0  0  0
   32.4076   31.1551   51.3265 C   0  0  0  0  0  0  0  0  0  0  0  0
   30.0599   30.9273   51.1056 C   0  0  0  0  0  0  0  0  0  0  0  0
   27.7203   32.2010   48.4502 C   0  0  0  0  0  0  0  0  0  0  0  0
  1 12  1  0  0  0  0
  1 11  1  0  0  0  0
  2 13  1  0  0  0  0
  2  9  1  0  0  0  0
  3  4  1  1  0  0  0
  3  5  2  0  0  0  0
  3  6  1  0  0  0  0
  6  8  1  0  0  0  0
  7 10  1  0  0  0  0
  8 11  1  0  0  0  0
  9 12  1  0  0  0  0
 10 13  1  0  0  0  0
M  CHG  1   4  -1
M  END
>  <CHROM.1>
177.99389588,-178.19706810,85.77860536,179.99761773,-171.30765659,-178.31057239
59.56006479,-60.03695900,177.97784006,32.29608148,31.85937558,50.05121584
2.81500181,-0.08870485,-1.28878616

>  <Name>
ligand

>  <RI>
0

>  <Rbt.Current_Directory>
/home/itssahil/PROJECTS/Mol_Feturizer/New_Systems/rnas/3GS8

>  <Rbt.Executable>
rbdock ($Id: //depot/dev/client3/rdock/2013.1/src/exe/rbdock.cxx#4 $)

>  <Rbt.Library>
libRbt.so (2013.1, Build901 2013/11/27)

>  <Rbt.Parameter_File>
/export/apps/rDock/src/rDock_2013.1_src/data/scripts/dock_solv.prm

>  <Rbt.Receptor>
prm/pocket_docking_6.prm

>  <SCORE>
-12.871

>  <SCORE.INTER>
2.91818

>  <SCORE.INTER.CONST>
1

>  <SCORE.INTER.POLAR>
0

>  <SCORE.INTER.ROT>
9

>  <SCORE.INTER.SOLV>
10.3186

>  <SCORE.INTER.VDW>
-11.0941

>  <SCORE.INTER.norm>
0.224475

>  <SCORE.INTRA>
-15.7891

>  <SCORE.INTRA.DIHEDRAL>
-30.4945

>  <SCORE.INTRA.DIHEDRAL.0>
31.9578

>  <SCORE.INTRA.POLAR>
0

>  <SCORE.INTRA.POLAR.0>
0

>  <SCORE.INTRA.REPUL>
0

>  <SCORE.INTRA.REPUL.0>
0

>  <SCORE.INTRA.SOLV>
-1.50066

>  <SCORE.INTRA.SOLV.lig_0>
-48.4032

>  <SCORE.INTRA.VDW>
0.208429

>  <SCORE.INTRA.VDW.0>
-1.65238

>  <SCORE.INTRA.norm>
-1.21455

>  <SCORE.RESTR>
0

>  <SCORE.RESTR.CAVITY>
0

>  <SCORE.RESTR.norm>
0

>  <SCORE.SYSTEM>
0

>  <SCORE.SYSTEM.CONST>
0

>  <SCORE.SYSTEM.DIHEDRAL>
0

>  <SCORE.SYSTEM.SOLV>
0

>  <SCORE.SYSTEM.norm>
0

>  <SCORE.heavy>
13

>  <SCORE.norm>
-0.990074

>  <RMSD>
5.389

$$$$
ligand
 OpenBabel11021811473D
libRbt.so/2013.1/901 2013/11/27
 13 12  0  0  0  0  0  0  0  0999 V2000
   34.5692   31.9122   44.5318 O   0  0  0  0  0  0  0  0  0  0  0  0
   32.1842   33.0643   45.7451 O   0  0  0  0  0  0  0  0  0  0  0  0
   37.6285   30.6126   47.3810 P   0  0  1  0  0  0  0  0  0  0  0  0
   38.9728   30.4218   46.7349 O   0  5  0  0  0  0  0  0  0  0  0  0
   37.3112   30.7368   48.7870 O   0  0  0  0  0  0  0  0  0  0  0  0
   36.7918   31.4221   46.2640 O   0  0  0  0  0  0  0  0  0  0  0  0
   28.5994   33.8383   46.2424 O   0  0  0  0  0  0  0  0  0  0  0  0
   36.7689   31.0088   44.8804 C   0  0  0  0  0  0  0  0  0  0  0  0
   32.2629   32.7447   44.3424 C   0  0  0  0  0  0  0  0  0  0  0  0
   29.9255   33.9931   45.7066 C   0  0  0  0  0  0  0  0  0  0  0  0
   35.9120   31.9707   44.0442 C   0  0  0  0  0  0  0  0  0  0  0  0
   33.7239   32.8572   43.8478 C   0  0  0  0  0  0  0  0  0  0  0  0
   30.8605   32.9054   46.2853 C   0  0  0  0  0  0  0  0  0  0  0  0
  1 12  1  0  0  0  0
  1 11  1  0  0  0  0
  2 13  1  0  0  0  0
  2  9  1  0  0  0  0
  3  4  1  1  0  0  0
  3  5  2  0  0  0  0
  3  6  1  0  0  0  0
  6  8  1  0  0  0  0
  7 10  1  0  0  0  0
  8 11  1  0  0  0  0
  9 12  1  0  0  0  0
 10 13  1  0  0  0  0
M  CHG  1   4  -1
M  END
>  <CHROM.1>
177.68219894,-69.19545086,47.81352693,-179.22974314,-62.55177673,-176.71880700
62.28593841,179.94085309,176.25525169,34.56587887,31.98186089,45.91932506
-2.92731739,-0.32944227,1.71046001

>  <Name>
ligand

>  <RI>
0

>  <Rbt.Current_Directory>
/home/itssahil/PROJECTS/Mol_Feturizer/New_Systems/rnas/3GS8

>  <Rbt.Executable>
rbdock ($Id: //depot/dev/client3/rdock/2013.1/src/exe/rbdock.cxx#4 $)

>  <Rbt.Library>
libRbt.so (2013.1, Build901 2013/11/27)

>  <Rbt.Parameter_File>
/export/apps/rDock/src/rDock_2013.1_src/data/scripts/dock_solv.prm

>  <Rbt.Receptor>
prm/pocket_docking_5.prm

>  <SCORE>
-11.4052

>  <SCORE.INTER>
3.30925

>  <SCORE.INTER.CONST>
1

>  <SCORE.INTER.POLAR>
0

>  <SCORE.INTER.ROT>
9

>  <SCORE.INTER.SOLV>
14.0876

>  <SCORE.INTER.VDW>
-12.0897

>  <SCORE.INTER.norm>
0.254557

>  <SCORE.INTRA>
-14.7144

>  <SCORE.INTRA.DIHEDRAL>
-31.0582

>  <SCORE.INTRA.DIHEDRAL.0>
31.9578

>  <SCORE.INTRA.POLAR>
0

>  <SCORE.INTRA.POLAR.0>
0

>  <SCORE.INTRA.REPUL>
0

>  <SCORE.INTRA.REPUL.0>
0

>  <SCORE.INTRA.SOLV>
-1.38954

>  <SCORE.INTRA.SOLV.lig_0>
-48.4032

>  <SCORE.INTRA.VDW>
1.50945

>  <SCORE.INTRA.VDW.0>
-1.65238

>  <SCORE.INTRA.norm>
-1.13188

>  <SCORE.RESTR>
0

>  <SCORE.RESTR.CAVITY>
0

>  <SCORE.RESTR.norm>
0

>  <SCORE.SYSTEM>
0

>  <SCORE.SYSTEM.CONST>
0

>  <SCORE.SYSTEM.DIHEDRAL>
0

>  <SCORE.SYSTEM.SOLV>
0

>  <SCORE.SYSTEM.norm>
0

>  <SCORE.heavy>
13

>  <SCORE.norm>
-0.87732

>  <RMSD>
5.445

$$$$
ligand
 OpenBabel11021811473D
libRbt.so/2013.1/901 2013/11/27
 13 12  0  0  0  0  0  0  0  0999 V2000
   28.8900   33.1531   47.6214 O   0  0  0  0  0  0  0  0  0  0  0  0
   31.3807   32.3348   48.9554 O   0  0  0  0  0  0  0  0  0  0  0  0
   29.9551   37.2120   46.3156 P   0  0  1  0  0  0  0  0  0  0  0  0
   28.5065   37.4234   45.9721 O   0  5  0  0  0  0  0  0  0  0  0  0
   30.9204   38.1773   46.7941 O   0  0  0  0  0  0  0  0  0  0  0  0
   29.9989   35.6762   46.8084 O   0  0  0  0  0  0  0  0  0  0  0  0
   33.6954   33.9973   48.4640 O   0  0  0  0  0  0  0  0  0  0  0  0
   29.7741   34.5771   45.8990 C   0  0  0  0  0  0  0  0  0  0  0  0
   30.0722   32.1458   49.5283 C   0  0  0  0  0  0  0  0  0  0  0  0
   33.7618   32.7932   49.2485 C   0  0  0  0  0  0  0  0  0  0  0  0
   29.9173   33.2341   46.6303 C   0  0  0  0  0  0  0  0  0  0  0  0
   29.0199   31.9551   48.4111 C   0  0  0  0  0  0  0  0  0  0  0  0
   32.4043   32.5398   49.9450 C   0  0  0  0  0  0  0  0  0  0  0  0
  1 12  1  0  0  0  0
  1 11  1  0  0  0  0
  2 13  1  0  0  0  0
  2  9  1  0  0  0  0
  3  4  1  1  0  0  0
  3  5  2  0  0  0  0
  3  6  1  0  0  0  0
  6  8  1  0  0  0  0
  7 10  1  0  0  0  0
  8 11  1  0  0  0  0
  9 12  1  0  0  0  0
 10 13  1  0  0  0  0
M  CHG  1   4  -1
M  END
>  <CHROM.1>
81.84220105,-177.61370663,68.11460550,178.28981390,63.89658022,179.06342348
-65.17633415,62.78342957,-176.02798622,30.57928372,34.53486406,47.60683162
1.18990969,0.34531054,2.73117773

>  <Name>
ligand

>  <RI>
0

>  <Rbt.Current_Directory>
/home/itssahil/PROJECTS/Mol_Feturizer/New_Systems/rnas/3GS8

>  <Rbt.Executable>
rbdock ($Id: //depot/dev/client3/rdock/2013.1/src/exe/rbdock.cxx#4 $)

>  <Rbt.Library>
libRbt.so (2013.1, Build901 2013/11/27)

>  <Rbt.Parameter_File>
/export/apps/rDock/src/rDock_2013.1_src/data/scripts/dock_solv.prm

>  <Rbt.Receptor>
prm/pocket_docking_3.prm

>  <SCORE>
-7.14158

>  <SCORE.INTER>
7.25293

>  <SCORE.INTER.CONST>
1

>  <SCORE.INTER.POLAR>
0

>  <SCORE.INTER.ROT>
9

>  <SCORE.INTER.SOLV>
2.88655

>  <SCORE.INTER.VDW>
-5.7269

>  <SCORE.INTER.norm>
0.557918

>  <SCORE.INTRA>
-14.3945

>  <SCORE.INTRA.DIHEDRAL>
-28.8812

>  <SCORE.INTRA.DIHEDRAL.0>
31.9578

>  <SCORE.INTRA.POLAR>
0

>  <SCORE.INTRA.POLAR.0>
0

>  <SCORE.INTRA.REPUL>
0.00073655

>  <SCORE.INTRA.REPUL.0>
0

>  <SCORE.INTRA.SOLV>
-1.11724

>  <SCORE.INTRA.SOLV.lig_0>
-48.4032

>  <SCORE.INTRA.VDW>
0.601009

>  <SCORE.INTRA.VDW.0>
-1.65238

>  <SCORE.INTRA.norm>
-1.10727

>  <SCORE.RESTR>
0

>  <SCORE.RESTR.CAVITY>
0

>  <SCORE.RESTR.norm>
0

>  <SCORE.SYSTEM>
0

>  <SCORE.SYSTEM.CONST>
0

>  <SCORE.SYSTEM.DIHEDRAL>
0

>  <SCORE.SYSTEM.SOLV>
0

>  <SCORE.SYSTEM.norm>
0

>  <SCORE.heavy>
13

>  <SCORE.norm>
-0.549353

>  <RMSD>
5.471

$$$$
ligand
 OpenBabel11021811473D
libRbt.so/2013.1/901 2013/11/27
 13 12  0  0  0  0  0  0  0  0999 V2000
   29.7293   32.2271   49.0865 O   0  0  0  0  0  0  0  0  0  0  0  0
   32.0606   31.5286   50.6338 O   0  0  0  0  0  0  0  0  0  0  0  0
   30.6173   34.1553   45.2996 P   0  0  1  0  0  0  0  0  0  0  0  0
   32.0816   33.8679   45.1139 O   0  5  0  0  0  0  0  0  0  0  0  0
   29.6769   34.7061   44.3484 O   0  0  0  0  0  0  0  0  0  0  0  0
   30.1568   33.0499   46.3810 O   0  0  0  0  0  0  0  0  0  0  0  0
   34.5263   32.7754   49.8983 O   0  0  0  0  0  0  0  0  0  0  0  0
   28.8641   33.1035   47.0227 C   0  0  0  0  0  0  0  0  0  0  0  0
   30.7378   31.4850   51.2032 C   0  0  0  0  0  0  0  0  0  0  0  0
   34.4733   31.7714   50.9273 C   0  0  0  0  0  0  0  0  0  0  0  0
   28.7405   31.9963   48.0799 C   0  0  0  0  0  0  0  0  0  0  0  0
   29.6887   31.2058   50.1019 C   0  0  0  0  0  0  0  0  0  0  0  0
   33.0854   31.7860   51.6099 C   0  0  0  0  0  0  0  0  0  0  0  0
  1 12  1  0  0  0  0
  1 11  1  0  0  0  0
  2 13  1  0  0  0  0
  2  9  1  0  0  0  0
  3  4  1  6  0  0  0
  3  5  2  0  0  0  0
  3  6  1  0  0  0  0
  6  8  1  0  0  0  0
  7 10  1  0  0  0  0
  8 11  1  0  0  0  0
  9 12  1  0  0  0  0
 10 13  1  0  0  0  0
M  CHG  1   4  -1
M  END
>  <CHROM.1>
-178.56784279,178.18439430,169.32283231,-175.53578791,62.54445917,179.98357438
-59.20644704,59.41961783,-178.83354478,31.08571135,32.73930431,48.13863639
1.17016155,0.16805972,2.02010178

>  <Name>
ligand

>  <RI>
0

>  <Rbt.Current_Directory>
/home/itssahil/PROJECTS/Mol_Feturizer/New_Systems/rnas/3GS8

>  <Rbt.Executable>
rbdock ($Id: //depot/dev/client3/rdock/2013.1/src/exe/rbdock.cxx#4 $)

>  <Rbt.Library>
libRbt.so (2013.1, Build901 2013/11/27)

>  <Rbt.Parameter_File>
/export/apps/rDock/src/rDock_2013.1_src/data/scripts/dock_solv.prm

>  <Rbt.Receptor>
prm/pocket_docking_5.prm

>  <SCORE>
-12.752

>  <SCORE.INTER>
3.62469

>  <SCORE.INTER.CONST>
1

>  <SCORE.INTER.POLAR>
0

>  <SCORE.INTER.ROT>
9

>  <SCORE.INTER.SOLV>
9.38664

>  <SCORE.INTER.VDW>
-10.3124

>  <SCORE.INTER.norm>
0.278822

>  <SCORE.INTRA>
-16.3767

>  <SCORE.INTRA.DIHEDRAL>
-31.4933

>  <SCORE.INTRA.DIHEDRAL.0>
31.9578

>  <SCORE.INTRA.POLAR>
0

>  <SCORE.INTRA.POLAR.0>
0

>  <SCORE.INTRA.REPUL>
0

>  <SCORE.INTRA.REPUL.0>
0

>  <SCORE.INTRA.SOLV>
-1.41785

>  <SCORE.INTRA.SOLV.lig_0>
-48.4032

>  <SCORE.INTRA.VDW>
0.0788763

>  <SCORE.INTRA.VDW.0>
-1.65238

>  <SCORE.INTRA.norm>
-1.25975

>  <SCORE.RESTR>
0

>  <SCORE.RESTR.CAVITY>
0

>  <SCORE.RESTR.norm>
0

>  <SCORE.SYSTEM>
0

>  <SCORE.SYSTEM.CONST>
0

>  <SCORE.SYSTEM.DIHEDRAL>
0

>  <SCORE.SYSTEM.SOLV>
0

>  <SCORE.SYSTEM.norm>
0

>  <SCORE.heavy>
13

>  <SCORE.norm>
-0.980924

>  <RMSD>
5.472

$$$$
ligand
 OpenBabel11021811473D
libRbt.so/2013.1/901 2013/11/27
 13 12  0  0  0  0  0  0  0  0999 V2000
   34.0402   31.0726   43.8469 O   0  0  0  0  0  0  0  0  0  0  0  0
   32.2328   32.7474   45.2881 O   0  0  0  0  0  0  0  0  0  0  0  0
   37.3376   31.1404   46.7385 P   0  0  1  0  0  0  0  0  0  0  0  0
   37.1599   32.6287   46.8577 O   0  5  0  0  0  0  0  0  0  0  0  0
   37.7529   30.1959   47.7526 O   0  0  0  0  0  0  0  0  0  0  0  0
   36.2643   30.7283   45.6065 O   0  0  0  0  0  0  0  0  0  0  0  0
   31.6661   33.5425   47.9780 O   0  0  0  0  0  0  0  0  0  0  0  0
   36.4119   31.1397   44.2301 C   0  0  0  0  0  0  0  0  0  0  0  0
   32.4773   32.9710   43.8859 C   0  0  0  0  0  0  0  0  0  0  0  0
   30.7092   32.8058   47.1963 C   0  0  0  0  0  0  0  0  0  0  0  0
   35.2837   30.5541   43.3681 C   0  0  0  0  0  0  0  0  0  0  0  0
   33.8855   32.4621   43.4991 C   0  0  0  0  0  0  0  0  0  0  0  0
   30.9026   33.1157   45.6933 C   0  0  0  0  0  0  0  0  0  0  0  0
  1 12  1  0  0  0  0
  1 11  1  0  0  0  0
  2 13  1  0  0  0  0
  2  9  1  0  0  0  0
  3  4  1  1  0  0  0
  3  5  2  0  0  0  0
  3  6  1  0  0  0  0
  6  8  1  0  0  0  0
  7 10  1  0  0  0  0
  8 11  1  0  0  0  0
  9 12  1  0  0  0  0
 10 13  1  0  0  0  0
M  CHG  1   4  -1
M  END
>  <CHROM.1>
173.88138456,178.29728849,67.54906369,177.46651032,62.21239143,-175.98153072
56.07243901,59.66436243,72.47615150,34.58969320,31.86134180,45.66917181,-3.12589319
-0.34956403,1.38338536

>  <Name>
ligand

>  <RI>
0

>  <Rbt.Current_Directory>
/home/itssahil/PROJECTS/Mol_Feturizer/New_Systems/rnas/3GS8

>  <Rbt.Executable>
rbdock ($Id: //depot/dev/client3/rdock/2013.1/src/exe/rbdock.cxx#4 $)

>  <Rbt.Library>
libRbt.so (2013.1, Build901 2013/11/27)

>  <Rbt.Parameter_File>
/export/apps/rDock/src/rDock_2013.1_src/data/scripts/dock_solv.prm

>  <Rbt.Receptor>
prm/pocket_docking_6.prm

>  <SCORE>
-11.9238

>  <SCORE.INTER>
2.48301

>  <SCORE.INTER.CONST>
1

>  <SCORE.INTER.POLAR>
0

>  <SCORE.INTER.ROT>
9

>  <SCORE.INTER.SOLV>
13.3915

>  <SCORE.INTER.VDW>
-12.4085

>  <SCORE.INTER.norm>
0.191

>  <SCORE.INTRA>
-14.4068

>  <SCORE.INTRA.DIHEDRAL>
-30.1894

>  <SCORE.INTRA.DIHEDRAL.0>
31.9578

>  <SCORE.INTRA.POLAR>
0

>  <SCORE.INTRA.POLAR.0>
0

>  <SCORE.INTRA.REPUL>
0

>  <SCORE.INTRA.REPUL.0>
0

>  <SCORE.INTRA.SOLV>
-1.27487

>  <SCORE.INTRA.SOLV.lig_0>
-48.4032

>  <SCORE.INTRA.VDW>
1.32535

>  <SCORE.INTRA.VDW.0>
-1.65238

>  <SCORE.INTRA.norm>
-1.10821

>  <SCORE.RESTR>
0

>  <SCORE.RESTR.CAVITY>
0

>  <SCORE.RESTR.norm>
0

>  <SCORE.SYSTEM>
0

>  <SCORE.SYSTEM.CONST>
0

>  <SCORE.SYSTEM.DIHEDRAL>
0

>  <SCORE.SYSTEM.SOLV>
0

>  <SCORE.SYSTEM.norm>
0

>  <SCORE.heavy>
13

>  <SCORE.norm>
-0.917213

>  <RMSD>
5.479

$$$$
ligand
 OpenBabel11021811473D
libRbt.so/2013.1/901 2013/11/27
 13 12  0  0  0  0  0  0  0  0999 V2000
   28.5214   32.1107   50.8930 O   0  0  0  0  0  0  0  0  0  0  0  0
   28.2410   33.5688   53.3836 O   0  0  0  0  0  0  0  0  0  0  0  0
   28.4578   33.2251   46.6858 P   0  0  1  0  0  0  0  0  0  0  0  0
   27.0535   33.1486   46.1537 O   0  5  0  0  0  0  0  0  0  0  0  0
   29.4432   34.2658   46.4890 O   0  0  0  0  0  0  0  0  0  0  0  0
   28.3720   32.4121   48.0769 O   0  0  0  0  0  0  0  0  0  0  0  0
   29.1634   36.2668   53.3878 O   0  0  0  0  0  0  0  0  0  0  0  0
   29.5509   31.8956   48.7320 C   0  0  0  0  0  0  0  0  0  0  0  0
   27.3477   32.4988   53.0190 C   0  0  0  0  0  0  0  0  0  0  0  0
   28.6486   35.6564   54.5844 C   0  0  0  0  0  0  0  0  0  0  0  0
   29.1720   31.1721   50.0326 C   0  0  0  0  0  0  0  0  0  0  0  0
   28.0735   31.4808   52.1088 C   0  0  0  0  0  0  0  0  0  0  0  0
   27.6194   34.5611   54.2192 C   0  0  0  0  0  0  0  0  0  0  0  0
  1 12  1  0  0  0  0
  1 11  1  0  0  0  0
  2 13  1  0  0  0  0
  2  9  1  0  0  0  0
  3  4  1  1  0  0  0
  3  5  2  0  0  0  0
  3  6  1  0  0  0  0
  6  8  1  0  0  0  0
  7 10  1  0  0  0  0
  8 11  1  0  0  0  0
  9 12  1  0  0  0  0
 10 13  1  0  0  0  0
M  CHG  1   4  -1
M  END
>  <CHROM.1>
-178.90647626,178.99331452,161.39194131,179.86621934,-60.12707140,179.26929565
-60.85832459,58.59268690,176.95751940,28.43917605,33.27008170,50.23481419
1.78248438,1.45220015,1.16596664

>  <Name>
ligand

>  <RI>
0

>  <Rbt.Current_Directory>
/home/itssahil/PROJECTS/Mol_Feturizer/New_Systems/rnas/3GS8

>  <Rbt.Executable>
rbdock ($Id: //depot/dev/client3/rdock/2013.1/src/exe/rbdock.cxx#4 $)

>  <Rbt.Library>
libRbt.so (2013.1, Build901 2013/11/27)

>  <Rbt.Parameter_File>
/export/apps/rDock/src/rDock_2013.1_src/data/scripts/dock_solv.prm

>  <Rbt.Receptor>
prm/pocket_docking_6.prm

>  <SCORE>
-13.2858

>  <SCORE.INTER>
3.16442

>  <SCORE.INTER.CONST>
1

>  <SCORE.INTER.POLAR>
0

>  <SCORE.INTER.ROT>
9

>  <SCORE.INTER.SOLV>
6.99619

>  <SCORE.INTER.VDW>
-9.82245

>  <SCORE.INTER.norm>
0.243417

>  <SCORE.INTRA>
-16.4502

>  <SCORE.INTRA.DIHEDRAL>
-31.6039

>  <SCORE.INTRA.DIHEDRAL.0>
31.9578

>  <SCORE.INTRA.POLAR>
0

>  <SCORE.INTRA.POLAR.0>
0

>  <SCORE.INTRA.REPUL>
0

>  <SCORE.INTRA.REPUL.0>
0

>  <SCORE.INTRA.SOLV>
-1.44579

>  <SCORE.INTRA.SOLV.lig_0>
-48.4032

>  <SCORE.INTRA.VDW>
0.0746331

>  <SCORE.INTRA.VDW.0>
-1.65238

>  <SCORE.INTRA.norm>
-1.2654

>  <SCORE.RESTR>
0

>  <SCORE.RESTR.CAVITY>
0

>  <SCORE.RESTR.norm>
0

>  <SCORE.SYSTEM>
0

>  <SCORE.SYSTEM.CONST>
0

>  <SCORE.SYSTEM.DIHEDRAL>
0

>  <SCORE.SYSTEM.SOLV>
0

>  <SCORE.SYSTEM.norm>
0

>  <SCORE.heavy>
13

>  <SCORE.norm>
-1.02198

>  <RMSD>
5.488

$$$$
ligand
 OpenBabel11021811473D
libRbt.so/2013.1/901 2013/11/27
 13 12  0  0  0  0  0  0  0  0999 V2000
   34.3347   31.9715   50.5254 O   0  0  0  0  0  0  0  0  0  0  0  0
   31.5015   31.9049   50.5352 O   0  0  0  0  0  0  0  0  0  0  0  0
   38.4850   30.3560   48.1056 P   0  0  1  0  0  0  0  0  0  0  0  0
   38.3900   31.5806   47.2383 O   0  5  0  0  0  0  0  0  0  0  0  0
   39.5568   29.3878   48.1876 O   0  0  0  0  0  0  0  0  0  0  0  0
   37.6245   30.7577   49.4100 O   0  0  0  0  0  0  0  0  0  0  0  0
   30.2901   31.9983   47.9091 O   0  0  0  0  0  0  0  0  0  0  0  0
   36.3041   31.3332   49.3047 C   0  0  0  0  0  0  0  0  0  0  0  0
   32.2057   32.5820   51.5943 C   0  0  0  0  0  0  0  0  0  0  0  0
   29.5335   31.7194   49.1005 C   0  0  0  0  0  0  0  0  0  0  0  0
   35.6642   31.4729   50.6938 C   0  0  0  0  0  0  0  0  0  0  0  0
   33.6165   31.9747   51.7743 C   0  0  0  0  0  0  0  0  0  0  0  0
   30.1791   32.4264   50.3152 C   0  0  0  0  0  0  0  0  0  0  0  0
  1 12  1  0  0  0  0
  1 11  1  0  0  0  0
  2 13  1  0  0  0  0
  2  9  1  0  0  0  0
  3  4  1  1  0  0  0
  3  5  2  0  0  0  0
  3  6  1  0  0  0  0
  6  8  1  0  0  0  0
  7 10  1  0  0  0  0
  8 11  1  0  0  0  0
  9 12  1  0  0  0  0
 10 13  1  0  0  0  0
M  CHG  1   4  -1
M  END
>  <CHROM.1>
177.13201602,175.86304373,48.68523152,173.88409167,-176.64361302,-179.88479435
53.82384489,-62.94228171,172.99574596,34.80965335,31.39280103,49.43754485
-2.89492132,0.17005042,-1.75258534

>  <Name>
ligand

>  <RI>
0

>  <Rbt.Current_Directory>
/home/itssahil/PROJECTS/Mol_Feturizer/New_Systems/rnas/3GS8

>  <Rbt.Executable>
rbdock ($Id: //depot/dev/client3/rdock/2013.1/src/exe/rbdock.cxx#4 $)

>  <Rbt.Library>
libRbt.so (2013.1, Build901 2013/11/27)

>  <Rbt.Parameter_File>
/export/apps/rDock/src/rDock_2013.1_src/data/scripts/dock_solv.prm

>  <Rbt.Receptor>
prm/pocket_docking_6.prm

>  <SCORE>
-13.9515

>  <SCORE.INTER>
1.7187

>  <SCORE.INTER.CONST>
1

>  <SCORE.INTER.POLAR>
0

>  <SCORE.INTER.ROT>
9

>  <SCORE.INTER.SOLV>
8.85693

>  <SCORE.INTER.VDW>
-11.4065

>  <SCORE.INTER.norm>
0.132207

>  <SCORE.INTRA>
-15.6702

>  <SCORE.INTRA.DIHEDRAL>
-30.892

>  <SCORE.INTRA.DIHEDRAL.0>
31.9578

>  <SCORE.INTRA.POLAR>
0

>  <SCORE.INTRA.POLAR.0>
0

>  <SCORE.INTRA.REPUL>
0

>  <SCORE.INTRA.REPUL.0>
0

>  <SCORE.INTRA.SOLV>
-1.33153

>  <SCORE.INTRA.SOLV.lig_0>
-48.4032

>  <SCORE.INTRA.VDW>
0.4415

>  <SCORE.INTRA.VDW.0>
-1.65238

>  <SCORE.INTRA.norm>
-1.2054

>  <SCORE.RESTR>
0

>  <SCORE.RESTR.CAVITY>
0

>  <SCORE.RESTR.norm>
0

>  <SCORE.SYSTEM>
0

>  <SCORE.SYSTEM.CONST>
0

>  <SCORE.SYSTEM.DIHEDRAL>
0

>  <SCORE.SYSTEM.SOLV>
0

>  <SCORE.SYSTEM.norm>
0

>  <SCORE.heavy>
13

>  <SCORE.norm>
-1.0732

>  <RMSD>
5.536

$$$$
ligand
 OpenBabel11021811473D
libRbt.so/2013.1/901 2013/11/27
 13 12  0  0  0  0  0  0  0  0999 V2000
   34.4547   32.0514   44.3865 O   0  0  0  0  0  0  0  0  0  0  0  0
   32.1221   33.2230   45.7127 O   0  0  0  0  0  0  0  0  0  0  0  0
   37.6816   30.9802   47.1127 P   0  0  1  0  0  0  0  0  0  0  0  0
   38.5618   32.0387   46.5079 O   0  5  0  0  0  0  0  0  0  0  0  0
   37.5531   30.5971   48.5018 O   0  0  0  0  0  0  0  0  0  0  0  0
   36.4124   30.9401   46.1173 O   0  0  0  0  0  0  0  0  0  0  0  0
   34.1745   33.8774   48.7220 O   0  0  0  0  0  0  0  0  0  0  0  0
   36.5691   30.9476   44.6816 C   0  0  0  0  0  0  0  0  0  0  0  0
   32.3218   33.2716   44.2866 C   0  0  0  0  0  0  0  0  0  0  0  0
   33.0183   33.4650   47.9719 C   0  0  0  0  0  0  0  0  0  0  0  0
   35.1991   30.8971   43.9893 C   0  0  0  0  0  0  0  0  0  0  0  0
   33.1318   32.0411   43.8161 C   0  0  0  0  0  0  0  0  0  0  0  0
   33.2783   33.6439   46.4578 C   0  0  0  0  0  0  0  0  0  0  0  0
  1 12  1  0  0  0  0
  1 11  1  0  0  0  0
  2 13  1  0  0  0  0
  2  9  1  0  0  0  0
  3  4  1  1  0  0  0
  3  5  2  0  0  0  0
  3  6  1  0  0  0  0
  6  8  1  0  0  0  0
  7 10  1  0  0  0  0
  8 11  1  0  0  0  0
  9 12  1  0  0  0  0
 10 13  1  0  0  0  0
M  CHG  1   4  -1
M  END
>  <CHROM.1>
178.28809294,-175.90368007,44.62724760,179.73994244,60.47538256,78.89073167
-63.78537195,179.67524433,-177.57809101,35.21122958,32.05611256,46.14377238
-2.99973010,-0.45885503,1.23441240

>  <Name>
ligand

>  <RI>
0

>  <Rbt.Current_Directory>
/home/itssahil/PROJECTS/Mol_Feturizer/New_Systems/rnas/3GS8

>  <Rbt.Executable>
rbdock ($Id: //depot/dev/client3/rdock/2013.1/src/exe/rbdock.cxx#4 $)

>  <Rbt.Library>
libRbt.so (2013.1, Build901 2013/11/27)

>  <Rbt.Parameter_File>
/export/apps/rDock/src/rDock_2013.1_src/data/scripts/dock_solv.prm

>  <Rbt.Receptor>
prm/pocket_docking_5.prm

>  <SCORE>
-10.8389

>  <SCORE.INTER>
3.81416

>  <SCORE.INTER.CONST>
1

>  <SCORE.INTER.POLAR>
0

>  <SCORE.INTER.ROT>
9

>  <SCORE.INTER.SOLV>
11.1269

>  <SCORE.INTER.VDW>
-10.7662

>  <SCORE.INTER.norm>
0.293397

>  <SCORE.INTRA>
-14.6531

>  <SCORE.INTRA.DIHEDRAL>
-29.8721

>  <SCORE.INTRA.DIHEDRAL.0>
31.9578

>  <SCORE.INTRA.POLAR>
0

>  <SCORE.INTRA.POLAR.0>
0

>  <SCORE.INTRA.REPUL>
0

>  <SCORE.INTRA.REPUL.0>
0

>  <SCORE.INTRA.SOLV>
-1.27887

>  <SCORE.INTRA.SOLV.lig_0>
-48.4032

>  <SCORE.INTRA.VDW>
0.922406

>  <SCORE.INTRA.VDW.0>
-1.65238

>  <SCORE.INTRA.norm>
-1.12716

>  <SCORE.RESTR>
0

>  <SCORE.RESTR.CAVITY>
0

>  <SCORE.RESTR.norm>
0

>  <SCORE.SYSTEM>
0

>  <SCORE.SYSTEM.CONST>
0

>  <SCORE.SYSTEM.DIHEDRAL>
0

>  <SCORE.SYSTEM.SOLV>
0

>  <SCORE.SYSTEM.norm>
0

>  <SCORE.heavy>
13

>  <SCORE.norm>
-0.833761

>  <RMSD>
5.538

$$$$
ligand
 OpenBabel11021811473D
libRbt.so/2013.1/901 2013/11/27
 13 12  0  0  0  0  0  0  0  0999 V2000
   28.3935   32.8697   47.5096 O   0  0  0  0  0  0  0  0  0  0  0  0
   26.6170   31.5072   49.3268 O   0  0  0  0  0  0  0  0  0  0  0  0
   30.8042   36.5322   47.7367 P   0  0  1  0  0  0  0  0  0  0  0  0
   31.9361   36.5855   46.7484 O   0  5  0  0  0  0  0  0  0  0  0  0
   30.1726   37.6229   48.4468 O   0  0  0  0  0  0  0  0  0  0  0  0
   29.9538   35.2475   47.2576 O   0  0  0  0  0  0  0  0  0  0  0  0
   26.9016   32.1363   52.1297 O   0  0  0  0  0  0  0  0  0  0  0  0
   30.5320   33.9249   47.2101 C   0  0  0  0  0  0  0  0  0  0  0  0
   26.1982   31.8748   47.9981 C   0  0  0  0  0  0  0  0  0  0  0  0
   26.0599   31.0668   51.6638 C   0  0  0  0  0  0  0  0  0  0  0  0
   29.5254   32.9164   46.6372 C   0  0  0  0  0  0  0  0  0  0  0  0
   27.4153   31.9195   47.0452 C   0  0  0  0  0  0  0  0  0  0  0  0
   25.5210   31.3942   50.2515 C   0  0  0  0  0  0  0  0  0  0  0  0
  1 12  1  0  0  0  0
  1 11  1  0  0  0  0
  2 13  1  0  0  0  0
  2  9  1  0  0  0  0
  3  4  1  6  0  0  0
  3  5  2  0  0  0  0
  3  6  1  0  0  0  0
  6  8  1  0  0  0  0
  7 10  1  0  0  0  0
  8 11  1  0  0  0  0
  9 12  1  0  0  0  0
 10 13  1  0  0  0  0
M  CHG  1   4  -1
M  END
>  <CHROM.1>
179.83988381,-177.22777042,60.11517125,-176.50781760,-62.04473412,-177.60416192
-59.16356775,62.24757358,-178.86592159,28.68154605,33.79631530,48.40688522
3.12286441,0.88318085,1.07097478

>  <Name>
ligand

>  <RI>
0

>  <Rbt.Current_Directory>
/home/itssahil/PROJECTS/Mol_Feturizer/New_Systems/rnas/3GS8

>  <Rbt.Executable>
rbdock ($Id: //depot/dev/client3/rdock/2013.1/src/exe/rbdock.cxx#4 $)

>  <Rbt.Library>
libRbt.so (2013.1, Build901 2013/11/27)

>  <Rbt.Parameter_File>
/export/apps/rDock/src/rDock_2013.1_src/data/scripts/dock_solv.prm

>  <Rbt.Receptor>
prm/pocket_docking_7.prm

>  <SCORE>
-10.3359

>  <SCORE.INTER>
5.79033

>  <SCORE.INTER.CONST>
1

>  <SCORE.INTER.POLAR>
0

>  <SCORE.INTER.ROT>
9

>  <SCORE.INTER.SOLV>
3.87434

>  <SCORE.INTER.VDW>
-7.03123

>  <SCORE.INTER.norm>
0.44541

>  <SCORE.INTRA>
-16.1263

>  <SCORE.INTRA.DIHEDRAL>
-31.3216

>  <SCORE.INTRA.DIHEDRAL.0>
31.9578

>  <SCORE.INTRA.POLAR>
0

>  <SCORE.INTRA.POLAR.0>
0

>  <SCORE.INTRA.REPUL>
0

>  <SCORE.INTRA.REPUL.0>
0

>  <SCORE.INTRA.SOLV>
-1.27512

>  <SCORE.INTRA.SOLV.lig_0>
-48.4032

>  <SCORE.INTRA.VDW>
0.17209

>  <SCORE.INTRA.VDW.0>
-1.65238

>  <SCORE.INTRA.norm>
-1.24048

>  <SCORE.RESTR>
0

>  <SCORE.RESTR.CAVITY>
0

>  <SCORE.RESTR.norm>
0

>  <SCORE.SYSTEM>
0

>  <SCORE.SYSTEM.CONST>
0

>  <SCORE.SYSTEM.DIHEDRAL>
0

>  <SCORE.SYSTEM.SOLV>
0

>  <SCORE.SYSTEM.norm>
0

>  <SCORE.heavy>
13

>  <SCORE.norm>
-0.795071

>  <RMSD>
5.547

$$$$
ligand
 OpenBabel11021811473D
libRbt.so/2013.1/901 2013/11/27
 13 12  0  0  0  0  0  0  0  0999 V2000
   29.2775   32.2038   49.2417 O   0  0  0  0  0  0  0  0  0  0  0  0
   28.9049   32.5090   52.1621 O   0  0  0  0  0  0  0  0  0  0  0  0
   27.8122   34.3749   45.6413 P   0  0  1  0  0  0  0  0  0  0  0  0
   28.1228   35.3126   44.5076 O   0  5  0  0  0  0  0  0  0  0  0  0
   26.5372   33.8057   46.0196 O   0  0  0  0  0  0  0  0  0  0  0  0
   29.1818   33.5405   45.8181 O   0  0  0  0  0  0  0  0  0  0  0  0
   28.4237   34.1596   54.4555 O   0  0  0  0  0  0  0  0  0  0  0  0
   29.7286   33.2399   47.1206 C   0  0  0  0  0  0  0  0  0  0  0  0
   28.9745   31.2398   51.4838 C   0  0  0  0  0  0  0  0  0  0  0  0
   27.5832   34.2258   53.2898 C   0  0  0  0  0  0  0  0  0  0  0  0
   28.7750   32.3301   47.9091 C   0  0  0  0  0  0  0  0  0  0  0  0
   28.4213   31.3693   50.0454 C   0  0  0  0  0  0  0  0  0  0  0  0
   27.5698   32.8577   52.5686 C   0  0  0  0  0  0  0  0  0  0  0  0
  1 12  1  0  0  0  0
  1 11  1  0  0  0  0
  2 13  1  0  0  0  0
  2  9  1  0  0  0  0
  3  4  1  6  0  0  0
  3  5  2  0  0  0  0
  3  6  1  0  0  0  0
  6  8  1  0  0  0  0
  7 10  1  0  0  0  0
  8 11  1  0  0  0  0
  9 12  1  0  0  0  0
 10 13  1  0  0  0  0
M  CHG  1   4  -1
M  END
>  <CHROM.1>
179.99305824,179.83312911,137.58208493,63.89956240,-172.72213639,74.87155170
67.04709960,-60.15006047,179.47090763,28.36075869,33.28743541,48.93042490
-1.51138993,1.04767344,-1.46462442

>  <Name>
ligand

>  <RI>
0

>  <Rbt.Current_Directory>
/home/itssahil/PROJECTS/Mol_Feturizer/New_Systems/rnas/3GS8

>  <Rbt.Executable>
rbdock ($Id: //depot/dev/client3/rdock/2013.1/src/exe/rbdock.cxx#4 $)

>  <Rbt.Library>
libRbt.so (2013.1, Build901 2013/11/27)

>  <Rbt.Parameter_File>
/export/apps/rDock/src/rDock_2013.1_src/data/scripts/dock_solv.prm

>  <Rbt.Receptor>
prm/pocket_docking_5.prm

>  <SCORE>
-9.32333

>  <SCORE.INTER>
4.53696

>  <SCORE.INTER.CONST>
1

>  <SCORE.INTER.POLAR>
0

>  <SCORE.INTER.ROT>
9

>  <SCORE.INTER.SOLV>
7.72684

>  <SCORE.INTER.VDW>
-9.15097

>  <SCORE.INTER.norm>
0.348997

>  <SCORE.INTRA>
-13.8603

>  <SCORE.INTRA.DIHEDRAL>
-29.7711

>  <SCORE.INTRA.DIHEDRAL.0>
31.9578

>  <SCORE.INTRA.POLAR>
0

>  <SCORE.INTRA.POLAR.0>
0

>  <SCORE.INTRA.REPUL>
0

>  <SCORE.INTRA.REPUL.0>
0

>  <SCORE.INTRA.SOLV>
-0.025834

>  <SCORE.INTRA.SOLV.lig_0>
-48.4032

>  <SCORE.INTRA.VDW>
1.03818

>  <SCORE.INTRA.VDW.0>
-1.65238

>  <SCORE.INTRA.norm>
-1.06618

>  <SCORE.RESTR>
0

>  <SCORE.RESTR.CAVITY>
0

>  <SCORE.RESTR.norm>
0

>  <SCORE.SYSTEM>
0

>  <SCORE.SYSTEM.CONST>
0

>  <SCORE.SYSTEM.DIHEDRAL>
0

>  <SCORE.SYSTEM.SOLV>
0

>  <SCORE.SYSTEM.norm>
0

>  <SCORE.heavy>
13

>  <SCORE.norm>
-0.717179

>  <RMSD>
5.572

$$$$
ligand
 OpenBabel11021811473D
libRbt.so/2013.1/901 2013/11/27
 13 12  0  0  0  0  0  0  0  0999 V2000
   32.1578   33.1408   47.1564 O   0  0  0  0  0  0  0  0  0  0  0  0
   33.9347   32.1749   49.1976 O   0  0  0  0  0  0  0  0  0  0  0  0
   33.5494   32.3002   43.0863 P   0  0  1  0  0  0  0  0  0  0  0  0
   34.6535   31.3058   43.3168 O   0  5  0  0  0  0  0  0  0  0  0  0
   32.9125   32.6707   41.8413 O   0  0  0  0  0  0  0  0  0  0  0  0
   32.7157   32.2554   44.4669 O   0  0  0  0  0  0  0  0  0  0  0  0
   36.6825   31.8081   48.4568 O   0  0  0  0  0  0  0  0  0  0  0  0
   31.7290   33.2577   44.7945 C   0  0  0  0  0  0  0  0  0  0  0  0
   32.8019   33.0025   49.5259 C   0  0  0  0  0  0  0  0  0  0  0  0
   36.1772   31.3657   49.7290 C   0  0  0  0  0  0  0  0  0  0  0  0
   31.1245   32.9870   46.1802 C   0  0  0  0  0  0  0  0  0  0  0  0
   31.6807   32.8178   48.4768 C   0  0  0  0  0  0  0  0  0  0  0  0
   34.9933   32.2590   50.1679 C   0  0  0  0  0  0  0  0  0  0  0  0
  1 12  1  0  0  0  0
  1 11  1  0  0  0  0
  2 13  1  0  0  0  0
  2  9  1  0  0  0  0
  3  4  1  6  0  0  0
  3  5  2  0  0  0  0
  3  6  1  0  0  0  0
  6  8  1  0  0  0  0
  7 10  1  0  0  0  0
  8 11  1  0  0  0  0
  9 12  1  0  0  0  0
 10 13  1  0  0  0  0
M  CHG  1   4  -1
M  END
>  <CHROM.1>
-179.38180568,-178.92587093,166.74729633,-178.40658224,65.13237873,-177.56314735
-58.09120521,60.47853561,-176.34524466,33.49744705,32.39191592,46.30933385
1.32353336,-0.33589070,1.51776113

>  <Name>
ligand

>  <RI>
0

>  <Rbt.Current_Directory>
/home/itssahil/PROJECTS/Mol_Feturizer/New_Systems/rnas/3GS8

>  <Rbt.Executable>
rbdock ($Id: //depot/dev/client3/rdock/2013.1/src/exe/rbdock.cxx#4 $)

>  <Rbt.Library>
libRbt.so (2013.1, Build901 2013/11/27)

>  <Rbt.Parameter_File>
/export/apps/rDock/src/rDock_2013.1_src/data/scripts/dock_solv.prm

>  <Rbt.Receptor>
prm/pocket_docking_8.prm

>  <SCORE>
-12.9598

>  <SCORE.INTER>
3.41809

>  <SCORE.INTER.CONST>
1

>  <SCORE.INTER.POLAR>
0

>  <SCORE.INTER.ROT>
9

>  <SCORE.INTER.SOLV>
11.3775

>  <SCORE.INTER.VDW>
-11.1138

>  <SCORE.INTER.norm>
0.26293

>  <SCORE.INTRA>
-16.3778

>  <SCORE.INTRA.DIHEDRAL>
-31.4401

>  <SCORE.INTRA.DIHEDRAL.0>
31.9578

>  <SCORE.INTRA.POLAR>
0

>  <SCORE.INTRA.POLAR.0>
0

>  <SCORE.INTRA.REPUL>
0

>  <SCORE.INTRA.REPUL.0>
0

>  <SCORE.INTRA.SOLV>
-1.45525

>  <SCORE.INTRA.SOLV.lig_0>
-48.4032

>  <SCORE.INTRA.VDW>
0.0698523

>  <SCORE.INTRA.VDW.0>
-1.65238

>  <SCORE.INTRA.norm>
-1.25983

>  <SCORE.RESTR>
0

>  <SCORE.RESTR.CAVITY>
0

>  <SCORE.RESTR.norm>
0

>  <SCORE.SYSTEM>
0

>  <SCORE.SYSTEM.CONST>
0

>  <SCORE.SYSTEM.DIHEDRAL>
0

>  <SCORE.SYSTEM.SOLV>
0

>  <SCORE.SYSTEM.norm>
0

>  <SCORE.heavy>
13

>  <SCORE.norm>
-0.996904

>  <RMSD>
5.584

$$$$
ligand
 OpenBabel11021811473D
libRbt.so/2013.1/901 2013/11/27
 13 12  0  0  0  0  0  0  0  0999 V2000
   34.2001   31.6020   51.3171 O   0  0  0  0  0  0  0  0  0  0  0  0
   31.5008   32.5487   51.8190 O   0  0  0  0  0  0  0  0  0  0  0  0
   38.0789   31.0676   48.0910 P   0  0  1  0  0  0  0  0  0  0  0  0
   39.5530   31.1354   48.3801 O   0  5  0  0  0  0  0  0  0  0  0  0
   37.3906   30.2916   47.0826 O   0  0  0  0  0  0  0  0  0  0  0  0
   37.4055   31.3464   49.5304 O   0  0  0  0  0  0  0  0  0  0  0  0
   29.2986   32.8624   49.9882 O   0  0  0  0  0  0  0  0  0  0  0  0
   35.9733   31.3425   49.7157 C   0  0  0  0  0  0  0  0  0  0  0  0
   32.2611   31.8333   52.8121 C   0  0  0  0  0  0  0  0  0  0  0  0
   30.6563   32.7224   49.5337 C   0  0  0  0  0  0  0  0  0  0  0  0
   35.6147   31.7342   51.1568 C   0  0  0  0  0  0  0  0  0  0  0  0
   33.7744   32.0784   52.6084 C   0  0  0  0  0  0  0  0  0  0  0  0
   31.4690   31.8808   50.5454 C   0  0  0  0  0  0  0  0  0  0  0  0
  1 12  1  0  0  0  0
  1 11  1  0  0  0  0
  2 13  1  0  0  0  0
  2  9  1  0  0  0  0
  3  4  1  1  0  0  0
  3  5  2  0  0  0  0
  3  6  1  0  0  0  0
  6  8  1  0  0  0  0
  7 10  1  0  0  0  0
  8 11  1  0  0  0  0
  9 12  1  0  0  0  0
 10 13  1  0  0  0  0
M  CHG  1   4  -1
M  END
>  <CHROM.1>
-175.74899449,-179.06007212,-178.62585294,-175.97096159,-175.04325152,79.51057060
-61.33455720,-61.66220734,-174.36130526,34.72127300,31.66835578,50.00061941
-2.76330956,0.17447733,-1.63248813

>  <Name>
ligand

>  <RI>
0

>  <Rbt.Current_Directory>
/home/itssahil/PROJECTS/Mol_Feturizer/New_Systems/rnas/3GS8

>  <Rbt.Executable>
rbdock ($Id: //depot/dev/client3/rdock/2013.1/src/exe/rbdock.cxx#4 $)

>  <Rbt.Library>
libRbt.so (2013.1, Build901 2013/11/27)

>  <Rbt.Parameter_File>
/export/apps/rDock/src/rDock_2013.1_src/data/scripts/dock_solv.prm

>  <Rbt.Receptor>
prm/pocket_docking_6.prm

>  <SCORE>
-10.8533

>  <SCORE.INTER>
3.45178

>  <SCORE.INTER.CONST>
1

>  <SCORE.INTER.POLAR>
0

>  <SCORE.INTER.ROT>
9

>  <SCORE.INTER.SOLV>
9.38928

>  <SCORE.INTER.VDW>
-10.4286

>  <SCORE.INTER.norm>
0.265522

>  <SCORE.INTRA>
-14.3134

>  <SCORE.INTRA.DIHEDRAL>
-29.3058

>  <SCORE.INTRA.DIHEDRAL.0>
31.9578

>  <SCORE.INTRA.POLAR>
0

>  <SCORE.INTRA.POLAR.0>
0

>  <SCORE.INTRA.REPUL>
0

>  <SCORE.INTRA.REPUL.0>
0

>  <SCORE.INTRA.SOLV>
-1.33476

>  <SCORE.INTRA.SOLV.lig_0>
-48.4032

>  <SCORE.INTRA.VDW>
1.00688

>  <SCORE.INTRA.VDW.0>
-1.65238

>  <SCORE.INTRA.norm>
-1.10103

>  <SCORE.RESTR>
0.0083602

>  <SCORE.RESTR.CAVITY>
0.0083602

>  <SCORE.RESTR.norm>
0.000643092

>  <SCORE.SYSTEM>
0

>  <SCORE.SYSTEM.CONST>
0

>  <SCORE.SYSTEM.DIHEDRAL>
0

>  <SCORE.SYSTEM.SOLV>
0

>  <SCORE.SYSTEM.norm>
0

>  <SCORE.heavy>
13

>  <SCORE.norm>
-0.834867

>  <RMSD>
5.600

$$$$
ligand
 OpenBabel11021811473D
libRbt.so/2013.1/901 2013/11/27
 13 12  0  0  0  0  0  0  0  0999 V2000
   34.0911   31.5342   50.6086 O   0  0  0  0  0  0  0  0  0  0  0  0
   31.3200   32.1126   50.5434 O   0  0  0  0  0  0  0  0  0  0  0  0
   38.5197   30.4012   48.4557 P   0  0  1  0  0  0  0  0  0  0  0  0
   38.4902   31.4834   47.4122 O   0  5  0  0  0  0  0  0  0  0  0  0
   39.5759   29.4569   48.7485 O   0  0  0  0  0  0  0  0  0  0  0  0
   37.5816   30.9911   49.6284 O   0  0  0  0  0  0  0  0  0  0  0  0
   30.1832   31.9347   47.9330 O   0  0  0  0  0  0  0  0  0  0  0  0
   36.1642   31.1946   49.4411 C   0  0  0  0  0  0  0  0  0  0  0  0
   31.9080   31.5674   51.7405 C   0  0  0  0  0  0  0  0  0  0  0  0
   29.3928   32.3488   49.0615 C   0  0  0  0  0  0  0  0  0  0  0  0
   35.5084   31.6593   50.7498 C   0  0  0  0  0  0  0  0  0  0  0  0
   33.4094   31.9309   51.8142 C   0  0  0  0  0  0  0  0  0  0  0  0
   29.9497   31.7162   50.3583 C   0  0  0  0  0  0  0  0  0  0  0  0
  1 12  1  0  0  0  0
  1 11  1  0  0  0  0
  2 13  1  0  0  0  0
  2  9  1  0  0  0  0
  3  4  1  1  0  0  0
  3  5  2  0  0  0  0
  3  6  1  0  0  0  0
  6  8  1  0  0  0  0
  7 10  1  0  0  0  0
  8 11  1  0  0  0  0
  9 12  1  0  0  0  0
 10 13  1  0  0  0  0
M  CHG  1   4  -1
M  END
>  <CHROM.1>
-170.33992682,179.62188372,66.31470839,175.58245928,-166.16862077,175.12515288
-53.54432249,58.74332269,178.90309787,34.70246754,31.32025224,49.59529932
-2.96855078,0.17874836,-1.59433273

>  <Name>
ligand

>  <RI>
0

>  <Rbt.Current_Directory>
/home/itssahil/PROJECTS/Mol_Feturizer/New_Systems/rnas/3GS8

>  <Rbt.Executable>
rbdock ($Id: //depot/dev/client3/rdock/2013.1/src/exe/rbdock.cxx#4 $)

>  <Rbt.Library>
libRbt.so (2013.1, Build901 2013/11/27)

>  <Rbt.Parameter_File>
/export/apps/rDock/src/rDock_2013.1_src/data/scripts/dock_solv.prm

>  <Rbt.Receptor>
prm/pocket_docking_6.prm

>  <SCORE>
-13.8676

>  <SCORE.INTER>
1.45781

>  <SCORE.INTER.CONST>
1

>  <SCORE.INTER.POLAR>
0

>  <SCORE.INTER.ROT>
9

>  <SCORE.INTER.SOLV>
8.67502

>  <SCORE.INTER.VDW>
-11.5198

>  <SCORE.INTER.norm>
0.112139

>  <SCORE.INTRA>
-15.3254

>  <SCORE.INTRA.DIHEDRAL>
-29.823

>  <SCORE.INTRA.DIHEDRAL.0>
31.9578

>  <SCORE.INTRA.POLAR>
0

>  <SCORE.INTRA.POLAR.0>
0

>  <SCORE.INTRA.REPUL>
0

>  <SCORE.INTRA.REPUL.0>
0

>  <SCORE.INTRA.SOLV>
-1.40638

>  <SCORE.INTRA.SOLV.lig_0>
-48.4032

>  <SCORE.INTRA.VDW>
0.289285

>  <SCORE.INTRA.VDW.0>
-1.65238

>  <SCORE.INTRA.norm>
-1.17888

>  <SCORE.RESTR>
0

>  <SCORE.RESTR.CAVITY>
0

>  <SCORE.RESTR.norm>
0

>  <SCORE.SYSTEM>
0

>  <SCORE.SYSTEM.CONST>
0

>  <SCORE.SYSTEM.DIHEDRAL>
0

>  <SCORE.SYSTEM.SOLV>
0

>  <SCORE.SYSTEM.norm>
0

>  <SCORE.heavy>
13

>  <SCORE.norm>
-1.06674

>  <RMSD>
5.628

$$$$
ligand
 OpenBabel11021811473D
libRbt.so/2013.1/901 2013/11/27
 13 12  0  0  0  0  0  0  0  0999 V2000
   32.2054   33.0993   47.0733 O   0  0  0  0  0  0  0  0  0  0  0  0
   34.0096   32.1932   49.1012 O   0  0  0  0  0  0  0  0  0  0  0  0
   33.5653   32.2823   42.9921 P   0  0  1  0  0  0  0  0  0  0  0  0
   34.6666   31.2783   43.1928 O   0  5  0  0  0  0  0  0  0  0  0  0
   32.9148   32.6759   41.7614 O   0  0  0  0  0  0  0  0  0  0  0  0
   32.7490   32.2201   44.3824 O   0  0  0  0  0  0  0  0  0  0  0  0
   36.7153   31.6376   48.3523 O   0  0  0  0  0  0  0  0  0  0  0  0
   31.7390   33.1964   44.7177 C   0  0  0  0  0  0  0  0  0  0  0  0
   32.8780   33.0192   49.4375 C   0  0  0  0  0  0  0  0  0  0  0  0
   36.2200   31.3202   49.6651 C   0  0  0  0  0  0  0  0  0  0  0  0
   31.1615   32.9177   46.1133 C   0  0  0  0  0  0  0  0  0  0  0  0
   31.7418   32.8175   48.4080 C   0  0  0  0  0  0  0  0  0  0  0  0
   35.0839   32.2957   50.0523 C   0  0  0  0  0  0  0  0  0  0  0  0
  1 12  1  0  0  0  0
  1 11  1  0  0  0  0
  2 13  1  0  0  0  0
  2  9  1  0  0  0  0
  3  4  1  6  0  0  0
  3  5  2  0  0  0  0
  3  6  1  0  0  0  0
  6  8  1  0  0  0  0
  7 10  1  0  0  0  0
  8 11  1  0  0  0  0
  9 12  1  0  0  0  0
 10 13  1  0  0  0  0
M  CHG  1   4  -1
M  END
>  <CHROM.1>
-179.91396040,176.68847009,168.94699923,-178.20731062,64.80410743,-177.71509629
-56.82474919,59.69765694,-178.42765994,33.53634745,32.36205164,46.22022328
1.31429822,-0.34556504,1.51289518

>  <Name>
ligand

>  <RI>
0

>  <Rbt.Current_Directory>
/home/itssahil/PROJECTS/Mol_Feturizer/New_Systems/rnas/3GS8

>  <Rbt.Executable>
rbdock ($Id: //depot/dev/client3/rdock/2013.1/src/exe/rbdock.cxx#4 $)

>  <Rbt.Library>
libRbt.so (2013.1, Build901 2013/11/27)

>  <Rbt.Parameter_File>
/export/apps/rDock/src/rDock_2013.1_src/data/scripts/dock_solv.prm

>  <Rbt.Receptor>
prm/pocket_docking_5.prm

>  <SCORE>
-13.0204

>  <SCORE.INTER>
3.33261

>  <SCORE.INTER.CONST>
1

>  <SCORE.INTER.POLAR>
0

>  <SCORE.INTER.ROT>
9

>  <SCORE.INTER.SOLV>
11.3825

>  <SCORE.INTER.VDW>
-11.1724

>  <SCORE.INTER.norm>
0.256355

>  <SCORE.INTRA>
-16.353

>  <SCORE.INTRA.DIHEDRAL>
-31.4223

>  <SCORE.INTRA.DIHEDRAL.0>
31.9578

>  <SCORE.INTRA.POLAR>
0

>  <SCORE.INTRA.POLAR.0>
0

>  <SCORE.INTRA.REPUL>
0

>  <SCORE.INTRA.REPUL.0>
0

>  <SCORE.INTRA.SOLV>
-1.44345

>  <SCORE.INTRA.SOLV.lig_0>
-48.4032

>  <SCORE.INTRA.VDW>
0.0798802

>  <SCORE.INTRA.VDW.0>
-1.65238

>  <SCORE.INTRA.norm>
-1.25792

>  <SCORE.RESTR>
0

>  <SCORE.RESTR.CAVITY>
0

>  <SCORE.RESTR.norm>
0

>  <SCORE.SYSTEM>
0

>  <SCORE.SYSTEM.CONST>
0

>  <SCORE.SYSTEM.DIHEDRAL>
0

>  <SCORE.SYSTEM.SOLV>
0

>  <SCORE.SYSTEM.norm>
0

>  <SCORE.heavy>
13

>  <SCORE.norm>
-1.00157

>  <RMSD>
5.639

$$$$
ligand
 OpenBabel11021811473D
libRbt.so/2013.1/901 2013/11/27
 13 12  0  0  0  0  0  0  0  0999 V2000
   30.6731   33.5632   46.8856 O   0  0  0  0  0  0  0  0  0  0  0  0
   33.2861   33.0517   45.5391 O   0  0  0  0  0  0  0  0  0  0  0  0
   30.8773   35.2806   50.8510 P   0  0  1  0  0  0  0  0  0  0  0  0
   31.0649   36.6055   50.1652 O   0  5  0  0  0  0  0  0  0  0  0  0
   30.2797   35.0068   52.1397 O   0  0  0  0  0  0  0  0  0  0  0  0
   30.7177   34.2466   49.6227 O   0  0  0  0  0  0  0  0  0  0  0  0
   34.9020   32.6250   47.8917 O   0  0  0  0  0  0  0  0  0  0  0  0
   29.4767   34.1110   48.8967 C   0  0  0  0  0  0  0  0  0  0  0  0
   32.0167   33.1581   44.8660 C   0  0  0  0  0  0  0  0  0  0  0  0
   34.8646   33.8884   47.2048 C   0  0  0  0  0  0  0  0  0  0  0  0
   29.6307   33.1023   47.7488 C   0  0  0  0  0  0  0  0  0  0  0  0
   30.8785   32.6566   45.7850 C   0  0  0  0  0  0  0  0  0  0  0  0
   33.4891   34.0802   46.5240 C   0  0  0  0  0  0  0  0  0  0  0  0
  1 12  1  0  0  0  0
  1 11  1  0  0  0  0
  2 13  1  0  0  0  0
  2  9  1  0  0  0  0
  3  4  1  6  0  0  0
  3  5  2  0  0  0  0
  3  6  1  0  0  0  0
  6  8  1  0  0  0  0
  7 10  1  0  0  0  0
  8 11  1  0  0  0  0
  9 12  1  0  0  0  0
 10 13  1  0  0  0  0
M  CHG  1   4  -1
M  END
>  <CHROM.1>
-179.46438050,179.57400858,-78.79053213,177.63588135,-58.61989187,-76.12630194
69.44433271,-62.15486566,179.66366095,31.64451571,34.07160294,48.27648575
1.10877338,-0.02354427,-1.99535961

>  <Name>
ligand

>  <RI>
0

>  <Rbt.Current_Directory>
/home/itssahil/PROJECTS/Mol_Feturizer/New_Systems/rnas/3GS8

>  <Rbt.Executable>
rbdock ($Id: //depot/dev/client3/rdock/2013.1/src/exe/rbdock.cxx#4 $)

>  <Rbt.Library>
libRbt.so (2013.1, Build901 2013/11/27)

>  <Rbt.Parameter_File>
/export/apps/rDock/src/rDock_2013.1_src/data/scripts/dock_solv.prm

>  <Rbt.Receptor>
prm/pocket_docking_3.prm

>  <SCORE>
-6.95396

>  <SCORE.INTER>
7.92291

>  <SCORE.INTER.CONST>
1

>  <SCORE.INTER.POLAR>
0

>  <SCORE.INTER.ROT>
9

>  <SCORE.INTER.SOLV>
5.19388

>  <SCORE.INTER.VDW>
-6.04936

>  <SCORE.INTER.norm>
0.609455

>  <SCORE.INTRA>
-14.8769

>  <SCORE.INTRA.DIHEDRAL>
-30.0782

>  <SCORE.INTRA.DIHEDRAL.0>
31.9578

>  <SCORE.INTRA.POLAR>
0

>  <SCORE.INTRA.POLAR.0>
0

>  <SCORE.INTRA.REPUL>
0

>  <SCORE.INTRA.REPUL.0>
0

>  <SCORE.INTRA.SOLV>
-0.98187

>  <SCORE.INTRA.SOLV.lig_0>
-48.4032

>  <SCORE.INTRA.VDW>
0.653173

>  <SCORE.INTRA.VDW.0>
-1.65238

>  <SCORE.INTRA.norm>
-1.14437

>  <SCORE.RESTR>
0

>  <SCORE.RESTR.CAVITY>
0

>  <SCORE.RESTR.norm>
0

>  <SCORE.SYSTEM>
0

>  <SCORE.SYSTEM.CONST>
0

>  <SCORE.SYSTEM.DIHEDRAL>
0

>  <SCORE.SYSTEM.SOLV>
0

>  <SCORE.SYSTEM.norm>
0

>  <SCORE.heavy>
13

>  <SCORE.norm>
-0.53492

>  <RMSD>
5.647

$$$$
ligand
 OpenBabel11021811473D
libRbt.so/2013.1/901 2013/11/27
 13 12  0  0  0  0  0  0  0  0999 V2000
   32.3135   33.1666   46.9638 O   0  0  0  0  0  0  0  0  0  0  0  0
   34.0834   32.2677   49.0671 O   0  0  0  0  0  0  0  0  0  0  0  0
   33.5054   31.9884   42.9103 P   0  0  1  0  0  0  0  0  0  0  0  0
   34.6717   31.0851   43.2013 O   0  5  0  0  0  0  0  0  0  0  0  0
   32.7829   32.1596   41.6687 O   0  0  0  0  0  0  0  0  0  0  0  0
   32.7514   32.0905   44.3331 O   0  0  0  0  0  0  0  0  0  0  0  0
   36.7556   31.5265   48.3424 O   0  0  0  0  0  0  0  0  0  0  0  0
   31.7971   33.1367   44.6168 C   0  0  0  0  0  0  0  0  0  0  0  0
   33.0325   33.2217   49.3150 C   0  0  0  0  0  0  0  0  0  0  0  0
   36.2490   31.3136   49.6719 C   0  0  0  0  0  0  0  0  0  0  0  0
   31.2380   32.9855   46.0392 C   0  0  0  0  0  0  0  0  0  0  0  0
   31.8658   33.0043   48.3235 C   0  0  0  0  0  0  0  0  0  0  0  0
   35.1706   32.3718   50.0031 C   0  0  0  0  0  0  0  0  0  0  0  0
  1 12  1  0  0  0  0
  1 11  1  0  0  0  0
  2 13  1  0  0  0  0
  2  9  1  0  0  0  0
  3  4  1  6  0  0  0
  3  5  2  0  0  0  0
  3  6  1  0  0  0  0
  6  8  1  0  0  0  0
  7 10  1  0  0  0  0
  8 11  1  0  0  0  0
  9 12  1  0  0  0  0
 10 13  1  0  0  0  0
M  CHG  1   4  -1
M  END
>  <CHROM.1>
-179.21279938,179.77028736,162.51632712,179.88753275,64.12776952,-176.94822677
-60.07106078,60.14374199,-178.54795981,33.57008876,32.28871845,46.15826098
1.28477887,-0.39935012,1.43400299

>  <Name>
ligand

>  <RI>
0

>  <Rbt.Current_Directory>
/home/itssahil/PROJECTS/Mol_Feturizer/New_Systems/rnas/3GS8

>  <Rbt.Executable>
rbdock ($Id: //depot/dev/client3/rdock/2013.1/src/exe/rbdock.cxx#4 $)

>  <Rbt.Library>
libRbt.so (2013.1, Build901 2013/11/27)

>  <Rbt.Parameter_File>
/export/apps/rDock/src/rDock_2013.1_src/data/scripts/dock_solv.prm

>  <Rbt.Receptor>
prm/pocket_docking_5.prm

>  <SCORE>
-13.0217

>  <SCORE.INTER>
3.4221

>  <SCORE.INTER.CONST>
1

>  <SCORE.INTER.POLAR>
0

>  <SCORE.INTER.ROT>
9

>  <SCORE.INTER.SOLV>
13.6119

>  <SCORE.INTER.VDW>
-11.8559

>  <SCORE.INTER.norm>
0.263238

>  <SCORE.INTRA>
-16.4438

>  <SCORE.INTRA.DIHEDRAL>
-31.5519

>  <SCORE.INTRA.DIHEDRAL.0>
31.9578

>  <SCORE.INTRA.POLAR>
0

>  <SCORE.INTRA.POLAR.0>
0

>  <SCORE.INTRA.REPUL>
0

>  <SCORE.INTRA.REPUL.0>
0

>  <SCORE.INTRA.SOLV>
-1.47257

>  <SCORE.INTRA.SOLV.lig_0>
-48.4032

>  <SCORE.INTRA.VDW>
0.0684172

>  <SCORE.INTRA.VDW.0>
-1.65238

>  <SCORE.INTRA.norm>
-1.26491

>  <SCORE.RESTR>
0

>  <SCORE.RESTR.CAVITY>
0

>  <SCORE.RESTR.norm>
0

>  <SCORE.SYSTEM>
0

>  <SCORE.SYSTEM.CONST>
0

>  <SCORE.SYSTEM.DIHEDRAL>
0

>  <SCORE.SYSTEM.SOLV>
0

>  <SCORE.SYSTEM.norm>
0

>  <SCORE.heavy>
13

>  <SCORE.norm>
-1.00167

>  <RMSD>
5.662

$$$$
ligand
 OpenBabel11021811473D
libRbt.so/2013.1/901 2013/11/27
 13 12  0  0  0  0  0  0  0  0999 V2000
   34.2911   31.4401   50.7142 O   0  0  0  0  0  0  0  0  0  0  0  0
   31.5300   31.7787   50.8140 O   0  0  0  0  0  0  0  0  0  0  0  0
   38.4870   30.3644   48.1198 P   0  0  1  0  0  0  0  0  0  0  0  0
   38.2968   31.3815   47.0288 O   0  5  0  0  0  0  0  0  0  0  0  0
   39.6090   29.4792   48.3442 O   0  0  0  0  0  0  0  0  0  0  0  0
   37.6575   30.9869   49.3558 O   0  0  0  0  0  0  0  0  0  0  0  0
   29.5556   32.9458   49.1064 O   0  0  0  0  0  0  0  0  0  0  0  0
   36.2207   31.1272   49.3162 C   0  0  0  0  0  0  0  0  0  0  0  0
   32.2361   31.5948   52.0564 C   0  0  0  0  0  0  0  0  0  0  0  0
   29.4787   31.5658   49.5054 C   0  0  0  0  0  0  0  0  0  0  0  0
   35.6969   31.6913   50.6451 C   0  0  0  0  0  0  0  0  0  0  0  0
   33.7150   32.0195   51.9008 C   0  0  0  0  0  0  0  0  0  0  0  0
   30.1511   31.3755   50.8852 C   0  0  0  0  0  0  0  0  0  0  0  0
  1 12  1  0  0  0  0
  1 11  1  0  0  0  0
  2 13  1  0  0  0  0
  2  9  1  0  0  0  0
  3  4  1  1  0  0  0
  3  5  2  0  0  0  0
  3  6  1  0  0  0  0
  6  8  1  0  0  0  0
  7 10  1  0  0  0  0
  8 11  1  0  0  0  0
  9 12  1  0  0  0  0
 10 13  1  0  0  0  0
M  CHG  1   4  -1
M  END
>  <CHROM.1>
-172.94785705,-178.36370112,66.25570163,177.63743325,-162.90179167,178.83180174
-48.06628530,-59.44224317,-176.33712705,34.75223288,31.28341663,49.65908046
-2.87672028,0.18423013,-1.56357094

>  <Name>
ligand

>  <RI>
0

>  <Rbt.Current_Directory>
/home/itssahil/PROJECTS/Mol_Feturizer/New_Systems/rnas/3GS8

>  <Rbt.Executable>
rbdock ($Id: //depot/dev/client3/rdock/2013.1/src/exe/rbdock.cxx#4 $)

>  <Rbt.Library>
libRbt.so (2013.1, Build901 2013/11/27)

>  <Rbt.Parameter_File>
/export/apps/rDock/src/rDock_2013.1_src/data/scripts/dock_solv.prm

>  <Rbt.Receptor>
prm/pocket_docking_6.prm

>  <SCORE>
-13.9438

>  <SCORE.INTER>
1.16585

>  <SCORE.INTER.CONST>
1

>  <SCORE.INTER.POLAR>
0

>  <SCORE.INTER.ROT>
9

>  <SCORE.INTER.SOLV>
8.89337

>  <SCORE.INTER.VDW>
-11.7872

>  <SCORE.INTER.norm>
0.089681

>  <SCORE.INTRA>
-15.1097

>  <SCORE.INTRA.DIHEDRAL>
-29.4363

>  <SCORE.INTRA.DIHEDRAL.0>
31.9578

>  <SCORE.INTRA.POLAR>
0

>  <SCORE.INTRA.POLAR.0>
0

>  <SCORE.INTRA.REPUL>
0

>  <SCORE.INTRA.REPUL.0>
0

>  <SCORE.INTRA.SOLV>
-1.3931

>  <SCORE.INTRA.SOLV.lig_0>
-48.4032

>  <SCORE.INTRA.VDW>
0.305035

>  <SCORE.INTRA.VDW.0>
-1.65238

>  <SCORE.INTRA.norm>
-1.16228

>  <SCORE.RESTR>
0

>  <SCORE.RESTR.CAVITY>
0

>  <SCORE.RESTR.norm>
0

>  <SCORE.SYSTEM>
0

>  <SCORE.SYSTEM.CONST>
0

>  <SCORE.SYSTEM.DIHEDRAL>
0

>  <SCORE.SYSTEM.SOLV>
0

>  <SCORE.SYSTEM.norm>
0

>  <SCORE.heavy>
13

>  <SCORE.norm>
-1.0726

>  <RMSD>
5.667

$$$$
ligand
 OpenBabel11021811473D
libRbt.so/2013.1/901 2013/11/27
 13 12  0  0  0  0  0  0  0  0999 V2000
   34.1434   31.3831   50.6025 O   0  0  0  0  0  0  0  0  0  0  0  0
   31.3449   31.9186   50.3736 O   0  0  0  0  0  0  0  0  0  0  0  0
   38.7377   30.9737   48.4924 P   0  0  1  0  0  0  0  0  0  0  0  0
   39.1654   29.6016   48.9344 O   0  5  0  0  0  0  0  0  0  0  0  0
   38.6460   31.5025   47.1489 O   0  0  0  0  0  0  0  0  0  0  0  0
   37.6933   31.4233   49.6371 O   0  0  0  0  0  0  0  0  0  0  0  0
   28.0364   31.8983   48.7176 O   0  0  0  0  0  0  0  0  0  0  0  0
   36.2727   31.2006   49.5030 C   0  0  0  0  0  0  0  0  0  0  0  0
   31.8979   31.4146   51.6049 C   0  0  0  0  0  0  0  0  0  0  0  0
   29.4502   32.1307   48.8467 C   0  0  0  0  0  0  0  0  0  0  0  0
   35.5263   31.7192   50.7410 C   0  0  0  0  0  0  0  0  0  0  0  0
   33.3804   31.8340   51.7384 C   0  0  0  0  0  0  0  0  0  0  0  0
   29.9510   31.6025   50.2115 C   0  0  0  0  0  0  0  0  0  0  0  0
  1 12  1  0  0  0  0
  1 11  1  0  0  0  0
  2 13  1  0  0  0  0
  2  9  1  0  0  0  0
  3  4  1  6  0  0  0
  3  5  2  0  0  0  0
  3  6  1  0  0  0  0
  6  8  1  0  0  0  0
  7 10  1  0  0  0  0
  8 11  1  0  0  0  0
  9 12  1  0  0  0  0
 10 13  1  0  0  0  0
M  CHG  1   4  -1
M  END
>  <CHROM.1>
-177.68342393,-177.88647079,-93.12784609,179.65237248,-175.63731337,-177.90454894
-56.49228283,-176.10865086,179.62011932,34.57647198,31.38624994,49.60706491
-3.00169155,0.11312939,-1.56276363

>  <Name>
ligand

>  <RI>
0

>  <Rbt.Current_Directory>
/home/itssahil/PROJECTS/Mol_Feturizer/New_Systems/rnas/3GS8

>  <Rbt.Executable>
rbdock ($Id: //depot/dev/client3/rdock/2013.1/src/exe/rbdock.cxx#4 $)

>  <Rbt.Library>
libRbt.so (2013.1, Build901 2013/11/27)

>  <Rbt.Parameter_File>
/export/apps/rDock/src/rDock_2013.1_src/data/scripts/dock_solv.prm

>  <Rbt.Receptor>
prm/pocket_docking_8.prm

>  <SCORE>
-14.0144

>  <SCORE.INTER>
2.12659

>  <SCORE.INTER.CONST>
1

>  <SCORE.INTER.POLAR>
0

>  <SCORE.INTER.ROT>
9

>  <SCORE.INTER.SOLV>
7.37929

>  <SCORE.INTER.VDW>
-10.642

>  <SCORE.INTER.norm>
0.163584

>  <SCORE.INTRA>
-16.141

>  <SCORE.INTRA.DIHEDRAL>
-31.246

>  <SCORE.INTRA.DIHEDRAL.0>
31.9578

>  <SCORE.INTRA.POLAR>
0

>  <SCORE.INTRA.POLAR.0>
0

>  <SCORE.INTRA.REPUL>
0

>  <SCORE.INTRA.REPUL.0>
0

>  <SCORE.INTRA.SOLV>
-1.56294

>  <SCORE.INTRA.SOLV.lig_0>
-48.4032

>  <SCORE.INTRA.VDW>
0.263465

>  <SCORE.INTRA.VDW.0>
-1.65238

>  <SCORE.INTRA.norm>
-1.24162

>  <SCORE.RESTR>
0

>  <SCORE.RESTR.CAVITY>
0

>  <SCORE.RESTR.norm>
0

>  <SCORE.SYSTEM>
0

>  <SCORE.SYSTEM.CONST>
0

>  <SCORE.SYSTEM.DIHEDRAL>
0

>  <SCORE.SYSTEM.SOLV>
0

>  <SCORE.SYSTEM.norm>
0

>  <SCORE.heavy>
13

>  <SCORE.norm>
-1.07803

>  <RMSD>
5.677

$$$$
ligand
 OpenBabel11021811473D
libRbt.so/2013.1/901 2013/11/27
 13 12  0  0  0  0  0  0  0  0999 V2000
   30.3424   31.5559   49.7273 O   0  0  0  0  0  0  0  0  0  0  0  0
   32.9348   32.1603   50.6528 O   0  0  0  0  0  0  0  0  0  0  0  0
   29.5198   33.9622   46.2271 P   0  0  1  0  0  0  0  0  0  0  0  0
   29.1956   35.4221   46.3845 O   0  5  0  0  0  0  0  0  0  0  0  0
   30.3649   33.3257   45.2404 O   0  0  0  0  0  0  0  0  0  0  0  0
   29.4312   33.3979   47.7360 O   0  0  0  0  0  0  0  0  0  0  0  0
   34.5929   33.5299   52.5050 O   0  0  0  0  0  0  0  0  0  0  0  0
   28.7335   32.1736   48.0523 C   0  0  0  0  0  0  0  0  0  0  0  0
   32.1608   31.1536   51.3335 C   0  0  0  0  0  0  0  0  0  0  0  0
   34.8907   32.1774   52.1157 C   0  0  0  0  0  0  0  0  0  0  0  0
   28.9475   31.7960   49.5255 C   0  0  0  0  0  0  0  0  0  0  0  0
   30.6495   31.4083   51.1271 C   0  0  0  0  0  0  0  0  0  0  0  0
   34.3499   31.9050   50.6925 C   0  0  0  0  0  0  0  0  0  0  0  0
  1 12  1  0  0  0  0
  1 11  1  0  0  0  0
  2 13  1  0  0  0  0
  2  9  1  0  0  0  0
  3  4  1  1  0  0  0
  3  5  2  0  0  0  0
  3  6  1  0  0  0  0
  6  8  1  0  0  0  0
  7 10  1  0  0  0  0
  8 11  1  0  0  0  0
  9 12  1  0  0  0  0
 10 13  1  0  0  0  0
M  CHG  1   4  -1
M  END
>  <CHROM.1>
-179.82447240,-72.79426594,134.03573881,173.46613177,-62.69756866,-174.11271780
52.05560412,-57.21813983,170.67441248,31.09609847,32.75592811,49.04801245
0.82830102,0.38747088,2.20578483

>  <Name>
ligand

>  <RI>
0

>  <Rbt.Current_Directory>
/home/itssahil/PROJECTS/Mol_Feturizer/New_Systems/rnas/3GS8

>  <Rbt.Executable>
rbdock ($Id: //depot/dev/client3/rdock/2013.1/src/exe/rbdock.cxx#4 $)

>  <Rbt.Library>
libRbt.so (2013.1, Build901 2013/11/27)

>  <Rbt.Parameter_File>
/export/apps/rDock/src/rDock_2013.1_src/data/scripts/dock_solv.prm

>  <Rbt.Receptor>
prm/pocket_docking_6.prm

>  <SCORE>
-9.91644

>  <SCORE.INTER>
4.45815

>  <SCORE.INTER.CONST>
1

>  <SCORE.INTER.POLAR>
0

>  <SCORE.INTER.ROT>
9

>  <SCORE.INTER.SOLV>
8.69679

>  <SCORE.INTER.VDW>
-9.52683

>  <SCORE.INTER.norm>
0.342935

>  <SCORE.INTRA>
-14.3813

>  <SCORE.INTRA.DIHEDRAL>
-29.3039

>  <SCORE.INTRA.DIHEDRAL.0>
31.9578

>  <SCORE.INTRA.POLAR>
0

>  <SCORE.INTRA.POLAR.0>
0

>  <SCORE.INTRA.REPUL>
0

>  <SCORE.INTRA.REPUL.0>
0

>  <SCORE.INTRA.SOLV>
-1.33184

>  <SCORE.INTRA.SOLV.lig_0>
-48.4032

>  <SCORE.INTRA.VDW>
0.93653

>  <SCORE.INTRA.VDW.0>
-1.65238

>  <SCORE.INTRA.norm>
-1.10626

>  <SCORE.RESTR>
0.00672665

>  <SCORE.RESTR.CAVITY>
0.00672665

>  <SCORE.RESTR.norm>
0.000517434

>  <SCORE.SYSTEM>
0

>  <SCORE.SYSTEM.CONST>
0

>  <SCORE.SYSTEM.DIHEDRAL>
0

>  <SCORE.SYSTEM.SOLV>
0

>  <SCORE.SYSTEM.norm>
0

>  <SCORE.heavy>
13

>  <SCORE.norm>
-0.762803

>  <RMSD>
5.710

$$$$
ligand
 OpenBabel11021811473D
libRbt.so/2013.1/901 2013/11/27
 13 12  0  0  0  0  0  0  0  0999 V2000
   28.4812   34.2495   46.4178 O   0  0  0  0  0  0  0  0  0  0  0  0
   28.7559   32.6908   48.8582 O   0  0  0  0  0  0  0  0  0  0  0  0
   29.8573   38.3863   46.6403 P   0  0  1  0  0  0  0  0  0  0  0  0
   29.6062   38.9005   48.0309 O   0  5  0  0  0  0  0  0  0  0  0  0
   31.0323   38.5543   45.8134 O   0  0  0  0  0  0  0  0  0  0  0  0
   28.9867   37.0291   46.5840 O   0  0  0  0  0  0  0  0  0  0  0  0
   30.4937   33.7907   50.8553 O   0  0  0  0  0  0  0  0  0  0  0  0
   28.6554   36.3872   45.3334 C   0  0  0  0  0  0  0  0  0  0  0  0
   28.4955   32.0815   47.5788 C   0  0  0  0  0  0  0  0  0  0  0  0
   29.7593   32.5747   51.0821 C   0  0  0  0  0  0  0  0  0  0  0  0
   27.7667   35.1584   45.5766 C   0  0  0  0  0  0  0  0  0  0  0  0
   27.7127   33.0572   46.6695 C   0  0  0  0  0  0  0  0  0  0  0  0
   29.5155   31.8455   49.7401 C   0  0  0  0  0  0  0  0  0  0  0  0
  1 12  1  0  0  0  0
  1 11  1  0  0  0  0
  2 13  1  0  0  0  0
  2  9  1  0  0  0  0
  3  4  1  1  0  0  0
  3  5  2  0  0  0  0
  3  6  1  0  0  0  0
  6  8  1  0  0  0  0
  7 10  1  0  0  0  0
  8 11  1  0  0  0  0
  9 12  1  0  0  0  0
 10 13  1  0  0  0  0
M  CHG  1   4  -1
M  END
>  <CHROM.1>
179.94793054,179.59953454,163.64297774,-177.28604470,-59.49823032,-178.38483896
61.80619780,-60.19592045,-178.98429402,29.24092005,35.30099473,47.55720882
1.74001022,1.03024689,2.51219973

>  <Name>
ligand

>  <RI>
0

>  <Rbt.Current_Directory>
/home/itssahil/PROJECTS/Mol_Feturizer/New_Systems/rnas/3GS8

>  <Rbt.Executable>
rbdock ($Id: //depot/dev/client3/rdock/2013.1/src/exe/rbdock.cxx#4 $)

>  <Rbt.Library>
libRbt.so (2013.1, Build901 2013/11/27)

>  <Rbt.Parameter_File>
/export/apps/rDock/src/rDock_2013.1_src/data/scripts/dock_solv.prm

>  <Rbt.Receptor>
prm/pocket_docking_4.prm

>  <SCORE>
-8.78791

>  <SCORE.INTER>
7.66869

>  <SCORE.INTER.CONST>
1

>  <SCORE.INTER.POLAR>
0

>  <SCORE.INTER.ROT>
9

>  <SCORE.INTER.SOLV>
2.27071

>  <SCORE.INTER.VDW>
-5.24444

>  <SCORE.INTER.norm>
0.589899

>  <SCORE.INTRA>
-16.4566

>  <SCORE.INTRA.DIHEDRAL>
-31.608

>  <SCORE.INTRA.DIHEDRAL.0>
31.9578

>  <SCORE.INTRA.POLAR>
0

>  <SCORE.INTRA.POLAR.0>
0

>  <SCORE.INTRA.REPUL>
0

>  <SCORE.INTRA.REPUL.0>
0

>  <SCORE.INTRA.SOLV>
-1.45813

>  <SCORE.INTRA.SOLV.lig_0>
-48.4032

>  <SCORE.INTRA.VDW>
0.0764835

>  <SCORE.INTRA.VDW.0>
-1.65238

>  <SCORE.INTRA.norm>
-1.26589

>  <SCORE.RESTR>
0

>  <SCORE.RESTR.CAVITY>
0

>  <SCORE.RESTR.norm>
0

>  <SCORE.SYSTEM>
0

>  <SCORE.SYSTEM.CONST>
0

>  <SCORE.SYSTEM.DIHEDRAL>
0

>  <SCORE.SYSTEM.SOLV>
0

>  <SCORE.SYSTEM.norm>
0

>  <SCORE.heavy>
13

>  <SCORE.norm>
-0.675993

>  <RMSD>
5.711

$$$$
ligand
 OpenBabel11021811473D
libRbt.so/2013.1/901 2013/11/27
 13 12  0  0  0  0  0  0  0  0999 V2000
   30.6229   31.9984   49.9013 O   0  0  0  0  0  0  0  0  0  0  0  0
   33.2920   31.4202   50.7110 O   0  0  0  0  0  0  0  0  0  0  0  0
   30.6231   33.1925   45.7795 P   0  0  1  0  0  0  0  0  0  0  0  0
   30.1870   34.5692   46.1983 O   0  5  0  0  0  0  0  0  0  0  0  0
   31.5872   32.8189   44.7677 O   0  0  0  0  0  0  0  0  0  0  0  0
   30.4520   32.3231   47.1278 O   0  0  0  0  0  0  0  0  0  0  0  0
   35.3106   32.3886   48.9681 O   0  0  0  0  0  0  0  0  0  0  0  0
   29.2752   32.4278   47.9583 C   0  0  0  0  0  0  0  0  0  0  0  0
   32.2451   31.5442   51.6931 C   0  0  0  0  0  0  0  0  0  0  0  0
   35.6548   31.5940   50.1168 C   0  0  0  0  0  0  0  0  0  0  0  0
   29.4336   31.5783   49.2280 C   0  0  0  0  0  0  0  0  0  0  0  0
   30.8767   31.1894   51.0661 C   0  0  0  0  0  0  0  0  0  0  0  0
   34.5890   31.7735   51.2232 C   0  0  0  0  0  0  0  0  0  0  0  0
  1 12  1  0  0  0  0
  1 11  1  0  0  0  0
  2 13  1  0  0  0  0
  2  9  1  0  0  0  0
  3  4  1  1  0  0  0
  3  5  2  0  0  0  0
  3  6  1  0  0  0  0
  6  8  1  0  0  0  0
  7 10  1  0  0  0  0
  8 11  1  0  0  0  0
  9 12  1  0  0  0  0
 10 13  1  0  0  0  0
M  CHG  1   4  -1
M  END
>  <CHROM.1>
173.50718968,179.17701639,45.02291832,-175.33720313,56.14129842,178.37795670
-55.41176429,57.11956376,-176.69179824,31.76139985,32.31582132,48.53218371
0.95425891,0.01911449,1.90642611

>  <Name>
ligand

>  <RI>
0

>  <Rbt.Current_Directory>
/home/itssahil/PROJECTS/Mol_Feturizer/New_Systems/rnas/3GS8

>  <Rbt.Executable>
rbdock ($Id: //depot/dev/client3/rdock/2013.1/src/exe/rbdock.cxx#4 $)

>  <Rbt.Library>
libRbt.so (2013.1, Build901 2013/11/27)

>  <Rbt.Parameter_File>
/export/apps/rDock/src/rDock_2013.1_src/data/scripts/dock_solv.prm

>  <Rbt.Receptor>
prm/pocket_docking_5.prm

>  <SCORE>
-13.5729

>  <SCORE.INTER>
2.19754

>  <SCORE.INTER.CONST>
1

>  <SCORE.INTER.POLAR>
0

>  <SCORE.INTER.ROT>
9

>  <SCORE.INTER.SOLV>
13.2403

>  <SCORE.INTER.VDW>
-12.5484

>  <SCORE.INTER.norm>
0.169042

>  <SCORE.INTRA>
-15.7721

>  <SCORE.INTRA.DIHEDRAL>
-31.1251

>  <SCORE.INTRA.DIHEDRAL.0>
31.9578

>  <SCORE.INTRA.POLAR>
0

>  <SCORE.INTRA.POLAR.0>
0

>  <SCORE.INTRA.REPUL>
0

>  <SCORE.INTRA.REPUL.0>
0

>  <SCORE.INTRA.SOLV>
-1.09601

>  <SCORE.INTRA.SOLV.lig_0>
-48.4032

>  <SCORE.INTRA.VDW>
0.338501

>  <SCORE.INTRA.VDW.0>
-1.65238

>  <SCORE.INTRA.norm>
-1.21323

>  <SCORE.RESTR>
0.00163319

>  <SCORE.RESTR.CAVITY>
0.00163319

>  <SCORE.RESTR.norm>
0.00012563

>  <SCORE.SYSTEM>
0

>  <SCORE.SYSTEM.CONST>
0

>  <SCORE.SYSTEM.DIHEDRAL>
0

>  <SCORE.SYSTEM.SOLV>
0

>  <SCORE.SYSTEM.norm>
0

>  <SCORE.heavy>
13

>  <SCORE.norm>
-1.04407

>  <RMSD>
5.713

$$$$
ligand
 OpenBabel11021811473D
libRbt.so/2013.1/901 2013/11/27
 13 12  0  0  0  0  0  0  0  0999 V2000
   34.9713   31.7883   44.5521 O   0  0  0  0  0  0  0  0  0  0  0  0
   32.1700   32.3606   45.0082 O   0  0  0  0  0  0  0  0  0  0  0  0
   37.3735   30.9241   48.1337 P   0  0  1  0  0  0  0  0  0  0  0  0
   38.5252   29.9727   47.9621 O   0  5  0  0  0  0  0  0  0  0  0  0
   37.3226   32.1533   48.8949 O   0  0  0  0  0  0  0  0  0  0  0  0
   36.5519   30.7644   46.7543 O   0  0  0  0  0  0  0  0  0  0  0  0
   29.2920   33.7920   46.8425 O   0  0  0  0  0  0  0  0  0  0  0  0
   37.1016   31.1845   45.4866 C   0  0  0  0  0  0  0  0  0  0  0  0
   32.7887   32.5604   43.7224 C   0  0  0  0  0  0  0  0  0  0  0  0
   30.4175   32.9259   46.6129 C   0  0  0  0  0  0  0  0  0  0  0  0
   36.0975   30.9303   44.3526 C   0  0  0  0  0  0  0  0  0  0  0  0
   33.9701   31.5798   43.5373 C   0  0  0  0  0  0  0  0  0  0  0  0
   31.0576   33.2423   45.2408 C   0  0  0  0  0  0  0  0  0  0  0  0
  1 12  1  0  0  0  0
  1 11  1  0  0  0  0
  2 13  1  0  0  0  0
  2  9  1  0  0  0  0
  3  4  1  6  0  0  0
  3  5  2  0  0  0  0
  3  6  1  0  0  0  0
  6  8  1  0  0  0  0
  7 10  1  0  0  0  0
  8 11  1  0  0  0  0
  9 12  1  0  0  0  0
 10 13  1  0  0  0  0
M  CHG  1   4  -1
M  END
>  <CHROM.1>
-177.21818909,177.75370341,-66.54624433,-179.28102141,66.29553422,-179.80455003
-60.39746968,-179.17024218,-178.63391389,34.69060500,31.78170168,46.14901395
-2.89437121,-0.34726754,1.45110266

>  <Name>
ligand

>  <RI>
0

>  <Rbt.Current_Directory>
/home/itssahil/PROJECTS/Mol_Feturizer/New_Systems/rnas/3GS8

>  <Rbt.Executable>
rbdock ($Id: //depot/dev/client3/rdock/2013.1/src/exe/rbdock.cxx#4 $)

>  <Rbt.Library>
libRbt.so (2013.1, Build901 2013/11/27)

>  <Rbt.Parameter_File>
/export/apps/rDock/src/rDock_2013.1_src/data/scripts/dock_solv.prm

>  <Rbt.Receptor>
prm/pocket_docking_5.prm

>  <SCORE>
-15.1183

>  <SCORE.INTER>
1.08278

>  <SCORE.INTER.CONST>
1

>  <SCORE.INTER.POLAR>
0

>  <SCORE.INTER.ROT>
9

>  <SCORE.INTER.SOLV>
12.9799

>  <SCORE.INTER.VDW>
-13.2048

>  <SCORE.INTER.norm>
0.083291

>  <SCORE.INTRA>
-16.201

>  <SCORE.INTRA.DIHEDRAL>
-31.3806

>  <SCORE.INTRA.DIHEDRAL.0>
31.9578

>  <SCORE.INTRA.POLAR>
0

>  <SCORE.INTRA.POLAR.0>
0

>  <SCORE.INTRA.REPUL>
0

>  <SCORE.INTRA.REPUL.0>
0

>  <SCORE.INTRA.SOLV>
-1.41059

>  <SCORE.INTRA.SOLV.lig_0>
-48.4032

>  <SCORE.INTRA.VDW>
0.194527

>  <SCORE.INTRA.VDW.0>
-1.65238

>  <SCORE.INTRA.norm>
-1.24623

>  <SCORE.RESTR>
0

>  <SCORE.RESTR.CAVITY>
0

>  <SCORE.RESTR.norm>
0

>  <SCORE.SYSTEM>
0

>  <SCORE.SYSTEM.CONST>
0

>  <SCORE.SYSTEM.DIHEDRAL>
0

>  <SCORE.SYSTEM.SOLV>
0

>  <SCORE.SYSTEM.norm>
0

>  <SCORE.heavy>
13

>  <SCORE.norm>
-1.16294

>  <RMSD>
5.720

$$$$
ligand
 OpenBabel11021811473D
libRbt.so/2013.1/901 2013/11/27
 13 12  0  0  0  0  0  0  0  0999 V2000
   29.3780   32.9621   48.3226 O   0  0  0  0  0  0  0  0  0  0  0  0
   30.7669   32.6629   50.8413 O   0  0  0  0  0  0  0  0  0  0  0  0
   28.5781   36.4265   45.8275 P   0  0  1  0  0  0  0  0  0  0  0  0
   29.7304   37.1104   46.5098 O   0  5  0  0  0  0  0  0  0  0  0  0
   28.0825   36.6175   44.4819 O   0  0  0  0  0  0  0  0  0  0  0  0
   28.5394   34.9749   46.5308 O   0  0  0  0  0  0  0  0  0  0  0  0
   33.3352   32.9795   52.0744 O   0  0  0  0  0  0  0  0  0  0  0  0
   29.4080   33.9006   46.1103 C   0  0  0  0  0  0  0  0  0  0  0  0
   29.4250   32.1738   50.6517 C   0  0  0  0  0  0  0  0  0  0  0  0
   33.1732   32.2436   50.8489 C   0  0  0  0  0  0  0  0  0  0  0  0
   29.1508   32.6395   46.9483 C   0  0  0  0  0  0  0  0  0  0  0  0
   29.1916   31.8097   49.1669 C   0  0  0  0  0  0  0  0  0  0  0  0
   31.7583   31.6219   50.7880 C   0  0  0  0  0  0  0  0  0  0  0  0
  1 12  1  0  0  0  0
  1 11  1  0  0  0  0
  2 13  1  0  0  0  0
  2  9  1  0  0  0  0
  3  4  1  6  0  0  0
  3  5  2  0  0  0  0
  3  6  1  0  0  0  0
  6  8  1  0  0  0  0
  7 10  1  0  0  0  0
  8 11  1  0  0  0  0
  9 12  1  0  0  0  0
 10 13  1  0  0  0  0
M  CHG  1   4  -1
M  END
>  <CHROM.1>
-179.39677910,174.02400100,-82.23244736,-179.80579639,-58.70276277,-74.01404341
-60.03930204,60.16646998,-178.33410473,29.91867731,33.96809345,48.17170675
0.98391153,0.68037010,2.58991237

>  <Name>
ligand

>  <RI>
0

>  <Rbt.Current_Directory>
/home/itssahil/PROJECTS/Mol_Feturizer/New_Systems/rnas/3GS8

>  <Rbt.Executable>
rbdock ($Id: //depot/dev/client3/rdock/2013.1/src/exe/rbdock.cxx#4 $)

>  <Rbt.Library>
libRbt.so (2013.1, Build901 2013/11/27)

>  <Rbt.Parameter_File>
/export/apps/rDock/src/rDock_2013.1_src/data/scripts/dock_solv.prm

>  <Rbt.Receptor>
prm/pocket_docking_4.prm

>  <SCORE>
-8.09242

>  <SCORE.INTER>
6.97262

>  <SCORE.INTER.CONST>
1

>  <SCORE.INTER.POLAR>
0

>  <SCORE.INTER.ROT>
9

>  <SCORE.INTER.SOLV>
3.17279

>  <SCORE.INTER.VDW>
-6.00919

>  <SCORE.INTER.norm>
0.536355

>  <SCORE.INTRA>
-15.065

>  <SCORE.INTRA.DIHEDRAL>
-30.5302

>  <SCORE.INTRA.DIHEDRAL.0>
31.9578

>  <SCORE.INTRA.POLAR>
0

>  <SCORE.INTRA.POLAR.0>
0

>  <SCORE.INTRA.REPUL>
0

>  <SCORE.INTRA.REPUL.0>
0

>  <SCORE.INTRA.SOLV>
-1.0996

>  <SCORE.INTRA.SOLV.lig_0>
-48.4032

>  <SCORE.INTRA.VDW>
0.749844

>  <SCORE.INTRA.VDW.0>
-1.65238

>  <SCORE.INTRA.norm>
-1.15885

>  <SCORE.RESTR>
0

>  <SCORE.RESTR.CAVITY>
0

>  <SCORE.RESTR.norm>
0

>  <SCORE.SYSTEM>
0

>  <SCORE.SYSTEM.CONST>
0

>  <SCORE.SYSTEM.DIHEDRAL>
0

>  <SCORE.SYSTEM.SOLV>
0

>  <SCORE.SYSTEM.norm>
0

>  <SCORE.heavy>
13

>  <SCORE.norm>
-0.622494

>  <RMSD>
5.739

$$$$
ligand
 OpenBabel11021811473D
libRbt.so/2013.1/901 2013/11/27
 13 12  0  0  0  0  0  0  0  0999 V2000
   34.4958   31.4619   50.5253 O   0  0  0  0  0  0  0  0  0  0  0  0
   31.7227   32.0765   50.3409 O   0  0  0  0  0  0  0  0  0  0  0  0
   39.0208   30.6491   48.3892 P   0  0  1  0  0  0  0  0  0  0  0  0
   39.2457   29.2421   48.8697 O   0  5  0  0  0  0  0  0  0  0  0  0
   39.0337   31.1538   47.0334 O   0  0  0  0  0  0  0  0  0  0  0  0
   38.0219   31.2640   49.4970 O   0  0  0  0  0  0  0  0  0  0  0  0
   28.3957   32.0152   48.7211 O   0  0  0  0  0  0  0  0  0  0  0  0
   36.5883   31.1236   49.3927 C   0  0  0  0  0  0  0  0  0  0  0  0
   32.2832   31.6197   51.5872 C   0  0  0  0  0  0  0  0  0  0  0  0
   29.8054   32.2761   48.8410 C   0  0  0  0  0  0  0  0  0  0  0  0
   35.8956   31.7381   50.6179 C   0  0  0  0  0  0  0  0  0  0  0  0
   33.7846   31.9822   51.6650 C   0  0  0  0  0  0  0  0  0  0  0  0
   30.3173   31.7953   50.2190 C   0  0  0  0  0  0  0  0  0  0  0  0
  1 12  1  0  0  0  0
  1 11  1  0  0  0  0
  2 13  1  0  0  0  0
  2  9  1  0  0  0  0
  3  4  1  6  0  0  0
  3  5  2  0  0  0  0
  3  6  1  0  0  0  0
  6  8  1  0  0  0  0
  7 10  1  0  0  0  0
  8 11  1  0  0  0  0
  9 12  1  0  0  0  0
 10 13  1  0  0  0  0
M  CHG  1   4  -1
M  END
>  <CHROM.1>
-177.31575703,-178.25164361,-87.17585363,177.00196464,-174.64322253,-178.70423297
-55.16954314,-179.15910291,178.51693350,34.90679836,31.34176333,49.53813914
-2.97607994,0.15231281,-1.64738539

>  <Name>
ligand

>  <RI>
0

>  <Rbt.Current_Directory>
/home/itssahil/PROJECTS/Mol_Feturizer/New_Systems/rnas/3GS8

>  <Rbt.Executable>
rbdock ($Id: //depot/dev/client3/rdock/2013.1/src/exe/rbdock.cxx#4 $)

>  <Rbt.Library>
libRbt.so (2013.1, Build901 2013/11/27)

>  <Rbt.Parameter_File>
/export/apps/rDock/src/rDock_2013.1_src/data/scripts/dock_solv.prm

>  <Rbt.Receptor>
prm/pocket_docking_6.prm

>  <SCORE>
-13.7813

>  <SCORE.INTER>
2.36608

>  <SCORE.INTER.CONST>
1

>  <SCORE.INTER.POLAR>
0

>  <SCORE.INTER.ROT>
9

>  <SCORE.INTER.SOLV>
7.61653

>  <SCORE.INTER.VDW>
-10.5615

>  <SCORE.INTER.norm>
0.182006

>  <SCORE.INTRA>
-16.1474

>  <SCORE.INTRA.DIHEDRAL>
-31.2857

>  <SCORE.INTRA.DIHEDRAL.0>
31.9578

>  <SCORE.INTRA.POLAR>
0

>  <SCORE.INTRA.POLAR.0>
0

>  <SCORE.INTRA.REPUL>
0

>  <SCORE.INTRA.REPUL.0>
0

>  <SCORE.INTRA.SOLV>
-1.54465

>  <SCORE.INTRA.SOLV.lig_0>
-48.4032

>  <SCORE.INTRA.VDW>
0.267788

>  <SCORE.INTRA.VDW.0>
-1.65238

>  <SCORE.INTRA.norm>
-1.24211

>  <SCORE.RESTR>
0

>  <SCORE.RESTR.CAVITY>
0

>  <SCORE.RESTR.norm>
0

>  <SCORE.SYSTEM>
0

>  <SCORE.SYSTEM.CONST>
0

>  <SCORE.SYSTEM.DIHEDRAL>
0

>  <SCORE.SYSTEM.SOLV>
0

>  <SCORE.SYSTEM.norm>
0

>  <SCORE.heavy>
13

>  <SCORE.norm>
-1.0601

>  <RMSD>
5.769

$$$$
ligand
 OpenBabel11021811473D
libRbt.so/2013.1/901 2013/11/27
 13 12  0  0  0  0  0  0  0  0999 V2000
   36.5294   31.5596   48.1663 O   0  0  0  0  0  0  0  0  0  0  0  0
   34.3685   32.1133   50.0341 O   0  0  0  0  0  0  0  0  0  0  0  0
   35.3863   31.7383   43.9609 P   0  0  1  0  0  0  0  0  0  0  0  0
   35.2467   33.2201   44.1749 O   0  5  0  0  0  0  0  0  0  0  0  0
   35.7806   31.0317   42.7617 O   0  0  0  0  0  0  0  0  0  0  0  0
   35.7933   31.1893   45.4225 O   0  0  0  0  0  0  0  0  0  0  0  0
   31.8815   33.5186   49.6265 O   0  0  0  0  0  0  0  0  0  0  0  0
   37.1633   31.1805   45.8793 C   0  0  0  0  0  0  0  0  0  0  0  0
   35.7511   32.0885   50.4385 C   0  0  0  0  0  0  0  0  0  0  0  0
   32.6261   32.9444   48.5377 C   0  0  0  0  0  0  0  0  0  0  0  0
   37.2479   30.6577   47.3209 C   0  0  0  0  0  0  0  0  0  0  0  0
   36.5559   31.1219   49.5386 C   0  0  0  0  0  0  0  0  0  0  0  0
   34.1353   32.9340   48.8760 C   0  0  0  0  0  0  0  0  0  0  0  0
  1 12  1  0  0  0  0
  1 11  1  0  0  0  0
  2 13  1  0  0  0  0
  2  9  1  0  0  0  0
  3  4  1  6  0  0  0
  3  5  2  0  0  0  0
  3  6  1  0  0  0  0
  6  8  1  0  0  0  0
  7 10  1  0  0  0  0
  8 11  1  0  0  0  0
  9 12  1  0  0  0  0
 10 13  1  0  0  0  0
M  CHG  1   4  -1
M  END
>  <CHROM.1>
-178.81138341,-178.11734388,-84.98703495,177.79542932,-63.02662882,-79.09259237
61.88088406,62.12355090,179.43033459,35.25751690,31.93825874,46.98744988
-1.89427066,0.48491201,-1.57436534

>  <Name>
ligand

>  <RI>
0

>  <Rbt.Current_Directory>
/home/itssahil/PROJECTS/Mol_Feturizer/New_Systems/rnas/3GS8

>  <Rbt.Executable>
rbdock ($Id: //depot/dev/client3/rdock/2013.1/src/exe/rbdock.cxx#4 $)

>  <Rbt.Library>
libRbt.so (2013.1, Build901 2013/11/27)

>  <Rbt.Parameter_File>
/export/apps/rDock/src/rDock_2013.1_src/data/scripts/dock_solv.prm

>  <Rbt.Receptor>
prm/pocket_docking_8.prm

>  <SCORE>
-12.5145

>  <SCORE.INTER>
2.33829

>  <SCORE.INTER.CONST>
1

>  <SCORE.INTER.POLAR>
0

>  <SCORE.INTER.ROT>
9

>  <SCORE.INTER.SOLV>
6.91735

>  <SCORE.INTER.VDW>
-10.3469

>  <SCORE.INTER.norm>
0.179868

>  <SCORE.INTRA>
-14.8528

>  <SCORE.INTRA.DIHEDRAL>
-29.8575

>  <SCORE.INTRA.DIHEDRAL.0>
31.9578

>  <SCORE.INTRA.POLAR>
0

>  <SCORE.INTRA.POLAR.0>
0

>  <SCORE.INTRA.REPUL>
0

>  <SCORE.INTRA.REPUL.0>
0

>  <SCORE.INTRA.SOLV>
-1.01932

>  <SCORE.INTRA.SOLV.lig_0>
-48.4032

>  <SCORE.INTRA.VDW>
0.585599

>  <SCORE.INTRA.VDW.0>
-1.65238

>  <SCORE.INTRA.norm>
-1.14252

>  <SCORE.RESTR>
0

>  <SCORE.RESTR.CAVITY>
0

>  <SCORE.RESTR.norm>
0

>  <SCORE.SYSTEM>
0

>  <SCORE.SYSTEM.CONST>
0

>  <SCORE.SYSTEM.DIHEDRAL>
0

>  <SCORE.SYSTEM.SOLV>
0

>  <SCORE.SYSTEM.norm>
0

>  <SCORE.heavy>
13

>  <SCORE.norm>
-0.962656

>  <RMSD>
5.770

$$$$
ligand
 OpenBabel11021811473D
libRbt.so/2013.1/901 2013/11/27
 13 12  0  0  0  0  0  0  0  0999 V2000
   29.7783   35.3632   46.5929 O   0  0  0  0  0  0  0  0  0  0  0  0
   30.6058   32.7466   47.5051 O   0  0  0  0  0  0  0  0  0  0  0  0
   30.3211   38.6015   49.4741 P   0  0  1  0  0  0  0  0  0  0  0  0
   30.5245   37.9183   50.7981 O   0  5  0  0  0  0  0  0  0  0  0  0
   31.0390   39.7281   48.9190 O   0  0  0  0  0  0  0  0  0  0  0  0
   29.7688   37.4178   48.5270 O   0  0  0  0  0  0  0  0  0  0  0  0
   29.9956   33.1737   50.2863 O   0  0  0  0  0  0  0  0  0  0  0  0
   29.3608   37.6603   47.1631 C   0  0  0  0  0  0  0  0  0  0  0  0
   30.3715   33.0256   46.1111 C   0  0  0  0  0  0  0  0  0  0  0  0
   29.7957   31.9000   49.6482 C   0  0  0  0  0  0  0  0  0  0  0  0
   28.7782   36.3835   46.5392 C   0  0  0  0  0  0  0  0  0  0  0  0
   29.3234   34.1524   45.9583 C   0  0  0  0  0  0  0  0  0  0  0  0
   29.4902   32.1029   48.1456 C   0  0  0  0  0  0  0  0  0  0  0  0
  1 12  1  0  0  0  0
  1 11  1  0  0  0  0
  2 13  1  0  0  0  0
  2  9  1  0  0  0  0
  3  4  1  1  0  0  0
  3  5  2  0  0  0  0
  3  6  1  0  0  0  0
  6  8  1  0  0  0  0
  7 10  1  0  0  0  0
  8 11  1  0  0  0  0
  9 12  1  0  0  0  0
 10 13  1  0  0  0  0
M  CHG  1   4  -1
M  END
>  <CHROM.1>
-175.93768543,-177.34334759,176.22110804,-175.54409163,-58.64635877,70.27500905
60.04413284,61.48206912,-176.94606398,29.98550022,35.69213166,48.27236779
1.98590991,1.38904482,2.95692160

>  <Name>
ligand

>  <RI>
0

>  <Rbt.Current_Directory>
/home/itssahil/PROJECTS/Mol_Feturizer/New_Systems/rnas/3GS8

>  <Rbt.Executable>
rbdock ($Id: //depot/dev/client3/rdock/2013.1/src/exe/rbdock.cxx#4 $)

>  <Rbt.Library>
libRbt.so (2013.1, Build901 2013/11/27)

>  <Rbt.Parameter_File>
/export/apps/rDock/src/rDock_2013.1_src/data/scripts/dock_solv.prm

>  <Rbt.Receptor>
prm/pocket_docking_3.prm

>  <SCORE>
-7.48194

>  <SCORE.INTER>
7.67644

>  <SCORE.INTER.CONST>
1

>  <SCORE.INTER.POLAR>
0

>  <SCORE.INTER.ROT>
9

>  <SCORE.INTER.SOLV>
4.58141

>  <SCORE.INTER.VDW>
-6.00951

>  <SCORE.INTER.norm>
0.590496

>  <SCORE.INTRA>
-15.1584

>  <SCORE.INTRA.DIHEDRAL>
-30.782

>  <SCORE.INTRA.DIHEDRAL.0>
31.9578

>  <SCORE.INTRA.POLAR>
0

>  <SCORE.INTRA.POLAR.0>
0

>  <SCORE.INTRA.REPUL>
0

>  <SCORE.INTRA.REPUL.0>
0

>  <SCORE.INTRA.SOLV>
-1.32022

>  <SCORE.INTRA.SOLV.lig_0>
-48.4032

>  <SCORE.INTRA.VDW>
0.892726

>  <SCORE.INTRA.VDW.0>
-1.65238

>  <SCORE.INTRA.norm>
-1.16603

>  <SCORE.RESTR>
1.92918e-05

>  <SCORE.RESTR.CAVITY>
1.92918e-05

>  <SCORE.RESTR.norm>
1.48398e-06

>  <SCORE.SYSTEM>
0

>  <SCORE.SYSTEM.CONST>
0

>  <SCORE.SYSTEM.DIHEDRAL>
0

>  <SCORE.SYSTEM.SOLV>
0

>  <SCORE.SYSTEM.norm>
0

>  <SCORE.heavy>
13

>  <SCORE.norm>
-0.575534

>  <RMSD>
5.773

$$$$
ligand
 OpenBabel11021811473D
libRbt.so/2013.1/901 2013/11/27
 13 12  0  0  0  0  0  0  0  0999 V2000
   35.2631   31.3841   44.8814 O   0  0  0  0  0  0  0  0  0  0  0  0
   32.7879   32.8375   44.9629 O   0  0  0  0  0  0  0  0  0  0  0  0
   37.2362   31.3260   48.7415 P   0  0  1  0  0  0  0  0  0  0  0  0
   38.7274   31.1540   48.6525 O   0  5  0  0  0  0  0  0  0  0  0  0
   36.4472   31.8091   49.8536 O   0  0  0  0  0  0  0  0  0  0  0  0
   36.8077   31.6402   47.2180 O   0  0  0  0  0  0  0  0  0  0  0  0
   29.6605   33.8547   46.6605 O   0  0  0  0  0  0  0  0  0  0  0  0
   37.2435   30.8129   46.1174 C   0  0  0  0  0  0  0  0  0  0  0  0
   33.1388   32.0288   43.8233 C   0  0  0  0  0  0  0  0  0  0  0  0
   31.0790   33.7761   46.4342 C   0  0  0  0  0  0  0  0  0  0  0  0
   36.6894   31.3474   44.7885 C   0  0  0  0  0  0  0  0  0  0  0  0
   34.6762   31.9337   43.6860 C   0  0  0  0  0  0  0  0  0  0  0  0
   31.3681   32.9199   45.1790 C   0  0  0  0  0  0  0  0  0  0  0  0
  1 12  1  0  0  0  0
  1 11  1  0  0  0  0
  2 13  1  0  0  0  0
  2  9  1  0  0  0  0
  3  4  1  1  0  0  0
  3  5  2  0  0  0  0
  3  6  1  0  0  0  0
  6  8  1  0  0  0  0
  7 10  1  0  0  0  0
  8 11  1  0  0  0  0
  9 12  1  0  0  0  0
 10 13  1  0  0  0  0
M  CHG  1   4  -1
M  END
>  <CHROM.1>
-177.39761672,178.74121406,50.00650285,-179.87423652,-57.71119738,-177.56824316
57.89784406,-179.61853669,177.43291106,34.91919272,32.00700329,46.47748107
-2.76843959,-0.35025224,1.43461599

>  <Name>
ligand

>  <RI>
0

>  <Rbt.Current_Directory>
/home/itssahil/PROJECTS/Mol_Feturizer/New_Systems/rnas/3GS8

>  <Rbt.Executable>
rbdock ($Id: //depot/dev/client3/rdock/2013.1/src/exe/rbdock.cxx#4 $)

>  <Rbt.Library>
libRbt.so (2013.1, Build901 2013/11/27)

>  <Rbt.Parameter_File>
/export/apps/rDock/src/rDock_2013.1_src/data/scripts/dock_solv.prm

>  <Rbt.Receptor>
prm/pocket_docking_5.prm

>  <SCORE>
-13.0496

>  <SCORE.INTER>
3.05481

>  <SCORE.INTER.CONST>
1

>  <SCORE.INTER.POLAR>
0

>  <SCORE.INTER.ROT>
9

>  <SCORE.INTER.SOLV>
10.8975

>  <SCORE.INTER.VDW>
-11.196

>  <SCORE.INTER.norm>
0.234985

>  <SCORE.INTRA>
-16.1044

>  <SCORE.INTRA.DIHEDRAL>
-31.5065

>  <SCORE.INTRA.DIHEDRAL.0>
31.9578

>  <SCORE.INTRA.POLAR>
0

>  <SCORE.INTRA.POLAR.0>
0

>  <SCORE.INTRA.REPUL>
0

>  <SCORE.INTRA.REPUL.0>
0

>  <SCORE.INTRA.SOLV>
-1.43776

>  <SCORE.INTRA.SOLV.lig_0>
-48.4032

>  <SCORE.INTRA.VDW>
0.367772

>  <SCORE.INTRA.VDW.0>
-1.65238

>  <SCORE.INTRA.norm>
-1.2388

>  <SCORE.RESTR>
0

>  <SCORE.RESTR.CAVITY>
0

>  <SCORE.RESTR.norm>
0

>  <SCORE.SYSTEM>
0

>  <SCORE.SYSTEM.CONST>
0

>  <SCORE.SYSTEM.DIHEDRAL>
0

>  <SCORE.SYSTEM.SOLV>
0

>  <SCORE.SYSTEM.norm>
0

>  <SCORE.heavy>
13

>  <SCORE.norm>
-1.00381

>  <RMSD>
5.829

$$$$
ligand
 OpenBabel11021811473D
libRbt.so/2013.1/901 2013/11/27
 13 12  0  0  0  0  0  0  0  0999 V2000
   35.6426   31.1965   49.4095 O   0  0  0  0  0  0  0  0  0  0  0  0
   33.1967   32.2914   50.1612 O   0  0  0  0  0  0  0  0  0  0  0  0
   38.7851   30.9673   45.4447 P   0  0  1  0  0  0  0  0  0  0  0  0
   40.2681   30.7193   45.4274 O   0  5  0  0  0  0  0  0  0  0  0  0
   37.7936   30.5852   44.4630 O   0  0  0  0  0  0  0  0  0  0  0  0
   38.4317   30.9923   47.0188 O   0  0  0  0  0  0  0  0  0  0  0  0
   31.3804   34.2336   49.1014 O   0  0  0  0  0  0  0  0  0  0  0  0
   37.0703   30.9225   47.4957 C   0  0  0  0  0  0  0  0  0  0  0  0
   34.0117   31.6866   51.1838 C   0  0  0  0  0  0  0  0  0  0  0  0
   30.9862   32.8635   49.2937 C   0  0  0  0  0  0  0  0  0  0  0  0
   37.0150   31.1798   49.0088 C   0  0  0  0  0  0  0  0  0  0  0  0
   35.4979   31.6880   50.7560 C   0  0  0  0  0  0  0  0  0  0  0  0
   31.7902   32.2400   50.4586 C   0  0  0  0  0  0  0  0  0  0  0  0
  1 12  1  0  0  0  0
  1 11  1  0  0  0  0
  2 13  1  0  0  0  0
  2  9  1  0  0  0  0
  3  4  1  1  0  0  0
  3  5  2  0  0  0  0
  3  6  1  0  0  0  0
  6  8  1  0  0  0  0
  7 10  1  0  0  0  0
  8 11  1  0  0  0  0
  9 12  1  0  0  0  0
 10 13  1  0  0  0  0
M  CHG  1   4  -1
M  END
>  <CHROM.1>
-179.36423956,-178.05718768,-166.64116304,-171.38967531,175.82674746,176.05549146
-48.03038428,-59.76677136,-168.74329488,35.82292342,31.60401738,48.11926603
-2.60954966,0.36081293,-1.43286370

>  <Name>
ligand

>  <RI>
0

>  <Rbt.Current_Directory>
/home/itssahil/PROJECTS/Mol_Feturizer/New_Systems/rnas/3GS8

>  <Rbt.Executable>
rbdock ($Id: //depot/dev/client3/rdock/2013.1/src/exe/rbdock.cxx#4 $)

>  <Rbt.Library>
libRbt.so (2013.1, Build901 2013/11/27)

>  <Rbt.Parameter_File>
/export/apps/rDock/src/rDock_2013.1_src/data/scripts/dock_solv.prm

>  <Rbt.Receptor>
prm/pocket_docking_7.prm

>  <SCORE>
-12.3848

>  <SCORE.INTER>
2.81875

>  <SCORE.INTER.CONST>
1

>  <SCORE.INTER.POLAR>
0

>  <SCORE.INTER.ROT>
9

>  <SCORE.INTER.SOLV>
9.61454

>  <SCORE.INTER.VDW>
-10.9257

>  <SCORE.INTER.norm>
0.216827

>  <SCORE.INTRA>
-15.2035

>  <SCORE.INTRA.DIHEDRAL>
-29.5063

>  <SCORE.INTRA.DIHEDRAL.0>
31.9578

>  <SCORE.INTRA.POLAR>
0

>  <SCORE.INTRA.POLAR.0>
0

>  <SCORE.INTRA.REPUL>
0

>  <SCORE.INTRA.REPUL.0>
0

>  <SCORE.INTRA.SOLV>
-1.45224

>  <SCORE.INTRA.SOLV.lig_0>
-48.4032

>  <SCORE.INTRA.VDW>
0.275757

>  <SCORE.INTRA.VDW.0>
-1.65238

>  <SCORE.INTRA.norm>
-1.1695

>  <SCORE.RESTR>
0

>  <SCORE.RESTR.CAVITY>
0

>  <SCORE.RESTR.norm>
0

>  <SCORE.SYSTEM>
0

>  <SCORE.SYSTEM.CONST>
0

>  <SCORE.SYSTEM.DIHEDRAL>
0

>  <SCORE.SYSTEM.SOLV>
0

>  <SCORE.SYSTEM.norm>
0

>  <SCORE.heavy>
13

>  <SCORE.norm>
-0.952676

>  <RMSD>
5.875

$$$$
ligand
 OpenBabel11021811473D
libRbt.so/2013.1/901 2013/11/27
 13 12  0  0  0  0  0  0  0  0999 V2000
   28.8280   33.7502   46.7763 O   0  0  0  0  0  0  0  0  0  0  0  0
   31.3367   34.6140   45.5863 O   0  0  0  0  0  0  0  0  0  0  0  0
   29.1779   31.3317   50.3042 P   0  0  1  0  0  0  0  0  0  0  0  0
   29.7211   32.5801   50.9426 O   0  5  0  0  0  0  0  0  0  0  0  0
   28.3797   30.2843   50.9031 O   0  0  0  0  0  0  0  0  0  0  0  0
   28.9623   31.7660   48.7653 O   0  0  0  0  0  0  0  0  0  0  0  0
   33.3005   32.0478   43.7874 O   0  0  0  0  0  0  0  0  0  0  0  0
   27.6939   32.2606   48.2833 C   0  0  0  0  0  0  0  0  0  0  0  0
   30.0991   35.3205   45.3740 C   0  0  0  0  0  0  0  0  0  0  0  0
   33.0333   33.0511   44.7832 C   0  0  0  0  0  0  0  0  0  0  0  0
   27.8188   32.7388   46.8292 C   0  0  0  0  0  0  0  0  0  0  0  0
   28.9022   34.3456   45.4665 C   0  0  0  0  0  0  0  0  0  0  0  0
   31.6607   33.7114   44.5142 C   0  0  0  0  0  0  0  0  0  0  0  0
  1 12  1  0  0  0  0
  1 11  1  0  0  0  0
  2 13  1  0  0  0  0
  2  9  1  0  0  0  0
  3  4  1  1  0  0  0
  3  5  2  0  0  0  0
  3  6  1  0  0  0  0
  6  8  1  0  0  0  0
  7 10  1  0  0  0  0
  8 11  1  0  0  0  0
  9 12  1  0  0  0  0
 10 13  1  0  0  0  0
M  CHG  1   4  -1
M  END
>  <CHROM.1>
-173.55200519,177.06457572,-93.70038339,173.81238722,-57.70747368,68.78197282
61.71734521,174.13909829,-173.93245983,29.86683125,32.75887266,47.39709994
1.05596254,0.42668922,-0.95947738

>  <Name>
ligand

>  <RI>
0

>  <Rbt.Current_Directory>
/home/itssahil/PROJECTS/Mol_Feturizer/New_Systems/rnas/3GS8

>  <Rbt.Executable>
rbdock ($Id: //depot/dev/client3/rdock/2013.1/src/exe/rbdock.cxx#4 $)

>  <Rbt.Library>
libRbt.so (2013.1, Build901 2013/11/27)

>  <Rbt.Parameter_File>
/export/apps/rDock/src/rDock_2013.1_src/data/scripts/dock_solv.prm

>  <Rbt.Receptor>
prm/pocket_docking_7.prm

>  <SCORE>
-9.07928

>  <SCORE.INTER>
5.68654

>  <SCORE.INTER.CONST>
1

>  <SCORE.INTER.POLAR>
0

>  <SCORE.INTER.ROT>
9

>  <SCORE.INTER.SOLV>
8.10955

>  <SCORE.INTER.VDW>
-8.51216

>  <SCORE.INTER.norm>
0.437426

>  <SCORE.INTRA>
-14.7658

>  <SCORE.INTRA.DIHEDRAL>
-30.3336

>  <SCORE.INTRA.DIHEDRAL.0>
31.9578

>  <SCORE.INTRA.POLAR>
0

>  <SCORE.INTRA.POLAR.0>
0

>  <SCORE.INTRA.REPUL>
0

>  <SCORE.INTRA.REPUL.0>
0

>  <SCORE.INTRA.SOLV>
-1.30141

>  <SCORE.INTRA.SOLV.lig_0>
-48.4032

>  <SCORE.INTRA.VDW>
1.05169

>  <SCORE.INTRA.VDW.0>
-1.65238

>  <SCORE.INTRA.norm>
-1.13583

>  <SCORE.RESTR>
0

>  <SCORE.RESTR.CAVITY>
0

>  <SCORE.RESTR.norm>
0

>  <SCORE.SYSTEM>
0

>  <SCORE.SYSTEM.CONST>
0

>  <SCORE.SYSTEM.DIHEDRAL>
0

>  <SCORE.SYSTEM.SOLV>
0

>  <SCORE.SYSTEM.norm>
0

>  <SCORE.heavy>
13

>  <SCORE.norm>
-0.698406

>  <RMSD>
5.879

$$$$
ligand
 OpenBabel11021811473D
libRbt.so/2013.1/901 2013/11/27
 13 12  0  0  0  0  0  0  0  0999 V2000
   29.9831   32.5521   49.3978 O   0  0  0  0  0  0  0  0  0  0  0  0
   30.5715   32.6261   46.5435 O   0  0  0  0  0  0  0  0  0  0  0  0
   30.3689   36.9092   50.4444 P   0  0  1  0  0  0  0  0  0  0  0  0
   30.1200   38.0456   51.3971 O   0  5  0  0  0  0  0  0  0  0  0  0
   31.1111   36.9173   49.2026 O   0  0  0  0  0  0  0  0  0  0  0  0
   30.3675   35.6129   51.4050 O   0  0  0  0  0  0  0  0  0  0  0  0
   33.2275   33.3768   45.7679 O   0  0  0  0  0  0  0  0  0  0  0  0
   30.6724   34.2929   50.9046 C   0  0  0  0  0  0  0  0  0  0  0  0
   29.2513   32.8612   47.0704 C   0  0  0  0  0  0  0  0  0  0  0  0
   32.2383   32.9933   44.7962 C   0  0  0  0  0  0  0  0  0  0  0  0
   29.6153   33.8453   49.8843 C   0  0  0  0  0  0  0  0  0  0  0  0
   29.0574   32.0886   48.3960 C   0  0  0  0  0  0  0  0  0  0  0  0
   30.8232   33.3360   45.3180 C   0  0  0  0  0  0  0  0  0  0  0  0
  1 12  1  0  0  0  0
  1 11  1  0  0  0  0
  2 13  1  0  0  0  0
  2  9  1  0  0  0  0
  3  4  1  1  0  0  0
  3  5  2  0  0  0  0
  3  6  1  0  0  0  0
  6  8  1  0  0  0  0
  7 10  1  0  0  0  0
  8 11  1  0  0  0  0
  9 12  1  0  0  0  0
 10 13  1  0  0  0  0
M  CHG  1   4  -1
M  END
>  <CHROM.1>
72.88632470,-178.10366914,-175.37717786,-64.19865666,178.54008403,-179.06864017
62.48565210,-60.21751201,-177.90563617,30.57202544,34.51113838,48.68326463
1.33309055,-0.92133557,-2.43150145

>  <Name>
ligand

>  <RI>
0

>  <Rbt.Current_Directory>
/home/itssahil/PROJECTS/Mol_Feturizer/New_Systems/rnas/3GS8

>  <Rbt.Executable>
rbdock ($Id: //depot/dev/client3/rdock/2013.1/src/exe/rbdock.cxx#4 $)

>  <Rbt.Library>
libRbt.so (2013.1, Build901 2013/11/27)

>  <Rbt.Parameter_File>
/export/apps/rDock/src/rDock_2013.1_src/data/scripts/dock_solv.prm

>  <Rbt.Receptor>
prm/pocket_docking_3.prm

>  <SCORE>
-7.89893

>  <SCORE.INTER>
6.13139

>  <SCORE.INTER.CONST>
1

>  <SCORE.INTER.POLAR>
0

>  <SCORE.INTER.ROT>
9

>  <SCORE.INTER.SOLV>
7.11211

>  <SCORE.INTER.VDW>
-7.88311

>  <SCORE.INTER.norm>
0.471645

>  <SCORE.INTRA>
-14.0303

>  <SCORE.INTRA.DIHEDRAL>
-30.439

>  <SCORE.INTRA.DIHEDRAL.0>
31.9578

>  <SCORE.INTRA.POLAR>
0

>  <SCORE.INTRA.POLAR.0>
0

>  <SCORE.INTRA.REPUL>
0

>  <SCORE.INTRA.REPUL.0>
0

>  <SCORE.INTRA.SOLV>
-0.0441852

>  <SCORE.INTRA.SOLV.lig_0>
-48.4032

>  <SCORE.INTRA.VDW>
1.21126

>  <SCORE.INTRA.VDW.0>
-1.65238

>  <SCORE.INTRA.norm>
-1.07926

>  <SCORE.RESTR>
0

>  <SCORE.RESTR.CAVITY>
0

>  <SCORE.RESTR.norm>
0

>  <SCORE.SYSTEM>
0

>  <SCORE.SYSTEM.CONST>
0

>  <SCORE.SYSTEM.DIHEDRAL>
0

>  <SCORE.SYSTEM.SOLV>
0

>  <SCORE.SYSTEM.norm>
0

>  <SCORE.heavy>
13

>  <SCORE.norm>
-0.60761

>  <RMSD>
5.896

$$$$
ligand
 OpenBabel11021811473D
libRbt.so/2013.1/901 2013/11/27
 13 12  0  0  0  0  0  0  0  0999 V2000
   29.0117   32.6276   48.1211 O   0  0  0  0  0  0  0  0  0  0  0  0
   27.2511   33.5204   46.0319 O   0  0  0  0  0  0  0  0  0  0  0  0
   29.5988   29.8280   52.3115 P   0  0  1  0  0  0  0  0  0  0  0  0
   30.6541   30.4263   53.2000 O   0  5  0  0  0  0  0  0  0  0  0  0
   28.2272   29.4991   52.6329 O   0  0  0  0  0  0  0  0  0  0  0  0
   30.0054   30.3593   50.8432 O   0  0  0  0  0  0  0  0  0  0  0  0
   24.4336   33.6937   46.6324 O   0  0  0  0  0  0  0  0  0  0  0  0
   29.2115   31.3397   50.1403 C   0  0  0  0  0  0  0  0  0  0  0  0
   28.6116   33.9880   46.1117 C   0  0  0  0  0  0  0  0  0  0  0  0
   24.9461   33.8596   45.2984 C   0  0  0  0  0  0  0  0  0  0  0  0
   29.8022   31.6156   48.7497 C   0  0  0  0  0  0  0  0  0  0  0  0
   29.5033   32.9288   46.8008 C   0  0  0  0  0  0  0  0  0  0  0  0
   26.3791   34.4392   45.3503 C   0  0  0  0  0  0  0  0  0  0  0  0
  1 12  1  0  0  0  0
  1 11  1  0  0  0  0
  2 13  1  0  0  0  0
  2  9  1  0  0  0  0
  3  4  1  1  0  0  0
  3  5  2  0  0  0  0
  3  6  1  0  0  0  0
  6  8  1  0  0  0  0
  7 10  1  0  0  0  0
  8 11  1  0  0  0  0
  9 12  1  0  0  0  0
 10 13  1  0  0  0  0
M  CHG  1   4  -1
M  END
>  <CHROM.1>
178.00070032,179.55894553,-109.94410807,-177.76696053,-177.73791858,-177.60271506
-58.18215215,62.17275414,-179.43474554,28.38467090,31.94935564,48.98085230
-1.98991300,-0.01217866,2.10392884

>  <Name>
ligand

>  <RI>
0

>  <Rbt.Current_Directory>
/home/itssahil/PROJECTS/Mol_Feturizer/New_Systems/rnas/3GS8

>  <Rbt.Executable>
rbdock ($Id: //depot/dev/client3/rdock/2013.1/src/exe/rbdock.cxx#4 $)

>  <Rbt.Library>
libRbt.so (2013.1, Build901 2013/11/27)

>  <Rbt.Parameter_File>
/export/apps/rDock/src/rDock_2013.1_src/data/scripts/dock_solv.prm

>  <Rbt.Receptor>
prm/pocket_docking_7.prm

>  <SCORE>
-10.7172

>  <SCORE.INTER>
5.24604

>  <SCORE.INTER.CONST>
1

>  <SCORE.INTER.POLAR>
0

>  <SCORE.INTER.ROT>
9

>  <SCORE.INTER.SOLV>
5.88412

>  <SCORE.INTER.VDW>
-8.06401

>  <SCORE.INTER.norm>
0.403541

>  <SCORE.INTRA>
-15.9633

>  <SCORE.INTRA.DIHEDRAL>
-30.9407

>  <SCORE.INTRA.DIHEDRAL.0>
31.9578

>  <SCORE.INTRA.POLAR>
0

>  <SCORE.INTRA.POLAR.0>
0

>  <SCORE.INTRA.REPUL>
0

>  <SCORE.INTRA.REPUL.0>
0

>  <SCORE.INTRA.SOLV>
-1.35862

>  <SCORE.INTRA.SOLV.lig_0>
-48.4032

>  <SCORE.INTRA.VDW>
0.186393

>  <SCORE.INTRA.VDW.0>
-1.65238

>  <SCORE.INTRA.norm>
-1.22794

>  <SCORE.RESTR>
0

>  <SCORE.RESTR.CAVITY>
0

>  <SCORE.RESTR.norm>
0

>  <SCORE.SYSTEM>
0

>  <SCORE.SYSTEM.CONST>
0

>  <SCORE.SYSTEM.DIHEDRAL>
0

>  <SCORE.SYSTEM.SOLV>
0

>  <SCORE.SYSTEM.norm>
0

>  <SCORE.heavy>
13

>  <SCORE.norm>
-0.824403

>  <RMSD>
5.915

$$$$
ligand
 OpenBabel11021811473D
libRbt.so/2013.1/901 2013/11/27
 13 12  0  0  0  0  0  0  0  0999 V2000
   30.5104   33.9224   50.0751 O   0  0  0  0  0  0  0  0  0  0  0  0
   31.1850   33.3756   47.2461 O   0  0  0  0  0  0  0  0  0  0  0  0
   30.5631   37.6783   50.5405 P   0  0  1  0  0  0  0  0  0  0  0  0
   30.1002   38.7401   51.4993 O   0  5  0  0  0  0  0  0  0  0  0  0
   31.9018   37.4185   50.0577 O   0  0  0  0  0  0  0  0  0  0  0  0
   29.5193   36.4734   50.7893 O   0  0  0  0  0  0  0  0  0  0  0  0
   32.4464   34.4156   44.8803 O   0  0  0  0  0  0  0  0  0  0  0  0
   29.7613   35.4466   51.7756 C   0  0  0  0  0  0  0  0  0  0  0  0
   31.0879   32.3612   48.2647 C   0  0  0  0  0  0  0  0  0  0  0  0
   31.0658   34.0111   44.8907 C   0  0  0  0  0  0  0  0  0  0  0  0
   30.8939   34.5156   51.3182 C   0  0  0  0  0  0  0  0  0  0  0  0
   31.4771   32.9456   49.6426 C   0  0  0  0  0  0  0  0  0  0  0  0
   30.8508   32.8897   45.9341 C   0  0  0  0  0  0  0  0  0  0  0  0
  1 12  1  0  0  0  0
  1 11  1  0  0  0  0
  2 13  1  0  0  0  0
  2  9  1  0  0  0  0
  3  4  1  1  0  0  0
  3  5  2  0  0  0  0
  3  6  1  0  0  0  0
  6  8  1  0  0  0  0
  7 10  1  0  0  0  0
  8 11  1  0  0  0  0
  9 12  1  0  0  0  0
 10 13  1  0  0  0  0
M  CHG  1   4  -1
M  END
>  <CHROM.1>
-177.23003348,-176.43506161,-89.78460479,-71.24220123,-59.33911698,179.27370436
66.97508219,61.12519903,-174.98085737,30.85302952,35.20202352,49.12307794
2.38123458,1.34001661,0.11184403

>  <Name>
ligand

>  <RI>
0

>  <Rbt.Current_Directory>
/home/itssahil/PROJECTS/Mol_Feturizer/New_Systems/rnas/3GS8

>  <Rbt.Executable>
rbdock ($Id: //depot/dev/client3/rdock/2013.1/src/exe/rbdock.cxx#4 $)

>  <Rbt.Library>
libRbt.so (2013.1, Build901 2013/11/27)

>  <Rbt.Parameter_File>
/export/apps/rDock/src/rDock_2013.1_src/data/scripts/dock_solv.prm

>  <Rbt.Receptor>
prm/pocket_docking_3.prm

>  <SCORE>
-6.69178

>  <SCORE.INTER>
8.08096

>  <SCORE.INTER.CONST>
1

>  <SCORE.INTER.POLAR>
0

>  <SCORE.INTER.ROT>
9

>  <SCORE.INTER.SOLV>
5.26578

>  <SCORE.INTER.VDW>
-5.96795

>  <SCORE.INTER.norm>
0.621613

>  <SCORE.INTRA>
-14.7729

>  <SCORE.INTRA.DIHEDRAL>
-30.5356

>  <SCORE.INTRA.DIHEDRAL.0>
31.9578

>  <SCORE.INTRA.POLAR>
0

>  <SCORE.INTRA.POLAR.0>
0

>  <SCORE.INTRA.REPUL>
0

>  <SCORE.INTRA.REPUL.0>
0

>  <SCORE.INTRA.SOLV>
1.10055

>  <SCORE.INTRA.SOLV.lig_0>
-48.4032

>  <SCORE.INTRA.VDW>
-0.055402

>  <SCORE.INTRA.VDW.0>
-1.65238

>  <SCORE.INTRA.norm>
-1.13638

>  <SCORE.RESTR>
0.000183522

>  <SCORE.RESTR.CAVITY>
0.000183522

>  <SCORE.RESTR.norm>
1.4117e-05

>  <SCORE.SYSTEM>
0

>  <SCORE.SYSTEM.CONST>
0

>  <SCORE.SYSTEM.DIHEDRAL>
0

>  <SCORE.SYSTEM.SOLV>
0

>  <SCORE.SYSTEM.norm>
0

>  <SCORE.heavy>
13

>  <SCORE.norm>
-0.514752

>  <RMSD>
6.005

$$$$
ligand
 OpenBabel11021811473D
libRbt.so/2013.1/901 2013/11/27
 13 12  0  0  0  0  0  0  0  0999 V2000
   29.5350   35.6309   46.4704 O   0  0  0  0  0  0  0  0  0  0  0  0
   29.2223   33.1094   47.8600 O   0  0  0  0  0  0  0  0  0  0  0  0
   29.9464   39.1715   49.0214 P   0  0  1  0  0  0  0  0  0  0  0  0
   28.7352   39.6745   49.7570 O   0  5  0  0  0  0  0  0  0  0  0  0
   31.3136   39.0830   49.4861 O   0  0  0  0  0  0  0  0  0  0  0  0
   29.3368   38.0691   48.0133 O   0  0  0  0  0  0  0  0  0  0  0  0
   30.0399   33.1391   50.6082 O   0  0  0  0  0  0  0  0  0  0  0  0
   29.7083   38.0234   46.6185 C   0  0  0  0  0  0  0  0  0  0  0  0
   29.5081   33.1718   46.4492 C   0  0  0  0  0  0  0  0  0  0  0  0
   29.4546   31.9701   50.0080 C   0  0  0  0  0  0  0  0  0  0  0  0
   29.0204   36.8440   45.9154 C   0  0  0  0  0  0  0  0  0  0  0  0
   28.9411   34.4773   45.8443 C   0  0  0  0  0  0  0  0  0  0  0  0
   29.7683   31.9392   48.4938 C   0  0  0  0  0  0  0  0  0  0  0  0
  1 12  1  0  0  0  0
  1 11  1  0  0  0  0
  2 13  1  0  0  0  0
  2  9  1  0  0  0  0
  3  4  1  1  0  0  0
  3  5  2  0  0  0  0
  3  6  1  0  0  0  0
  6  8  1  0  0  0  0
  7 10  1  0  0  0  0
  8 11  1  0  0  0  0
  9 12  1  0  0  0  0
 10 13  1  0  0  0  0
M  CHG  1   4  -1
M  END
>  <CHROM.1>
179.82505133,178.30689848,133.49938533,177.76162226,-65.75194022,-177.81489989
60.47540588,-60.27190357,-179.38102422,29.61530514,36.03426274,48.15742399
1.83065835,1.39057787,2.95140606

>  <Name>
ligand

>  <RI>
0

>  <Rbt.Current_Directory>
/home/itssahil/PROJECTS/Mol_Feturizer/New_Systems/rnas/3GS8

>  <Rbt.Executable>
rbdock ($Id: //depot/dev/client3/rdock/2013.1/src/exe/rbdock.cxx#4 $)

>  <Rbt.Library>
libRbt.so (2013.1, Build901 2013/11/27)

>  <Rbt.Parameter_File>
/export/apps/rDock/src/rDock_2013.1_src/data/scripts/dock_solv.prm

>  <Rbt.Receptor>
prm/pocket_docking_3.prm

>  <SCORE>
-7.94895

>  <SCORE.INTER>
8.2445

>  <SCORE.INTER.CONST>
1

>  <SCORE.INTER.POLAR>
0

>  <SCORE.INTER.ROT>
9

>  <SCORE.INTER.SOLV>
2.88871

>  <SCORE.INTER.VDW>
-5.06657

>  <SCORE.INTER.norm>
0.634192

>  <SCORE.INTRA>
-16.1935

>  <SCORE.INTRA.DIHEDRAL>
-30.9688

>  <SCORE.INTRA.DIHEDRAL.0>
31.9578

>  <SCORE.INTRA.POLAR>
0

>  <SCORE.INTRA.POLAR.0>
0

>  <SCORE.INTRA.REPUL>
0

>  <SCORE.INTRA.REPUL.0>
0

>  <SCORE.INTRA.SOLV>
-1.53163

>  <SCORE.INTRA.SOLV.lig_0>
-48.4032

>  <SCORE.INTRA.VDW>
0.0567615

>  <SCORE.INTRA.VDW.0>
-1.65238

>  <SCORE.INTRA.norm>
-1.24565

>  <SCORE.RESTR>
0

>  <SCORE.RESTR.CAVITY>
0

>  <SCORE.RESTR.norm>
0

>  <SCORE.SYSTEM>
0

>  <SCORE.SYSTEM.CONST>
0

>  <SCORE.SYSTEM.DIHEDRAL>
0

>  <SCORE.SYSTEM.SOLV>
0

>  <SCORE.SYSTEM.norm>
0

>  <SCORE.heavy>
13

>  <SCORE.norm>
-0.611458

>  <RMSD>
6.016

$$$$
ligand
 OpenBabel11021811473D
libRbt.so/2013.1/901 2013/11/27
 13 12  0  0  0  0  0  0  0  0999 V2000
   33.2383   32.3356   50.1705 O   0  0  0  0  0  0  0  0  0  0  0  0
   31.2799   32.4314   48.1327 O   0  0  0  0  0  0  0  0  0  0  0  0
   36.6763   32.0517   53.0746 P   0  0  1  0  0  0  0  0  0  0  0  0
   37.7291   33.0936   52.8155 O   0  5  0  0  0  0  0  0  0  0  0  0
   35.6080   32.0697   54.0499 O   0  0  0  0  0  0  0  0  0  0  0  0
   36.4733   31.3624   51.6300 O   0  0  0  0  0  0  0  0  0  0  0  0
   32.3341   33.2171   45.5754 O   0  0  0  0  0  0  0  0  0  0  0  0
   35.5506   31.8940   50.6546 C   0  0  0  0  0  0  0  0  0  0  0  0
   30.9275   32.8124   49.4768 C   0  0  0  0  0  0  0  0  0  0  0  0
   30.9921   32.7207   45.7245 C   0  0  0  0  0  0  0  0  0  0  0  0
   34.1027   31.7465   51.1452 C   0  0  0  0  0  0  0  0  0  0  0  0
   31.8534   32.1064   50.4947 C   0  0  0  0  0  0  0  0  0  0  0  0
   30.4560   33.0600   47.1351 C   0  0  0  0  0  0  0  0  0  0  0  0
  1 12  1  0  0  0  0
  1 11  1  0  0  0  0
  2 13  1  0  0  0  0
  2  9  1  0  0  0  0
  3  4  1  6  0  0  0
  3  5  2  0  0  0  0
  3  6  1  0  0  0  0
  6  8  1  0  0  0  0
  7 10  1  0  0  0  0
  8 11  1  0  0  0  0
  9 12  1  0  0  0  0
 10 13  1  0  0  0  0
M  CHG  1   4  -1
M  END
>  <CHROM.1>
176.93072862,173.96104144,-86.84809519,-66.91457973,177.66488633,-179.79097579
53.14419103,-61.10334208,173.76763838,33.92222073,32.35323676,50.27425564
2.31005152,-0.02601654,-1.43114288

>  <Name>
ligand

>  <RI>
0

>  <Rbt.Current_Directory>
/home/itssahil/PROJECTS/Mol_Feturizer/New_Systems/rnas/3GS8

>  <Rbt.Executable>
rbdock ($Id: //depot/dev/client3/rdock/2013.1/src/exe/rbdock.cxx#4 $)

>  <Rbt.Library>
libRbt.so (2013.1, Build901 2013/11/27)

>  <Rbt.Parameter_File>
/export/apps/rDock/src/rDock_2013.1_src/data/scripts/dock_solv.prm

>  <Rbt.Receptor>
prm/pocket_docking_8.prm

>  <SCORE>
-13.0745

>  <SCORE.INTER>
1.93344

>  <SCORE.INTER.CONST>
1

>  <SCORE.INTER.POLAR>
0

>  <SCORE.INTER.ROT>
9

>  <SCORE.INTER.SOLV>
11.3524

>  <SCORE.INTER.VDW>
-12.0952

>  <SCORE.INTER.norm>
0.148726

>  <SCORE.INTRA>
-15.008

>  <SCORE.INTRA.DIHEDRAL>
-30.7531

>  <SCORE.INTRA.DIHEDRAL.0>
31.9578

>  <SCORE.INTRA.POLAR>
0

>  <SCORE.INTRA.POLAR.0>
0

>  <SCORE.INTRA.REPUL>
0

>  <SCORE.INTRA.REPUL.0>
0

>  <SCORE.INTRA.SOLV>
0.250961

>  <SCORE.INTRA.SOLV.lig_0>
-48.4032

>  <SCORE.INTRA.VDW>
0.243087

>  <SCORE.INTRA.VDW.0>
-1.65238

>  <SCORE.INTRA.norm>
-1.15446

>  <SCORE.RESTR>
0

>  <SCORE.RESTR.CAVITY>
0

>  <SCORE.RESTR.norm>
0

>  <SCORE.SYSTEM>
0

>  <SCORE.SYSTEM.CONST>
0

>  <SCORE.SYSTEM.DIHEDRAL>
0

>  <SCORE.SYSTEM.SOLV>
0

>  <SCORE.SYSTEM.norm>
0

>  <SCORE.heavy>
13

>  <SCORE.norm>
-1.00573

>  <RMSD>
6.021

$$$$
ligand
 OpenBabel11021811473D
libRbt.so/2013.1/901 2013/11/27
 13 12  0  0  0  0  0  0  0  0999 V2000
   30.4877   35.3052   47.6837 O   0  0  0  0  0  0  0  0  0  0  0  0
   29.3409   32.8842   47.1156 O   0  0  0  0  0  0  0  0  0  0  0  0
   29.4742   38.9740   49.9640 P   0  0  1  0  0  0  0  0  0  0  0  0
   29.9471   39.0276   51.3904 O   0  5  0  0  0  0  0  0  0  0  0  0
   29.0630   40.0644   49.1068 O   0  0  0  0  0  0  0  0  0  0  0  0
   30.2466   37.6902   49.3653 O   0  0  0  0  0  0  0  0  0  0  0  0
   31.0991   32.0391   49.2991 O   0  0  0  0  0  0  0  0  0  0  0  0
   30.7593   37.6700   48.0154 C   0  0  0  0  0  0  0  0  0  0  0  0
   28.9193   34.0014   46.3095 C   0  0  0  0  0  0  0  0  0  0  0  0
   29.6672   31.9034   49.3287 C   0  0  0  0  0  0  0  0  0  0  0  0
   31.4729   36.3405   47.7291 C   0  0  0  0  0  0  0  0  0  0  0  0
   29.9848   35.1217   46.3461 C   0  0  0  0  0  0  0  0  0  0  0  0
   29.0110   33.0378   48.5073 C   0  0  0  0  0  0  0  0  0  0  0  0
  1 12  1  0  0  0  0
  1 11  1  0  0  0  0
  2 13  1  0  0  0  0
  2  9  1  0  0  0  0
  3  4  1  1  0  0  0
  3  5  2  0  0  0  0
  3  6  1  0  0  0  0
  6  8  1  0  0  0  0
  7 10  1  0  0  0  0
  8 11  1  0  0  0  0
  9 12  1  0  0  0  0
 10 13  1  0  0  0  0
M  CHG  1   4  -1
M  END
>  <CHROM.1>
-179.92493878,-172.05141971,-142.32602251,178.67240236,69.28358943,84.81083303
-42.56464124,66.41979340,90.51001665,29.92452117,35.98636277,48.62264226
1.23829278,1.51240944,-2.51949641

>  <Name>
ligand

>  <RI>
0

>  <Rbt.Current_Directory>
/home/itssahil/PROJECTS/Mol_Feturizer/New_Systems/rnas/3GS8

>  <Rbt.Executable>
rbdock ($Id: //depot/dev/client3/rdock/2013.1/src/exe/rbdock.cxx#4 $)

>  <Rbt.Library>
libRbt.so (2013.1, Build901 2013/11/27)

>  <Rbt.Parameter_File>
/export/apps/rDock/src/rDock_2013.1_src/data/scripts/dock_solv.prm

>  <Rbt.Receptor>
prm/pocket_docking_3.prm

>  <SCORE>
-1.92999

>  <SCORE.INTER>
8.74945

>  <SCORE.INTER.CONST>
1

>  <SCORE.INTER.POLAR>
0

>  <SCORE.INTER.ROT>
9

>  <SCORE.INTER.SOLV>
4.01366

>  <SCORE.INTER.VDW>
-5.10492

>  <SCORE.INTER.norm>
0.673035

>  <SCORE.INTRA>
-10.6794

>  <SCORE.INTRA.DIHEDRAL>
-22.4703

>  <SCORE.INTRA.DIHEDRAL.0>
31.9578

>  <SCORE.INTRA.POLAR>
0

>  <SCORE.INTRA.POLAR.0>
0

>  <SCORE.INTRA.REPUL>
0

>  <SCORE.INTRA.REPUL.0>
0

>  <SCORE.INTRA.SOLV>
-1.00469

>  <SCORE.INTRA.SOLV.lig_0>
-48.4032

>  <SCORE.INTRA.VDW>
1.05805

>  <SCORE.INTRA.VDW.0>
-1.65238

>  <SCORE.INTRA.norm>
-0.821496

>  <SCORE.RESTR>
0

>  <SCORE.RESTR.CAVITY>
0

>  <SCORE.RESTR.norm>
0

>  <SCORE.SYSTEM>
0

>  <SCORE.SYSTEM.CONST>
0

>  <SCORE.SYSTEM.DIHEDRAL>
0

>  <SCORE.SYSTEM.SOLV>
0

>  <SCORE.SYSTEM.norm>
0

>  <SCORE.heavy>
13

>  <SCORE.norm>
-0.148461

>  <RMSD>
6.041

$$$$
ligand
 OpenBabel11021811473D
libRbt.so/2013.1/901 2013/11/27
 13 12  0  0  0  0  0  0  0  0999 V2000
   30.2563   32.6021   46.0375 O   0  0  0  0  0  0  0  0  0  0  0  0
   32.7243   32.2135   44.5237 O   0  0  0  0  0  0  0  0  0  0  0  0
   32.6665   32.8212   49.7670 P   0  0  1  0  0  0  0  0  0  0  0  0
   33.7909   33.7649   49.4416 O   0  5  0  0  0  0  0  0  0  0  0  0
   32.2581   32.3134   51.0586 O   0  0  0  0  0  0  0  0  0  0  0  0
   31.5826   33.1231   48.6106 O   0  0  0  0  0  0  0  0  0  0  0  0
   35.3228   30.9456   44.5499 O   0  0  0  0  0  0  0  0  0  0  0  0
   30.4239   32.2838   48.4137 C   0  0  0  0  0  0  0  0  0  0  0  0
   31.9394   33.4190   44.4413 C   0  0  0  0  0  0  0  0  0  0  0  0
   34.3487   30.6884   43.5231 C   0  0  0  0  0  0  0  0  0  0  0  0
   29.5573   32.8213   47.2654 C   0  0  0  0  0  0  0  0  0  0  0  0
   31.1923   33.6648   45.7728 C   0  0  0  0  0  0  0  0  0  0  0  0
   33.4555   31.9342   43.3169 C   0  0  0  0  0  0  0  0  0  0  0  0
  1 12  1  0  0  0  0
  1 11  1  0  0  0  0
  2 13  1  0  0  0  0
  2  9  1  0  0  0  0
  3  4  1  1  0  0  0
  3  5  2  0  0  0  0
  3  6  1  0  0  0  0
  6  8  1  0  0  0  0
  7 10  1  0  0  0  0
  8 11  1  0  0  0  0
  9 12  1  0  0  0  0
 10 13  1  0  0  0  0
M  CHG  1   4  -1
M  END
>  <CHROM.1>
-179.85442655,175.84062376,169.96354780,178.95613048,70.56831506,-179.47423766
-63.09648340,-62.73982249,-84.53111780,32.32402983,32.53175116,46.95864951
1.31431864,0.27146786,-1.69311830

>  <Name>
ligand

>  <RI>
0

>  <Rbt.Current_Directory>
/home/itssahil/PROJECTS/Mol_Feturizer/New_Systems/rnas/3GS8

>  <Rbt.Executable>
rbdock ($Id: //depot/dev/client3/rdock/2013.1/src/exe/rbdock.cxx#4 $)

>  <Rbt.Library>
libRbt.so (2013.1, Build901 2013/11/27)

>  <Rbt.Parameter_File>
/export/apps/rDock/src/rDock_2013.1_src/data/scripts/dock_solv.prm

>  <Rbt.Receptor>
prm/pocket_docking_4.prm

>  <SCORE>
-10.2609

>  <SCORE.INTER>
3.76517

>  <SCORE.INTER.CONST>
1

>  <SCORE.INTER.POLAR>
0

>  <SCORE.INTER.ROT>
9

>  <SCORE.INTER.SOLV>
10.0292

>  <SCORE.INTER.VDW>
-10.4329

>  <SCORE.INTER.norm>
0.289629

>  <SCORE.INTRA>
-14.026

>  <SCORE.INTRA.DIHEDRAL>
-28.4954

>  <SCORE.INTRA.DIHEDRAL.0>
31.9578

>  <SCORE.INTRA.POLAR>
0

>  <SCORE.INTRA.POLAR.0>
0

>  <SCORE.INTRA.REPUL>
0

>  <SCORE.INTRA.REPUL.0>
0

>  <SCORE.INTRA.SOLV>
-0.962491

>  <SCORE.INTRA.SOLV.lig_0>
-48.4032

>  <SCORE.INTRA.VDW>
0.702902

>  <SCORE.INTRA.VDW.0>
-1.65238

>  <SCORE.INTRA.norm>
-1.07893

>  <SCORE.RESTR>
0

>  <SCORE.RESTR.CAVITY>
0

>  <SCORE.RESTR.norm>
0

>  <SCORE.SYSTEM>
0

>  <SCORE.SYSTEM.CONST>
0

>  <SCORE.SYSTEM.DIHEDRAL>
0

>  <SCORE.SYSTEM.SOLV>
0

>  <SCORE.SYSTEM.norm>
0

>  <SCORE.heavy>
13

>  <SCORE.norm>
-0.789297

>  <RMSD>
6.107

$$$$
ligand
 OpenBabel11021811473D
libRbt.so/2013.1/901 2013/11/27
 13 12  0  0  0  0  0  0  0  0999 V2000
   35.4362   31.4153   49.8023 O   0  0  0  0  0  0  0  0  0  0  0  0
   33.0157   31.0322   51.5305 O   0  0  0  0  0  0  0  0  0  0  0  0
   36.7611   31.6454   45.6159 P   0  0  1  0  0  0  0  0  0  0  0  0
   38.2126   31.9786   45.4087 O   0  5  0  0  0  0  0  0  0  0  0  0
   35.9172   30.7622   44.8408 O   0  0  0  0  0  0  0  0  0  0  0  0
   36.5716   31.7897   47.2117 O   0  0  0  0  0  0  0  0  0  0  0  0
   31.2501   28.8413   51.1667 O   0  0  0  0  0  0  0  0  0  0  0  0
   37.0399   30.7779   48.1296 C   0  0  0  0  0  0  0  0  0  0  0  0
   33.6706   32.2897   51.2741 C   0  0  0  0  0  0  0  0  0  0  0  0
   31.0155   29.8053   52.2084 C   0  0  0  0  0  0  0  0  0  0  0  0
   36.8371   31.2323   49.5826 C   0  0  0  0  0  0  0  0  0  0  0  0
   35.1866   32.0713   51.0605 C   0  0  0  0  0  0  0  0  0  0  0  0
   31.6112   31.1748   51.8061 C   0  0  0  0  0  0  0  0  0  0  0  0
  1 12  1  0  0  0  0
  1 11  1  0  0  0  0
  2 13  1  0  0  0  0
  2  9  1  0  0  0  0
  3  4  1  1  0  0  0
  3  5  2  0  0  0  0
  3  6  1  0  0  0  0
  6  8  1  0  0  0  0
  7 10  1  0  0  0  0
  8 11  1  0  0  0  0
  9 12  1  0  0  0  0
 10 13  1  0  0  0  0
M  CHG  1   4  -1
M  END
>  <CHROM.1>
178.84609363,-174.33631910,-76.60285783,175.06410482,61.85472170,177.00724851
70.94168713,-57.11409827,-169.50328972,34.98071913,31.17077192,48.86588089
-2.38198909,-0.47816310,-1.84578434

>  <Name>
ligand

>  <RI>
0

>  <Rbt.Current_Directory>
/home/itssahil/PROJECTS/Mol_Feturizer/New_Systems/rnas/3GS8

>  <Rbt.Executable>
rbdock ($Id: //depot/dev/client3/rdock/2013.1/src/exe/rbdock.cxx#4 $)

>  <Rbt.Library>
libRbt.so (2013.1, Build901 2013/11/27)

>  <Rbt.Parameter_File>
/export/apps/rDock/src/rDock_2013.1_src/data/scripts/dock_solv.prm

>  <Rbt.Receptor>
prm/pocket_docking_8.prm

>  <SCORE>
-14.4814

>  <SCORE.INTER>
1.18807

>  <SCORE.INTER.CONST>
1

>  <SCORE.INTER.POLAR>
0

>  <SCORE.INTER.ROT>
9

>  <SCORE.INTER.SOLV>
13.7679

>  <SCORE.INTER.VDW>
-13.3972

>  <SCORE.INTER.norm>
0.0913903

>  <SCORE.INTRA>
-15.6695

>  <SCORE.INTRA.DIHEDRAL>
-30.3338

>  <SCORE.INTRA.DIHEDRAL.0>
31.9578

>  <SCORE.INTRA.POLAR>
0

>  <SCORE.INTRA.POLAR.0>
0

>  <SCORE.INTRA.REPUL>
0

>  <SCORE.INTRA.REPUL.0>
0

>  <SCORE.INTRA.SOLV>
-1.19403

>  <SCORE.INTRA.SOLV.lig_0>
-48.4032

>  <SCORE.INTRA.VDW>
0.0944672

>  <SCORE.INTRA.VDW.0>
-1.65238

>  <SCORE.INTRA.norm>
-1.20534

>  <SCORE.RESTR>
0

>  <SCORE.RESTR.CAVITY>
0

>  <SCORE.RESTR.norm>
0

>  <SCORE.SYSTEM>
0

>  <SCORE.SYSTEM.CONST>
0

>  <SCORE.SYSTEM.DIHEDRAL>
0

>  <SCORE.SYSTEM.SOLV>
0

>  <SCORE.SYSTEM.norm>
0

>  <SCORE.heavy>
13

>  <SCORE.norm>
-1.11395

>  <RMSD>
6.109

$$$$
ligand
 OpenBabel11021811473D
libRbt.so/2013.1/901 2013/11/27
 13 12  0  0  0  0  0  0  0  0999 V2000
   29.7160   32.5947   49.0189 O   0  0  0  0  0  0  0  0  0  0  0  0
   30.7045   32.6044   46.2214 O   0  0  0  0  0  0  0  0  0  0  0  0
   30.3310   36.8020   50.4813 P   0  0  1  0  0  0  0  0  0  0  0  0
   29.9888   37.8811   51.4711 O   0  5  0  0  0  0  0  0  0  0  0  0
   31.2704   36.8490   49.3821 O   0  0  0  0  0  0  0  0  0  0  0  0
   30.0967   35.4429   51.3187 O   0  0  0  0  0  0  0  0  0  0  0  0
   32.9171   33.0870   43.2994 O   0  0  0  0  0  0  0  0  0  0  0  0
   30.3493   34.1415   50.7459 C   0  0  0  0  0  0  0  0  0  0  0  0
   29.4118   33.0925   46.6298 C   0  0  0  0  0  0  0  0  0  0  0  0
   32.5090   32.5637   44.5758 C   0  0  0  0  0  0  0  0  0  0  0  0
   29.4285   33.8940   49.5419 C   0  0  0  0  0  0  0  0  0  0  0  0
   28.9066   32.3068   47.8623 C   0  0  0  0  0  0  0  0  0  0  0  0
   31.2003   33.2485   45.0347 C   0  0  0  0  0  0  0  0  0  0  0  0
  1 12  1  0  0  0  0
  1 11  1  0  0  0  0
  2 13  1  0  0  0  0
  2  9  1  0  0  0  0
  3  4  1  1  0  0  0
  3  5  2  0  0  0  0
  3  6  1  0  0  0  0
  6  8  1  0  0  0  0
  7 10  1  0  0  0  0
  8 11  1  0  0  0  0
  9 12  1  0  0  0  0
 10 13  1  0  0  0  0
M  CHG  1   4  -1
M  END
>  <CHROM.1>
74.49053920,-173.74164365,-178.30012586,-62.31374855,-179.77058735,176.95018932
67.76569303,172.62290338,-178.64299951,30.52417905,34.43321676,48.32970207
1.25276568,-0.90580388,-2.38013678

>  <Name>
ligand

>  <RI>
0

>  <Rbt.Current_Directory>
/home/itssahil/PROJECTS/Mol_Feturizer/New_Systems/rnas/3GS8

>  <Rbt.Executable>
rbdock ($Id: //depot/dev/client3/rdock/2013.1/src/exe/rbdock.cxx#4 $)

>  <Rbt.Library>
libRbt.so (2013.1, Build901 2013/11/27)

>  <Rbt.Parameter_File>
/export/apps/rDock/src/rDock_2013.1_src/data/scripts/dock_solv.prm

>  <Rbt.Receptor>
prm/pocket_docking_3.prm

>  <SCORE>
-7.63901

>  <SCORE.INTER>
6.10939

>  <SCORE.INTER.CONST>
1

>  <SCORE.INTER.POLAR>
0

>  <SCORE.INTER.ROT>
9

>  <SCORE.INTER.SOLV>
8.7638

>  <SCORE.INTER.VDW>
-8.44834

>  <SCORE.INTER.norm>
0.469953

>  <SCORE.INTRA>
-13.7484

>  <SCORE.INTRA.DIHEDRAL>
-29.7689

>  <SCORE.INTRA.DIHEDRAL.0>
31.9578

>  <SCORE.INTRA.POLAR>
0

>  <SCORE.INTRA.POLAR.0>
0

>  <SCORE.INTRA.REPUL>
0

>  <SCORE.INTRA.REPUL.0>
0

>  <SCORE.INTRA.SOLV>
-0.290645

>  <SCORE.INTRA.SOLV.lig_0>
-48.4032

>  <SCORE.INTRA.VDW>
1.28136

>  <SCORE.INTRA.VDW.0>
-1.65238

>  <SCORE.INTRA.norm>
-1.05757

>  <SCORE.RESTR>
0

>  <SCORE.RESTR.CAVITY>
0

>  <SCORE.RESTR.norm>
0

>  <SCORE.SYSTEM>
0

>  <SCORE.SYSTEM.CONST>
0

>  <SCORE.SYSTEM.DIHEDRAL>
0

>  <SCORE.SYSTEM.SOLV>
0

>  <SCORE.SYSTEM.norm>
0

>  <SCORE.heavy>
13

>  <SCORE.norm>
-0.587616

>  <RMSD>
6.129

$$$$
ligand
 OpenBabel11021811473D
libRbt.so/2013.1/901 2013/11/27
 13 12  0  0  0  0  0  0  0  0999 V2000
   30.2338   32.9915   46.6991 O   0  0  0  0  0  0  0  0  0  0  0  0
   32.1850   32.6739   44.5413 O   0  0  0  0  0  0  0  0  0  0  0  0
   30.6600   33.6997   49.7116 P   0  0  1  0  0  0  0  0  0  0  0  0
   31.6678   32.6773   50.1588 O   0  5  0  0  0  0  0  0  0  0  0  0
   30.8704   34.8853   48.9098 O   0  0  0  0  0  0  0  0  0  0  0  0
   29.2943   32.8483   49.5963 O   0  0  0  0  0  0  0  0  0  0  0  0
   35.5014   31.4656   43.4444 O   0  0  0  0  0  0  0  0  0  0  0  0
   29.0578   31.9305   48.5066 C   0  0  0  0  0  0  0  0  0  0  0  0
   31.6002   33.9438   44.8895 C   0  0  0  0  0  0  0  0  0  0  0  0
   34.0924   31.3859   43.7234 C   0  0  0  0  0  0  0  0  0  0  0  0
   28.9210   32.6920   47.1799 C   0  0  0  0  0  0  0  0  0  0  0  0
   30.1809   33.7398   45.4691 C   0  0  0  0  0  0  0  0  0  0  0  0
   33.5441   32.7865   44.0838 C   0  0  0  0  0  0  0  0  0  0  0  0
  1 12  1  0  0  0  0
  1 11  1  0  0  0  0
  2 13  1  0  0  0  0
  2  9  1  0  0  0  0
  3  4  1  6  0  0  0
  3  5  2  0  0  0  0
  3  6  1  0  0  0  0
  6  8  1  0  0  0  0
  7 10  1  0  0  0  0
  8 11  1  0  0  0  0
  9 12  1  0  0  0  0
 10 13  1  0  0  0  0
M  CHG  1   4  -1
M  END
>  <CHROM.1>
-174.70352429,-179.63519537,-74.61807768,-67.06059000,80.97233991,-175.85022793
63.63418622,-172.02385170,-178.48209371,31.32726431,32.96684641,46.95876789
2.17691623,-0.18897771,1.49613981

>  <Name>
ligand

>  <RI>
0

>  <Rbt.Current_Directory>
/home/itssahil/PROJECTS/Mol_Feturizer/New_Systems/rnas/3GS8

>  <Rbt.Executable>
rbdock ($Id: //depot/dev/client3/rdock/2013.1/src/exe/rbdock.cxx#4 $)

>  <Rbt.Library>
libRbt.so (2013.1, Build901 2013/11/27)

>  <Rbt.Parameter_File>
/export/apps/rDock/src/rDock_2013.1_src/data/scripts/dock_solv.prm

>  <Rbt.Receptor>
prm/pocket_docking_3.prm

>  <SCORE>
-9.0595

>  <SCORE.INTER>
4.34023

>  <SCORE.INTER.CONST>
1

>  <SCORE.INTER.POLAR>
0

>  <SCORE.INTER.ROT>
9

>  <SCORE.INTER.SOLV>
5.46301

>  <SCORE.INTER.VDW>
-8.52752

>  <SCORE.INTER.norm>
0.333864

>  <SCORE.INTRA>
-13.3997

>  <SCORE.INTRA.DIHEDRAL>
-29.406

>  <SCORE.INTRA.DIHEDRAL.0>
31.9578

>  <SCORE.INTRA.POLAR>
0

>  <SCORE.INTRA.POLAR.0>
0

>  <SCORE.INTRA.REPUL>
0

>  <SCORE.INTRA.REPUL.0>
0

>  <SCORE.INTRA.SOLV>
3.22015

>  <SCORE.INTRA.SOLV.lig_0>
-48.4032

>  <SCORE.INTRA.VDW>
-0.306782

>  <SCORE.INTRA.VDW.0>
-1.65238

>  <SCORE.INTRA.norm>
-1.03075

>  <SCORE.RESTR>
0

>  <SCORE.RESTR.CAVITY>
0

>  <SCORE.RESTR.norm>
0

>  <SCORE.SYSTEM>
0

>  <SCORE.SYSTEM.CONST>
0

>  <SCORE.SYSTEM.DIHEDRAL>
0

>  <SCORE.SYSTEM.SOLV>
0

>  <SCORE.SYSTEM.norm>
0

>  <SCORE.heavy>
13

>  <SCORE.norm>
-0.696885

>  <RMSD>
6.174

$$$$
ligand
 OpenBabel11021811473D
libRbt.so/2013.1/901 2013/11/27
 13 12  0  0  0  0  0  0  0  0999 V2000
   29.3266   32.5610   49.0067 O   0  0  0  0  0  0  0  0  0  0  0  0
   30.4183   32.7078   46.3018 O   0  0  0  0  0  0  0  0  0  0  0  0
   30.0638   34.5935   52.7760 P   0  0  1  0  0  0  0  0  0  0  0  0
   31.4531   34.8073   52.2421 O   0  5  0  0  0  0  0  0  0  0  0  0
   29.2904   35.4480   53.6504 O   0  0  0  0  0  0  0  0  0  0  0  0
   29.3515   33.7238   51.6186 O   0  0  0  0  0  0  0  0  0  0  0  0
   33.1964   33.4378   46.0294 O   0  0  0  0  0  0  0  0  0  0  0  0
   29.7099   32.3472   51.3697 C   0  0  0  0  0  0  0  0  0  0  0  0
   29.0308   32.9592   46.5980 C   0  0  0  0  0  0  0  0  0  0  0  0
   32.3766   33.1015   44.8961 C   0  0  0  0  0  0  0  0  0  0  0  0
   28.9436   31.8012   50.1558 C   0  0  0  0  0  0  0  0  0  0  0  0
   28.5916   32.1473   47.8388 C   0  0  0  0  0  0  0  0  0  0  0  0
   30.9019   33.4699   45.1817 C   0  0  0  0  0  0  0  0  0  0  0  0
  1 12  1  0  0  0  0
  1 11  1  0  0  0  0
  2 13  1  0  0  0  0
  2  9  1  0  0  0  0
  3  4  1  6  0  0  0
  3  5  2  0  0  0  0
  3  6  1  0  0  0  0
  6  8  1  0  0  0  0
  7 10  1  0  0  0  0
  8 11  1  0  0  0  0
  9 12  1  0  0  0  0
 10 13  1  0  0  0  0
M  CHG  1   4  -1
M  END
>  <CHROM.1>
-179.05374836,-177.75744489,70.47039577,-176.16785642,62.45488725,-178.04022771
63.03167377,-62.11100632,-176.99924801,30.20984708,33.44445150,49.39256955
1.35646901,-0.52295548,-1.88268821

>  <Name>
ligand

>  <RI>
0

>  <Rbt.Current_Directory>
/home/itssahil/PROJECTS/Mol_Feturizer/New_Systems/rnas/3GS8

>  <Rbt.Executable>
rbdock ($Id: //depot/dev/client3/rdock/2013.1/src/exe/rbdock.cxx#4 $)

>  <Rbt.Library>
libRbt.so (2013.1, Build901 2013/11/27)

>  <Rbt.Parameter_File>
/export/apps/rDock/src/rDock_2013.1_src/data/scripts/dock_solv.prm

>  <Rbt.Receptor>
prm/pocket_docking_4.prm

>  <SCORE>
-10.4119

>  <SCORE.INTER>
5.64278

>  <SCORE.INTER.CONST>
1

>  <SCORE.INTER.POLAR>
0

>  <SCORE.INTER.ROT>
9

>  <SCORE.INTER.SOLV>
4.86802

>  <SCORE.INTER.VDW>
-7.46082

>  <SCORE.INTER.norm>
0.43406

>  <SCORE.INTRA>
-16.0546

>  <SCORE.INTRA.DIHEDRAL>
-31

>  <SCORE.INTRA.DIHEDRAL.0>
31.9578

>  <SCORE.INTRA.POLAR>
0

>  <SCORE.INTRA.POLAR.0>
0

>  <SCORE.INTRA.REPUL>
0

>  <SCORE.INTRA.REPUL.0>
0

>  <SCORE.INTRA.SOLV>
-1.29837

>  <SCORE.INTRA.SOLV.lig_0>
-48.4032

>  <SCORE.INTRA.VDW>
0.0945678

>  <SCORE.INTRA.VDW.0>
-1.65238

>  <SCORE.INTRA.norm>
-1.23497

>  <SCORE.RESTR>
0

>  <SCORE.RESTR.CAVITY>
0

>  <SCORE.RESTR.norm>
0

>  <SCORE.SYSTEM>
0

>  <SCORE.SYSTEM.CONST>
0

>  <SCORE.SYSTEM.DIHEDRAL>
0

>  <SCORE.SYSTEM.SOLV>
0

>  <SCORE.SYSTEM.norm>
0

>  <SCORE.heavy>
13

>  <SCORE.norm>
-0.800912

>  <RMSD>
6.218

$$$$
ligand
 OpenBabel11021811473D
libRbt.so/2013.1/901 2013/11/27
 13 12  0  0  0  0  0  0  0  0999 V2000
   36.5765   31.2869   48.8599 O   0  0  0  0  0  0  0  0  0  0  0  0
   34.5332   31.3627   50.9206 O   0  0  0  0  0  0  0  0  0  0  0  0
   36.9304   32.5445   44.6617 P   0  0  1  0  0  0  0  0  0  0  0  0
   35.5248   32.0565   44.4448 O   0  5  0  0  0  0  0  0  0  0  0  0
   37.5975   33.6763   44.0559 O   0  0  0  0  0  0  0  0  0  0  0  0
   37.2427   32.1112   46.1841 O   0  0  0  0  0  0  0  0  0  0  0  0
   31.0884   31.8996   52.1617 O   0  0  0  0  0  0  0  0  0  0  0  0
   37.2034   30.7310   46.6073 C   0  0  0  0  0  0  0  0  0  0  0  0
   35.8116   32.0067   51.0836 C   0  0  0  0  0  0  0  0  0  0  0  0
   32.1522   31.2408   51.4519 C   0  0  0  0  0  0  0  0  0  0  0  0
   37.5759   30.6113   48.0924 C   0  0  0  0  0  0  0  0  0  0  0  0
   36.8941   31.2653   50.2649 C   0  0  0  0  0  0  0  0  0  0  0  0
   33.4824   31.9998   51.6684 C   0  0  0  0  0  0  0  0  0  0  0  0
  1 12  1  0  0  0  0
  1 11  1  0  0  0  0
  2 13  1  0  0  0  0
  2  9  1  0  0  0  0
  3  4  1  1  0  0  0
  3  5  2  0  0  0  0
  3  6  1  0  0  0  0
  6  8  1  0  0  0  0
  7 10  1  0  0  0  0
  8 11  1  0  0  0  0
  9 12  1  0  0  0  0
 10 13  1  0  0  0  0
M  CHG  1   4  -1
M  END
>  <CHROM.1>
179.61756524,-179.37545683,59.88432262,178.54727076,64.34358702,179.50457904
61.20740762,-178.08442628,-177.46100876,35.68468757,31.83429319,48.14821136
-2.11204505,0.22670489,-1.31768205

>  <Name>
ligand

>  <RI>
0

>  <Rbt.Current_Directory>
/home/itssahil/PROJECTS/Mol_Feturizer/New_Systems/rnas/3GS8

>  <Rbt.Executable>
rbdock ($Id: //depot/dev/client3/rdock/2013.1/src/exe/rbdock.cxx#4 $)

>  <Rbt.Library>
libRbt.so (2013.1, Build901 2013/11/27)

>  <Rbt.Parameter_File>
/export/apps/rDock/src/rDock_2013.1_src/data/scripts/dock_solv.prm

>  <Rbt.Receptor>
prm/pocket_docking_6.prm

>  <SCORE>
-14.4616

>  <SCORE.INTER>
1.73665

>  <SCORE.INTER.CONST>
1

>  <SCORE.INTER.POLAR>
0

>  <SCORE.INTER.ROT>
9

>  <SCORE.INTER.SOLV>
5.42224

>  <SCORE.INTER.VDW>
-10.2496

>  <SCORE.INTER.norm>
0.133589

>  <SCORE.INTRA>
-16.1982

>  <SCORE.INTRA.DIHEDRAL>
-31.36

>  <SCORE.INTRA.DIHEDRAL.0>
31.9578

>  <SCORE.INTRA.POLAR>
0

>  <SCORE.INTRA.POLAR.0>
0

>  <SCORE.INTRA.REPUL>
0

>  <SCORE.INTRA.REPUL.0>
0

>  <SCORE.INTRA.SOLV>
-1.54973

>  <SCORE.INTRA.SOLV.lig_0>
-48.4032

>  <SCORE.INTRA.VDW>
0.256632

>  <SCORE.INTRA.VDW.0>
-1.65238

>  <SCORE.INTRA.norm>
-1.24602

>  <SCORE.RESTR>
0

>  <SCORE.RESTR.CAVITY>
0

>  <SCORE.RESTR.norm>
0

>  <SCORE.SYSTEM>
0

>  <SCORE.SYSTEM.CONST>
0

>  <SCORE.SYSTEM.DIHEDRAL>
0

>  <SCORE.SYSTEM.SOLV>
0

>  <SCORE.SYSTEM.norm>
0

>  <SCORE.heavy>
13

>  <SCORE.norm>
-1.11243

>  <RMSD>
6.221

$$$$
ligand
 OpenBabel11021811473D
libRbt.so/2013.1/901 2013/11/27
 13 12  0  0  0  0  0  0  0  0999 V2000
   31.2951   32.8284   46.8419 O   0  0  0  0  0  0  0  0  0  0  0  0
   32.5016   32.1760   44.3355 O   0  0  0  0  0  0  0  0  0  0  0  0
   32.9362   32.9497   50.8538 P   0  0  1  0  0  0  0  0  0  0  0  0
   31.9657   32.7923   51.9916 O   0  5  0  0  0  0  0  0  0  0  0  0
   34.2441   32.3530   50.6927 O   0  0  0  0  0  0  0  0  0  0  0  0
   31.9777   33.2104   49.5823 O   0  0  0  0  0  0  0  0  0  0  0  0
   35.0889   30.7940   44.3958 O   0  0  0  0  0  0  0  0  0  0  0  0
   30.9996   32.2385   49.1529 C   0  0  0  0  0  0  0  0  0  0  0  0
   31.7949   33.4197   44.5077 C   0  0  0  0  0  0  0  0  0  0  0  0
   34.2591   30.8939   43.2249 C   0  0  0  0  0  0  0  0  0  0  0  0
   30.3044   32.7054   47.8655 C   0  0  0  0  0  0  0  0  0  0  0  0
   30.7121   33.2743   45.6022 C   0  0  0  0  0  0  0  0  0  0  0  0
   33.4538   32.2139   43.2580 C   0  0  0  0  0  0  0  0  0  0  0  0
  1 12  1  0  0  0  0
  1 11  1  0  0  0  0
  2 13  1  0  0  0  0
  2  9  1  0  0  0  0
  3  4  1  1  0  0  0
  3  5  2  0  0  0  0
  3  6  1  0  0  0  0
  6  8  1  0  0  0  0
  7 10  1  0  0  0  0
  8 11  1  0  0  0  0
  9 12  1  0  0  0  0
 10 13  1  0  0  0  0
M  CHG  1   4  -1
M  END
>  <CHROM.1>
179.33561654,174.71663466,-60.75102163,-175.92620674,61.51724152,175.44771530
56.34878918,-67.00246328,-179.58482203,32.49016236,32.48496956,47.45060296
1.44513026,0.37617076,-1.65645371

>  <Name>
ligand

>  <RI>
0

>  <Rbt.Current_Directory>
/home/itssahil/PROJECTS/Mol_Feturizer/New_Systems/rnas/3GS8

>  <Rbt.Executable>
rbdock ($Id: //depot/dev/client3/rdock/2013.1/src/exe/rbdock.cxx#4 $)

>  <Rbt.Library>
libRbt.so (2013.1, Build901 2013/11/27)

>  <Rbt.Parameter_File>
/export/apps/rDock/src/rDock_2013.1_src/data/scripts/dock_solv.prm

>  <Rbt.Receptor>
prm/pocket_docking_7.prm

>  <SCORE>
-11.6408

>  <SCORE.INTER>
4.23576

>  <SCORE.INTER.CONST>
1

>  <SCORE.INTER.POLAR>
0

>  <SCORE.INTER.ROT>
9

>  <SCORE.INTER.SOLV>
8.68719

>  <SCORE.INTER.VDW>
-9.67189

>  <SCORE.INTER.norm>
0.325828

>  <SCORE.INTRA>
-15.8765

>  <SCORE.INTRA.DIHEDRAL>
-30.9437

>  <SCORE.INTRA.DIHEDRAL.0>
31.9578

>  <SCORE.INTRA.POLAR>
0

>  <SCORE.INTRA.POLAR.0>
0

>  <SCORE.INTRA.REPUL>
0

>  <SCORE.INTRA.REPUL.0>
0

>  <SCORE.INTRA.SOLV>
-1.10776

>  <SCORE.INTRA.SOLV.lig_0>
-48.4032

>  <SCORE.INTRA.VDW>
0.149194

>  <SCORE.INTRA.VDW.0>
-1.65238

>  <SCORE.INTRA.norm>
-1.22127

>  <SCORE.RESTR>
0

>  <SCORE.RESTR.CAVITY>
0

>  <SCORE.RESTR.norm>
0

>  <SCORE.SYSTEM>
0

>  <SCORE.SYSTEM.CONST>
0

>  <SCORE.SYSTEM.DIHEDRAL>
0

>  <SCORE.SYSTEM.SOLV>
0

>  <SCORE.SYSTEM.norm>
0

>  <SCORE.heavy>
13

>  <SCORE.norm>
-0.895444

>  <RMSD>
6.228

$$$$
ligand
 OpenBabel11021811473D
libRbt.so/2013.1/901 2013/11/27
 13 12  0  0  0  0  0  0  0  0999 V2000
   36.6915   31.4096   47.9896 O   0  0  0  0  0  0  0  0  0  0  0  0
   34.8772   31.5520   50.2677 O   0  0  0  0  0  0  0  0  0  0  0  0
   35.0501   31.6218   43.9314 P   0  0  1  0  0  0  0  0  0  0  0  0
   34.9103   33.1025   44.1529 O   0  5  0  0  0  0  0  0  0  0  0  0
   35.2571   30.9095   42.6893 O   0  0  0  0  0  0  0  0  0  0  0  0
   35.7086   31.1013   45.3093 O   0  0  0  0  0  0  0  0  0  0  0  0
   32.2846   30.6724   51.3299 O   0  0  0  0  0  0  0  0  0  0  0  0
   37.1000   31.3280   45.6227 C   0  0  0  0  0  0  0  0  0  0  0  0
   36.2941   31.7843   50.3875 C   0  0  0  0  0  0  0  0  0  0  0  0
   32.5947   32.0356   50.9905 C   0  0  0  0  0  0  0  0  0  0  0  0
   37.4503   30.7238   46.9905 C   0  0  0  0  0  0  0  0  0  0  0  0
   37.0623   30.9793   49.3136 C   0  0  0  0  0  0  0  0  0  0  0  0
   34.1008   32.3072   51.2143 C   0  0  0  0  0  0  0  0  0  0  0  0
  1 12  1  0  0  0  0
  1 11  1  0  0  0  0
  2 13  1  0  0  0  0
  2  9  1  0  0  0  0
  3  4  1  6  0  0  0
  3  5  2  0  0  0  0
  3  6  1  0  0  0  0
  6  8  1  0  0  0  0
  7 10  1  0  0  0  0
  8 11  1  0  0  0  0
  9 12  1  0  0  0  0
 10 13  1  0  0  0  0
M  CHG  1   4  -1
M  END
>  <CHROM.1>
176.76580173,178.24104275,-74.68428316,-179.89140773,-63.69120821,-178.16164548
62.52994310,67.27907527,-174.60085935,35.29256675,31.50923527,47.36175293
-1.78128692,0.14131767,-1.53951076

>  <Name>
ligand

>  <RI>
0

>  <Rbt.Current_Directory>
/home/itssahil/PROJECTS/Mol_Feturizer/New_Systems/rnas/3GS8

>  <Rbt.Executable>
rbdock ($Id: //depot/dev/client3/rdock/2013.1/src/exe/rbdock.cxx#4 $)

>  <Rbt.Library>
libRbt.so (2013.1, Build901 2013/11/27)

>  <Rbt.Parameter_File>
/export/apps/rDock/src/rDock_2013.1_src/data/scripts/dock_solv.prm

>  <Rbt.Receptor>
prm/pocket_docking_6.prm

>  <SCORE>
-15.0104

>  <SCORE.INTER>
1.09193

>  <SCORE.INTER.CONST>
1

>  <SCORE.INTER.POLAR>
0

>  <SCORE.INTER.ROT>
9

>  <SCORE.INTER.SOLV>
9.56635

>  <SCORE.INTER.VDW>
-12.0608

>  <SCORE.INTER.norm>
0.0839949

>  <SCORE.INTRA>
-16.1023

>  <SCORE.INTRA.DIHEDRAL>
-31.1741

>  <SCORE.INTRA.DIHEDRAL.0>
31.9578

>  <SCORE.INTRA.POLAR>
0

>  <SCORE.INTRA.POLAR.0>
0

>  <SCORE.INTRA.REPUL>
0

>  <SCORE.INTRA.REPUL.0>
0

>  <SCORE.INTRA.SOLV>
-1.19911

>  <SCORE.INTRA.SOLV.lig_0>
-48.4032

>  <SCORE.INTRA.VDW>
0.0843184

>  <SCORE.INTRA.VDW.0>
-1.65238

>  <SCORE.INTRA.norm>
-1.23864

>  <SCORE.RESTR>
0

>  <SCORE.RESTR.CAVITY>
0

>  <SCORE.RESTR.norm>
0

>  <SCORE.SYSTEM>
0

>  <SCORE.SYSTEM.CONST>
0

>  <SCORE.SYSTEM.DIHEDRAL>
0

>  <SCORE.SYSTEM.SOLV>
0

>  <SCORE.SYSTEM.norm>
0

>  <SCORE.heavy>
13

>  <SCORE.norm>
-1.15464

>  <RMSD>
6.240

$$$$
ligand
 OpenBabel11021811473D
libRbt.so/2013.1/901 2013/11/27
 13 12  0  0  0  0  0  0  0  0999 V2000
   31.5509   31.0075   50.8851 O   0  0  0  0  0  0  0  0  0  0  0  0
   34.3014   31.7574   51.7079 O   0  0  0  0  0  0  0  0  0  0  0  0
   29.3601   33.0133   47.5848 P   0  0  1  0  0  0  0  0  0  0  0  0
   30.6290   32.9145   46.7841 O   0  5  0  0  0  0  0  0  0  0  0  0
   27.9947   32.8397   47.1393 O   0  0  0  0  0  0  0  0  0  0  0  0
   29.8179   32.5566   49.0630 O   0  0  0  0  0  0  0  0  0  0  0  0
   36.4558   31.8658   53.5890 O   0  0  0  0  0  0  0  0  0  0  0  0
   29.5535   31.2293   49.5670 C   0  0  0  0  0  0  0  0  0  0  0  0
   33.6467   32.2412   50.5192 C   0  0  0  0  0  0  0  0  0  0  0  0
   35.1024   32.1569   53.9805 C   0  0  0  0  0  0  0  0  0  0  0  0
   30.1256   31.0660   50.9829 C   0  0  0  0  0  0  0  0  0  0  0  0
   32.1189   32.3240   50.7442 C   0  0  0  0  0  0  0  0  0  0  0  0
   34.3127   32.7208   52.7761 C   0  0  0  0  0  0  0  0  0  0  0  0
  1 12  1  0  0  0  0
  1 11  1  0  0  0  0
  2 13  1  0  0  0  0
  2  9  1  0  0  0  0
  3  4  1  6  0  0  0
  3  5  2  0  0  0  0
  3  6  1  0  0  0  0
  6  8  1  0  0  0  0
  7 10  1  0  0  0  0
  8 11  1  0  0  0  0
  9 12  1  0  0  0  0
 10 13  1  0  0  0  0
M  CHG  1   4  -1
M  END
>  <CHROM.1>
-175.19805742,-176.70689619,-101.06182483,178.77045340,-71.74956781,-71.64109534
-67.79257025,59.71717319,80.00234928,31.70794979,32.20259445,50.15200771
0.67841305,0.31177137,2.05463178

>  <Name>
ligand

>  <RI>
0

>  <Rbt.Current_Directory>
/home/itssahil/PROJECTS/Mol_Feturizer/New_Systems/rnas/3GS8

>  <Rbt.Executable>
rbdock ($Id: //depot/dev/client3/rdock/2013.1/src/exe/rbdock.cxx#4 $)

>  <Rbt.Library>
libRbt.so (2013.1, Build901 2013/11/27)

>  <Rbt.Parameter_File>
/export/apps/rDock/src/rDock_2013.1_src/data/scripts/dock_solv.prm

>  <Rbt.Receptor>
prm/pocket_docking_7.prm

>  <SCORE>
-8.95898

>  <SCORE.INTER>
3.41649

>  <SCORE.INTER.CONST>
1

>  <SCORE.INTER.POLAR>
0

>  <SCORE.INTER.ROT>
9

>  <SCORE.INTER.SOLV>
8.96803

>  <SCORE.INTER.VDW>
-10.3117

>  <SCORE.INTER.norm>
0.262807

>  <SCORE.INTRA>
-12.3755

>  <SCORE.INTRA.DIHEDRAL>
-27.9486

>  <SCORE.INTRA.DIHEDRAL.0>
31.9578

>  <SCORE.INTRA.POLAR>
0

>  <SCORE.INTRA.POLAR.0>
0

>  <SCORE.INTRA.REPUL>
0

>  <SCORE.INTRA.REPUL.0>
0

>  <SCORE.INTRA.SOLV>
-0.521796

>  <SCORE.INTRA.SOLV.lig_0>
-48.4032

>  <SCORE.INTRA.VDW>
1.85976

>  <SCORE.INTRA.VDW.0>
-1.65238

>  <SCORE.INTRA.norm>
-0.951959

>  <SCORE.RESTR>
0

>  <SCORE.RESTR.CAVITY>
0

>  <SCORE.RESTR.norm>
0

>  <SCORE.SYSTEM>
0

>  <SCORE.SYSTEM.CONST>
0

>  <SCORE.SYSTEM.DIHEDRAL>
0

>  <SCORE.SYSTEM.SOLV>
0

>  <SCORE.SYSTEM.norm>
0

>  <SCORE.heavy>
13

>  <SCORE.norm>
-0.689152

>  <RMSD>
6.247

$$$$
ligand
 OpenBabel11021811473D
libRbt.so/2013.1/901 2013/11/27
 13 12  0  0  0  0  0  0  0  0999 V2000
   30.2167   33.2560   48.3825 O   0  0  0  0  0  0  0  0  0  0  0  0
   31.8469   32.4135   45.1493 O   0  0  0  0  0  0  0  0  0  0  0  0
   30.3378   35.8406   50.0939 P   0  0  1  0  0  0  0  0  0  0  0  0
   30.4724   36.9316   51.1199 O   0  5  0  0  0  0  0  0  0  0  0  0
   30.9297   35.7615   48.7762 O   0  0  0  0  0  0  0  0  0  0  0  0
   30.1163   34.5160   50.9879 O   0  0  0  0  0  0  0  0  0  0  0  0
   34.1171   31.4195   43.7530 O   0  0  0  0  0  0  0  0  0  0  0  0
   29.2358   33.4511   50.5679 C   0  0  0  0  0  0  0  0  0  0  0  0
   31.2241   33.2552   46.1390 C   0  0  0  0  0  0  0  0  0  0  0  0
   33.1090   32.1860   43.0705 C   0  0  0  0  0  0  0  0  0  0  0  0
   29.9505   32.5189   49.5784 C   0  0  0  0  0  0  0  0  0  0  0  0
   30.8316   32.4222   47.3814 C   0  0  0  0  0  0  0  0  0  0  0  0
   32.4217   33.1562   44.0597 C   0  0  0  0  0  0  0  0  0  0  0  0
  1 12  1  0  0  0  0
  1 11  1  0  0  0  0
  2 13  1  0  0  0  0
  2  9  1  0  0  0  0
  3  4  1  1  0  0  0
  3  5  2  0  0  0  0
  3  6  1  0  0  0  0
  6  8  1  0  0  0  0
  7 10  1  0  0  0  0
  8 11  1  0  0  0  0
  9 12  1  0  0  0  0
 10 13  1  0  0  0  0
M  CHG  1   4  -1
M  END
>  <CHROM.1>
-175.19207151,178.08166555,143.76095675,82.19509236,-66.11160206,-170.93484457
179.56288062,-57.88129929,-177.24062471,31.08295553,33.82686574,47.84140833
2.30240269,1.00584092,0.46824890

>  <Name>
ligand

>  <RI>
0

>  <Rbt.Current_Directory>
/home/itssahil/PROJECTS/Mol_Feturizer/New_Systems/rnas/3GS8

>  <Rbt.Executable>
rbdock ($Id: //depot/dev/client3/rdock/2013.1/src/exe/rbdock.cxx#4 $)

>  <Rbt.Library>
libRbt.so (2013.1, Build901 2013/11/27)

>  <Rbt.Parameter_File>
/export/apps/rDock/src/rDock_2013.1_src/data/scripts/dock_solv.prm

>  <Rbt.Receptor>
prm/pocket_docking_3.prm

>  <SCORE>
-7.59427

>  <SCORE.INTER>
5.46241

>  <SCORE.INTER.CONST>
1

>  <SCORE.INTER.POLAR>
0

>  <SCORE.INTER.ROT>
9

>  <SCORE.INTER.SOLV>
8.55394

>  <SCORE.INTER.VDW>
-8.80971

>  <SCORE.INTER.norm>
0.420185

>  <SCORE.INTRA>
-13.0567

>  <SCORE.INTRA.DIHEDRAL>
-28.5296

>  <SCORE.INTRA.DIHEDRAL.0>
31.9578

>  <SCORE.INTRA.POLAR>
0

>  <SCORE.INTRA.POLAR.0>
0

>  <SCORE.INTRA.REPUL>
0

>  <SCORE.INTRA.REPUL.0>
0

>  <SCORE.INTRA.SOLV>
2.7123

>  <SCORE.INTRA.SOLV.lig_0>
-48.4032

>  <SCORE.INTRA.VDW>
-0.148021

>  <SCORE.INTRA.VDW.0>
-1.65238

>  <SCORE.INTRA.norm>
-1.00436

>  <SCORE.RESTR>
0

>  <SCORE.RESTR.CAVITY>
0

>  <SCORE.RESTR.norm>
0

>  <SCORE.SYSTEM>
0

>  <SCORE.SYSTEM.CONST>
0

>  <SCORE.SYSTEM.DIHEDRAL>
0

>  <SCORE.SYSTEM.SOLV>
0

>  <SCORE.SYSTEM.norm>
0

>  <SCORE.heavy>
13

>  <SCORE.norm>
-0.584175

>  <RMSD>
6.256

$$$$
ligand
 OpenBabel11021811473D
libRbt.so/2013.1/901 2013/11/27
 13 12  0  0  0  0  0  0  0  0999 V2000
   29.4422   35.3878   46.3698 O   0  0  0  0  0  0  0  0  0  0  0  0
   30.5523   33.2613   47.9153 O   0  0  0  0  0  0  0  0  0  0  0  0
   29.4476   39.0140   48.7030 P   0  0  1  0  0  0  0  0  0  0  0  0
   30.9077   39.1170   48.3585 O   0  5  0  0  0  0  0  0  0  0  0  0
   28.5094   40.0775   48.9886 O   0  0  0  0  0  0  0  0  0  0  0  0
   28.9792   37.6743   47.9354 O   0  0  0  0  0  0  0  0  0  0  0  0
   33.1455   32.1464   50.3081 O   0  0  0  0  0  0  0  0  0  0  0  0
   28.6944   37.6669   46.5196 C   0  0  0  0  0  0  0  0  0  0  0  0
   30.2848   33.0817   46.5110 C   0  0  0  0  0  0  0  0  0  0  0  0
   31.9477   32.8110   49.8688 C   0  0  0  0  0  0  0  0  0  0  0  0
   28.3465   36.2477   46.0468 C   0  0  0  0  0  0  0  0  0  0  0  0
   29.1366   34.0144   46.0600 C   0  0  0  0  0  0  0  0  0  0  0  0
   31.7172   32.5457   48.3626 C   0  0  0  0  0  0  0  0  0  0  0  0
  1 12  1  0  0  0  0
  1 11  1  0  0  0  0
  2 13  1  0  0  0  0
  2  9  1  0  0  0  0
  3  4  1  6  0  0  0
  3  5  2  0  0  0  0
  3  6  1  0  0  0  0
  6  8  1  0  0  0  0
  7 10  1  0  0  0  0
  8 11  1  0  0  0  0
  9 12  1  0  0  0  0
 10 13  1  0  0  0  0
M  CHG  1   4  -1
M  END
>  <CHROM.1>
-175.73229085,178.99391602,-79.25241430,176.94153802,-57.39392190,-172.75600939
55.95974473,-177.42075010,174.93751060,30.04383298,35.92833554,47.93760542
0.96447396,0.88616037,-2.71824016

>  <Name>
ligand

>  <RI>
0

>  <Rbt.Current_Directory>
/home/itssahil/PROJECTS/Mol_Feturizer/New_Systems/rnas/3GS8

>  <Rbt.Executable>
rbdock ($Id: //depot/dev/client3/rdock/2013.1/src/exe/rbdock.cxx#4 $)

>  <Rbt.Library>
libRbt.so (2013.1, Build901 2013/11/27)

>  <Rbt.Parameter_File>
/export/apps/rDock/src/rDock_2013.1_src/data/scripts/dock_solv.prm

>  <Rbt.Receptor>
prm/pocket_docking_3.prm

>  <SCORE>
-7.16999

>  <SCORE.INTER>
8.91749

>  <SCORE.INTER.CONST>
1

>  <SCORE.INTER.POLAR>
0

>  <SCORE.INTER.ROT>
9

>  <SCORE.INTER.SOLV>
5.32573

>  <SCORE.INTER.VDW>
-5.43025

>  <SCORE.INTER.norm>
0.685961

>  <SCORE.INTRA>
-16.0875

>  <SCORE.INTRA.DIHEDRAL>
-31.0368

>  <SCORE.INTRA.DIHEDRAL.0>
31.9578

>  <SCORE.INTRA.POLAR>
0

>  <SCORE.INTRA.POLAR.0>
0

>  <SCORE.INTRA.REPUL>
0

>  <SCORE.INTRA.REPUL.0>
0

>  <SCORE.INTRA.SOLV>
-1.35246

>  <SCORE.INTRA.SOLV.lig_0>
-48.4032

>  <SCORE.INTRA.VDW>
0.107142

>  <SCORE.INTRA.VDW.0>
-1.65238

>  <SCORE.INTRA.norm>
-1.2375

>  <SCORE.RESTR>
0

>  <SCORE.RESTR.CAVITY>
0

>  <SCORE.RESTR.norm>
0

>  <SCORE.SYSTEM>
0

>  <SCORE.SYSTEM.CONST>
0

>  <SCORE.SYSTEM.DIHEDRAL>
0

>  <SCORE.SYSTEM.SOLV>
0

>  <SCORE.SYSTEM.norm>
0

>  <SCORE.heavy>
13

>  <SCORE.norm>
-0.551538

>  <RMSD>
6.259

$$$$
ligand
 OpenBabel11021811473D
libRbt.so/2013.1/901 2013/11/27
 13 12  0  0  0  0  0  0  0  0999 V2000
   35.9630   32.2720   50.5331 O   0  0  0  0  0  0  0  0  0  0  0  0
   32.7668   31.1842   52.0752 O   0  0  0  0  0  0  0  0  0  0  0  0
   38.1100   30.9456   46.1329 P   0  0  1  0  0  0  0  0  0  0  0  0
   37.2885   31.8934   45.3036 O   0  5  0  0  0  0  0  0  0  0  0  0
   39.5494   30.8156   46.1967 O   0  0  0  0  0  0  0  0  0  0  0  0
   37.1937   30.7060   47.4391 O   0  0  0  0  0  0  0  0  0  0  0  0
   31.1362   28.9680   52.9609 O   0  0  0  0  0  0  0  0  0  0  0  0
   37.0645   31.7055   48.4735 C   0  0  0  0  0  0  0  0  0  0  0  0
   33.6166   31.7642   51.0666 C   0  0  0  0  0  0  0  0  0  0  0  0
   30.5940   30.2803   52.7293 C   0  0  0  0  0  0  0  0  0  0  0  0
   36.1180   31.2174   49.5801 C   0  0  0  0  0  0  0  0  0  0  0  0
   35.0652   31.8898   51.5930 C   0  0  0  0  0  0  0  0  0  0  0  0
   31.4100   31.0041   51.6328 C   0  0  0  0  0  0  0  0  0  0  0  0
  1 12  1  0  0  0  0
  1 11  1  0  0  0  0
  2 13  1  0  0  0  0
  2  9  1  0  0  0  0
  3  4  1  1  0  0  0
  3  5  2  0  0  0  0
  3  6  1  0  0  0  0
  6  8  1  0  0  0  0
  7 10  1  0  0  0  0
  8 11  1  0  0  0  0
  9 12  1  0  0  0  0
 10 13  1  0  0  0  0
M  CHG  1   4  -1
M  END
>  <CHROM.1>
-68.89777402,175.66133606,-75.18161540,179.15037184,-176.54367774,-178.29930416
171.09162154,-62.63311077,179.02028789,35.34423504,31.10349882,49.35373242
-2.53040128,-0.48575472,-2.05027405

>  <Name>
ligand

>  <RI>
0

>  <Rbt.Current_Directory>
/home/itssahil/PROJECTS/Mol_Feturizer/New_Systems/rnas/3GS8

>  <Rbt.Executable>
rbdock ($Id: //depot/dev/client3/rdock/2013.1/src/exe/rbdock.cxx#4 $)

>  <Rbt.Library>
libRbt.so (2013.1, Build901 2013/11/27)

>  <Rbt.Parameter_File>
/export/apps/rDock/src/rDock_2013.1_src/data/scripts/dock_solv.prm

>  <Rbt.Receptor>
prm/pocket_docking_7.prm

>  <SCORE>
-14.1066

>  <SCORE.INTER>
0.452344

>  <SCORE.INTER.CONST>
1

>  <SCORE.INTER.POLAR>
0

>  <SCORE.INTER.ROT>
9

>  <SCORE.INTER.SOLV>
9.49128

>  <SCORE.INTER.VDW>
-12.4622

>  <SCORE.INTER.norm>
0.0347957

>  <SCORE.INTRA>
-14.5589

>  <SCORE.INTRA.DIHEDRAL>
-30.8104

>  <SCORE.INTRA.DIHEDRAL.0>
31.9578

>  <SCORE.INTRA.POLAR>
0

>  <SCORE.INTRA.POLAR.0>
0

>  <SCORE.INTRA.REPUL>
0

>  <SCORE.INTRA.REPUL.0>
0

>  <SCORE.INTRA.SOLV>
-1.39438

>  <SCORE.INTRA.SOLV.lig_0>
-48.4032

>  <SCORE.INTRA.VDW>
1.54349

>  <SCORE.INTRA.VDW.0>
-1.65238

>  <SCORE.INTRA.norm>
-1.11992

>  <SCORE.RESTR>
0

>  <SCORE.RESTR.CAVITY>
0

>  <SCORE.RESTR.norm>
0

>  <SCORE.SYSTEM>
0

>  <SCORE.SYSTEM.CONST>
0

>  <SCORE.SYSTEM.DIHEDRAL>
0

>  <SCORE.SYSTEM.SOLV>
0

>  <SCORE.SYSTEM.norm>
0

>  <SCORE.heavy>
13

>  <SCORE.norm>
-1.08512

>  <RMSD>
6.265

$$$$
ligand
 OpenBabel11021811473D
libRbt.so/2013.1/901 2013/11/27
 13 12  0  0  0  0  0  0  0  0999 V2000
   34.8819   31.6349   50.5229 O   0  0  0  0  0  0  0  0  0  0  0  0
   32.2729   31.0045   51.6551 O   0  0  0  0  0  0  0  0  0  0  0  0
   38.6043   30.4057   47.3028 P   0  0  1  0  0  0  0  0  0  0  0  0
   38.8939   31.0180   45.9603 O   0  5  0  0  0  0  0  0  0  0  0  0
   39.4968   29.6701   48.1718 O   0  0  0  0  0  0  0  0  0  0  0  0
   37.4560   31.3643   47.9076 O   0  0  0  0  0  0  0  0  0  0  0  0
   29.8371   29.6312   50.9520 O   0  0  0  0  0  0  0  0  0  0  0  0
   36.6795   30.9869   49.0653 C   0  0  0  0  0  0  0  0  0  0  0  0
   33.0621   32.1236   52.1033 C   0  0  0  0  0  0  0  0  0  0  0  0
   30.6003   29.2867   52.1218 C   0  0  0  0  0  0  0  0  0  0  0  0
   35.6762   32.0925   49.4257 C   0  0  0  0  0  0  0  0  0  0  0  0
   33.9517   32.6479   50.9521 C   0  0  0  0  0  0  0  0  0  0  0  0
   31.3487   30.5325   52.6512 C   0  0  0  0  0  0  0  0  0  0  0  0
  1 12  1  0  0  0  0
  1 11  1  0  0  0  0
  2 13  1  0  0  0  0
  2  9  1  0  0  0  0
  3  4  1  6  0  0  0
  3  5  2  0  0  0  0
  3  6  1  0  0  0  0
  6  8  1  0  0  0  0
  7 10  1  0  0  0  0
  8 11  1  0  0  0  0
  9 12  1  0  0  0  0
 10 13  1  0  0  0  0
M  CHG  1   4  -1
M  END
>  <CHROM.1>
177.86217208,-176.85136650,166.67679884,179.34284067,176.52928688,-175.62102949
-62.25759162,-61.90007840,177.60089819,35.16710823,30.89667464,49.65811887
-2.87227886,-0.48881462,-2.58976943

>  <Name>
ligand

>  <RI>
0

>  <Rbt.Current_Directory>
/home/itssahil/PROJECTS/Mol_Feturizer/New_Systems/rnas/3GS8

>  <Rbt.Executable>
rbdock ($Id: //depot/dev/client3/rdock/2013.1/src/exe/rbdock.cxx#4 $)

>  <Rbt.Library>
libRbt.so (2013.1, Build901 2013/11/27)

>  <Rbt.Parameter_File>
/export/apps/rDock/src/rDock_2013.1_src/data/scripts/dock_solv.prm

>  <Rbt.Receptor>
prm/pocket_docking_6.prm

>  <SCORE>
-14.9835

>  <SCORE.INTER>
1.26305

>  <SCORE.INTER.CONST>
1

>  <SCORE.INTER.POLAR>
0

>  <SCORE.INTER.ROT>
9

>  <SCORE.INTER.SOLV>
10.3465

>  <SCORE.INTER.VDW>
-12.2068

>  <SCORE.INTER.norm>
0.0971577

>  <SCORE.INTRA>
-16.2466

>  <SCORE.INTRA.DIHEDRAL>
-31.3948

>  <SCORE.INTRA.DIHEDRAL.0>
31.9578

>  <SCORE.INTRA.POLAR>
0

>  <SCORE.INTRA.POLAR.0>
0

>  <SCORE.INTRA.REPUL>
0

>  <SCORE.INTRA.REPUL.0>
0

>  <SCORE.INTRA.SOLV>
-1.57166

>  <SCORE.INTRA.SOLV.lig_0>
-48.4032

>  <SCORE.INTRA.VDW>
0.236686

>  <SCORE.INTRA.VDW.0>
-1.65238

>  <SCORE.INTRA.norm>
-1.24974

>  <SCORE.RESTR>
0

>  <SCORE.RESTR.CAVITY>
0

>  <SCORE.RESTR.norm>
0

>  <SCORE.SYSTEM>
0

>  <SCORE.SYSTEM.CONST>
0

>  <SCORE.SYSTEM.DIHEDRAL>
0

>  <SCORE.SYSTEM.SOLV>
0

>  <SCORE.SYSTEM.norm>
0

>  <SCORE.heavy>
13

>  <SCORE.norm>
-1.15258

>  <RMSD>
6.270

$$$$
ligand
 OpenBabel11021811473D
libRbt.so/2013.1/901 2013/11/27
 13 12  0  0  0  0  0  0  0  0999 V2000
   26.6446   31.8179   48.3492 O   0  0  0  0  0  0  0  0  0  0  0  0
   24.1165   32.7608   50.0054 O   0  0  0  0  0  0  0  0  0  0  0  0
   30.1904   33.7166   49.3586 P   0  0  1  0  0  0  0  0  0  0  0  0
   29.8876   33.1991   50.7376 O   0  5  0  0  0  0  0  0  0  0  0  0
   31.4668   33.7917   48.6819 O   0  0  0  0  0  0  0  0  0  0  0  0
   28.8318   33.4143   48.5425 O   0  0  0  0  0  0  0  0  0  0  0  0
   21.1730   34.9935   49.7872 O   0  0  0  0  0  0  0  0  0  0  0  0
   28.7874   32.4532   47.4654 C   0  0  0  0  0  0  0  0  0  0  0  0
   24.4803   31.4754   49.4657 C   0  0  0  0  0  0  0  0  0  0  0  0
   22.4320   34.5072   50.2854 C   0  0  0  0  0  0  0  0  0  0  0  0
   27.3342   32.0896   47.1265 C   0  0  0  0  0  0  0  0  0  0  0  0
   25.2315   31.6495   48.1252 C   0  0  0  0  0  0  0  0  0  0  0  0
   22.8688   33.2558   49.4882 C   0  0  0  0  0  0  0  0  0  0  0  0
  1 12  1  0  0  0  0
  1 11  1  0  0  0  0
  2 13  1  0  0  0  0
  2  9  1  0  0  0  0
  3  4  1  1  0  0  0
  3  5  2  0  0  0  0
  3  6  1  0  0  0  0
  6  8  1  0  0  0  0
  7 10  1  0  0  0  0
  8 11  1  0  0  0  0
  9 12  1  0  0  0  0
 10 13  1  0  0  0  0
M  CHG  1   4  -1
M  END
>  <CHROM.1>
-175.21084078,170.37664268,-113.32947723,164.77045451,-47.02862303,85.69488536
87.51927237,-179.03223417,172.04940450,26.75527568,33.08427095,49.07627103
0.08743096,-0.04794830,-2.41511838

>  <Name>
ligand

>  <RI>
0

>  <Rbt.Current_Directory>
/home/itssahil/PROJECTS/Mol_Feturizer/New_Systems/rnas/3GS8

>  <Rbt.Executable>
rbdock ($Id: //depot/dev/client3/rdock/2013.1/src/exe/rbdock.cxx#4 $)

>  <Rbt.Library>
libRbt.so (2013.1, Build901 2013/11/27)

>  <Rbt.Parameter_File>
/export/apps/rDock/src/rDock_2013.1_src/data/scripts/dock_solv.prm

>  <Rbt.Receptor>
prm/pocket_docking_8.prm

>  <SCORE>
-9.36474

>  <SCORE.INTER>
2.30571

>  <SCORE.INTER.CONST>
1

>  <SCORE.INTER.POLAR>
0

>  <SCORE.INTER.ROT>
9

>  <SCORE.INTER.SOLV>
7.32613

>  <SCORE.INTER.VDW>
-10.5049

>  <SCORE.INTER.norm>
0.177362

>  <SCORE.INTRA>
-11.6704

>  <SCORE.INTRA.DIHEDRAL>
-23.2104

>  <SCORE.INTRA.DIHEDRAL.0>
31.9578

>  <SCORE.INTRA.POLAR>
0

>  <SCORE.INTRA.POLAR.0>
0

>  <SCORE.INTRA.REPUL>
0

>  <SCORE.INTRA.REPUL.0>
0

>  <SCORE.INTRA.SOLV>
-1.22094

>  <SCORE.INTRA.SOLV.lig_0>
-48.4032

>  <SCORE.INTRA.VDW>
0.545243

>  <SCORE.INTRA.VDW.0>
-1.65238

>  <SCORE.INTRA.norm>
-0.897726

>  <SCORE.RESTR>
0

>  <SCORE.RESTR.CAVITY>
0

>  <SCORE.RESTR.norm>
0

>  <SCORE.SYSTEM>
0

>  <SCORE.SYSTEM.CONST>
0

>  <SCORE.SYSTEM.DIHEDRAL>
0

>  <SCORE.SYSTEM.SOLV>
0

>  <SCORE.SYSTEM.norm>
0

>  <SCORE.heavy>
13

>  <SCORE.norm>
-0.720364

>  <RMSD>
6.270

$$$$
ligand
 OpenBabel11021811473D
libRbt.so/2013.1/901 2013/11/27
 13 12  0  0  0  0  0  0  0  0999 V2000
   30.4723   32.7167   48.0434 O   0  0  0  0  0  0  0  0  0  0  0  0
   31.4952   32.6545   45.3747 O   0  0  0  0  0  0  0  0  0  0  0  0
   30.6335   36.0823   51.0525 P   0  0  1  0  0  0  0  0  0  0  0  0
   30.3531   35.3492   52.3351 O   0  5  0  0  0  0  0  0  0  0  0  0
   30.4850   37.4927   50.7669 O   0  0  0  0  0  0  0  0  0  0  0  0
   31.8199   35.2177   50.3830 O   0  0  0  0  0  0  0  0  0  0  0  0
   33.2055   31.0048   43.8059 O   0  0  0  0  0  0  0  0  0  0  0  0
   31.5820   33.9152   49.8064 C   0  0  0  0  0  0  0  0  0  0  0  0
   30.2818   33.3690   45.6798 C   0  0  0  0  0  0  0  0  0  0  0  0
   33.5012   32.3986   44.0049 C   0  0  0  0  0  0  0  0  0  0  0  0
   30.6474   34.0251   48.5927 C   0  0  0  0  0  0  0  0  0  0  0  0
   29.5844   32.7413   46.9091 C   0  0  0  0  0  0  0  0  0  0  0  0
   32.1924   33.1896   44.2359 C   0  0  0  0  0  0  0  0  0  0  0  0
  1 12  1  0  0  0  0
  1 11  1  0  0  0  0
  2 13  1  0  0  0  0
  2  9  1  0  0  0  0
  3  4  1  1  0  0  0
  3  5  2  0  0  0  0
  3  6  1  0  0  0  0
  6  8  1  0  0  0  0
  7 10  1  0  0  0  0
  8 11  1  0  0  0  0
  9 12  1  0  0  0  0
 10 13  1  0  0  0  0
M  CHG  1   4  -1
M  END
>  <CHROM.1>
73.34174651,178.16510365,72.30859827,64.42158053,178.62323175,179.90139211
56.51006928,58.18446467,179.03160170,31.20384879,34.04875485,48.07037901
1.34271060,-0.46588663,-2.18729267

>  <Name>
ligand

>  <RI>
0

>  <Rbt.Current_Directory>
/home/itssahil/PROJECTS/Mol_Feturizer/New_Systems/rnas/3GS8

>  <Rbt.Executable>
rbdock ($Id: //depot/dev/client3/rdock/2013.1/src/exe/rbdock.cxx#4 $)

>  <Rbt.Library>
libRbt.so (2013.1, Build901 2013/11/27)

>  <Rbt.Parameter_File>
/export/apps/rDock/src/rDock_2013.1_src/data/scripts/dock_solv.prm

>  <Rbt.Receptor>
prm/pocket_docking_3.prm

>  <SCORE>
-7.62689

>  <SCORE.INTER>
6.25497

>  <SCORE.INTER.CONST>
1

>  <SCORE.INTER.POLAR>
0

>  <SCORE.INTER.ROT>
9

>  <SCORE.INTER.SOLV>
7.33207

>  <SCORE.INTER.VDW>
-7.87404

>  <SCORE.INTER.norm>
0.481151

>  <SCORE.INTRA>
-13.8819

>  <SCORE.INTRA.DIHEDRAL>
-30.1633

>  <SCORE.INTRA.DIHEDRAL.0>
31.9578

>  <SCORE.INTRA.POLAR>
0

>  <SCORE.INTRA.POLAR.0>
0

>  <SCORE.INTRA.REPUL>
0

>  <SCORE.INTRA.REPUL.0>
0

>  <SCORE.INTRA.SOLV>
-0.0983602

>  <SCORE.INTRA.SOLV.lig_0>
-48.4032

>  <SCORE.INTRA.VDW>
1.24896

>  <SCORE.INTRA.VDW.0>
-1.65238

>  <SCORE.INTRA.norm>
-1.06784

>  <SCORE.RESTR>
0

>  <SCORE.RESTR.CAVITY>
0

>  <SCORE.RESTR.norm>
0

>  <SCORE.SYSTEM>
0

>  <SCORE.SYSTEM.CONST>
0

>  <SCORE.SYSTEM.DIHEDRAL>
0

>  <SCORE.SYSTEM.SOLV>
0

>  <SCORE.SYSTEM.norm>
0

>  <SCORE.heavy>
13

>  <SCORE.norm>
-0.586684

>  <RMSD>
6.278

$$$$
ligand
 OpenBabel11021811473D
libRbt.so/2013.1/901 2013/11/27
 13 12  0  0  0  0  0  0  0  0999 V2000
   30.4083   32.5952   46.9588 O   0  0  0  0  0  0  0  0  0  0  0  0
   31.9599   32.5704   44.4130 O   0  0  0  0  0  0  0  0  0  0  0  0
   31.1797   31.6132   51.1181 P   0  0  1  0  0  0  0  0  0  0  0  0
   32.4277   32.4165   51.3593 O   0  5  0  0  0  0  0  0  0  0  0  0
   30.3060   30.9883   52.0871 O   0  0  0  0  0  0  0  0  0  0  0  0
   30.5943   32.2389   49.7510 O   0  0  0  0  0  0  0  0  0  0  0  0
   33.8392   30.4564   43.8999 O   0  0  0  0  0  0  0  0  0  0  0  0
   29.5940   31.5541   48.9661 C   0  0  0  0  0  0  0  0  0  0  0  0
   31.4577   33.7552   45.0610 C   0  0  0  0  0  0  0  0  0  0  0  0
   33.5998   31.5077   42.9475 C   0  0  0  0  0  0  0  0  0  0  0  0
   29.2214   32.3812   47.7268 C   0  0  0  0  0  0  0  0  0  0  0  0
   30.1478   33.4375   45.8193 C   0  0  0  0  0  0  0  0  0  0  0  0
   33.1773   32.8014   43.6824 C   0  0  0  0  0  0  0  0  0  0  0  0
  1 12  1  0  0  0  0
  1 11  1  0  0  0  0
  2 13  1  0  0  0  0
  2  9  1  0  0  0  0
  3  4  1  1  0  0  0
  3  5  2  0  0  0  0
  3  6  1  0  0  0  0
  6  8  1  0  0  0  0
  7 10  1  0  0  0  0
  8 11  1  0  0  0  0
  9 12  1  0  0  0  0
 10 13  1  0  0  0  0
M  CHG  1   4  -1
M  END
>  <CHROM.1>
175.44071986,-176.48246365,163.87419693,179.78868933,58.56481691,179.70629825
69.22261785,-61.01751102,-176.43782936,31.37386130,32.11595828,47.57637546
1.28165165,0.45408215,-1.37908350

>  <Name>
ligand

>  <RI>
0

>  <Rbt.Current_Directory>
/home/itssahil/PROJECTS/Mol_Feturizer/New_Systems/rnas/3GS8

>  <Rbt.Executable>
rbdock ($Id: //depot/dev/client3/rdock/2013.1/src/exe/rbdock.cxx#4 $)

>  <Rbt.Library>
libRbt.so (2013.1, Build901 2013/11/27)

>  <Rbt.Parameter_File>
/export/apps/rDock/src/rDock_2013.1_src/data/scripts/dock_solv.prm

>  <Rbt.Receptor>
prm/pocket_docking_5.prm

>  <SCORE>
-12.6819

>  <SCORE.INTER>
3.49695

>  <SCORE.INTER.CONST>
1

>  <SCORE.INTER.POLAR>
0

>  <SCORE.INTER.ROT>
9

>  <SCORE.INTER.SOLV>
10.0587

>  <SCORE.INTER.VDW>
-10.6216

>  <SCORE.INTER.norm>
0.268996

>  <SCORE.INTRA>
-16.1788

>  <SCORE.INTRA.DIHEDRAL>
-31.1231

>  <SCORE.INTRA.DIHEDRAL.0>
31.9578

>  <SCORE.INTRA.POLAR>
0

>  <SCORE.INTRA.POLAR.0>
0

>  <SCORE.INTRA.REPUL>
0

>  <SCORE.INTRA.REPUL.0>
0

>  <SCORE.INTRA.SOLV>
-1.46338

>  <SCORE.INTRA.SOLV.lig_0>
-48.4032

>  <SCORE.INTRA.VDW>
0.114392

>  <SCORE.INTRA.VDW.0>
-1.65238

>  <SCORE.INTRA.norm>
-1.24452

>  <SCORE.RESTR>
0

>  <SCORE.RESTR.CAVITY>
0

>  <SCORE.RESTR.norm>
0

>  <SCORE.SYSTEM>
0

>  <SCORE.SYSTEM.CONST>
0

>  <SCORE.SYSTEM.DIHEDRAL>
0

>  <SCORE.SYSTEM.SOLV>
0

>  <SCORE.SYSTEM.norm>
0

>  <SCORE.heavy>
13

>  <SCORE.norm>
-0.975529

>  <RMSD>
6.297

$$$$
ligand
 OpenBabel11021811473D
libRbt.so/2013.1/901 2013/11/27
 13 12  0  0  0  0  0  0  0  0999 V2000
   34.5915   31.6785   51.1314 O   0  0  0  0  0  0  0  0  0  0  0  0
   32.0062   31.0027   52.2438 O   0  0  0  0  0  0  0  0  0  0  0  0
   37.8397   30.6540   47.3779 P   0  0  1  0  0  0  0  0  0  0  0  0
   37.9942   31.4221   46.0945 O   0  5  0  0  0  0  0  0  0  0  0  0
   38.7622   29.7229   47.9903 O   0  0  0  0  0  0  0  0  0  0  0  0
   36.9101   31.6181   48.2776 O   0  0  0  0  0  0  0  0  0  0  0  0
   29.2971   28.7707   53.4168 O   0  0  0  0  0  0  0  0  0  0  0  0
   36.2233   31.1352   49.4526 C   0  0  0  0  0  0  0  0  0  0  0  0
   32.8434   32.0199   52.8272 C   0  0  0  0  0  0  0  0  0  0  0  0
   30.2579   29.3155   52.4951 C   0  0  0  0  0  0  0  0  0  0  0  0
   35.3593   32.2463   50.0672 C   0  0  0  0  0  0  0  0  0  0  0  0
   33.7381   32.6649   51.7432 C   0  0  0  0  0  0  0  0  0  0  0  0
   31.0617   30.4478   53.1762 C   0  0  0  0  0  0  0  0  0  0  0  0
  1 12  1  0  0  0  0
  1 11  1  0  0  0  0
  2 13  1  0  0  0  0
  2  9  1  0  0  0  0
  3  4  1  6  0  0  0
  3  5  2  0  0  0  0
  3  6  1  0  0  0  0
  6  8  1  0  0  0  0
  7 10  1  0  0  0  0
  8 11  1  0  0  0  0
  9 12  1  0  0  0  0
 10 13  1  0  0  0  0
M  CHG  1   4  -1
M  END
>  <CHROM.1>
176.14534402,-176.95740450,163.56778812,-177.09757778,173.66716430,-174.63678505
-60.32337369,-179.10659660,-179.11537283,34.68468782,30.93552418,50.19977655
-2.92488453,-0.63468783,-2.66148144

>  <Name>
ligand

>  <RI>
0

>  <Rbt.Current_Directory>
/home/itssahil/PROJECTS/Mol_Feturizer/New_Systems/rnas/3GS8

>  <Rbt.Executable>
rbdock ($Id: //depot/dev/client3/rdock/2013.1/src/exe/rbdock.cxx#4 $)

>  <Rbt.Library>
libRbt.so (2013.1, Build901 2013/11/27)

>  <Rbt.Parameter_File>
/export/apps/rDock/src/rDock_2013.1_src/data/scripts/dock_solv.prm

>  <Rbt.Receptor>
prm/pocket_docking_8.prm

>  <SCORE>
-15.118

>  <SCORE.INTER>
1.10334

>  <SCORE.INTER.CONST>
1

>  <SCORE.INTER.POLAR>
0

>  <SCORE.INTER.ROT>
9

>  <SCORE.INTER.SOLV>
12.0823

>  <SCORE.INTER.VDW>
-12.8919

>  <SCORE.INTER.norm>
0.0848724

>  <SCORE.INTRA>
-16.2214

>  <SCORE.INTRA.DIHEDRAL>
-31.2177

>  <SCORE.INTRA.DIHEDRAL.0>
31.9578

>  <SCORE.INTRA.POLAR>
0

>  <SCORE.INTRA.POLAR.0>
0

>  <SCORE.INTRA.REPUL>
0

>  <SCORE.INTRA.REPUL.0>
0

>  <SCORE.INTRA.SOLV>
-1.82484

>  <SCORE.INTRA.SOLV.lig_0>
-48.4032

>  <SCORE.INTRA.VDW>
0.299932

>  <SCORE.INTRA.VDW.0>
-1.65238

>  <SCORE.INTRA.norm>
-1.2478

>  <SCORE.RESTR>
0

>  <SCORE.RESTR.CAVITY>
0

>  <SCORE.RESTR.norm>
0

>  <SCORE.SYSTEM>
0

>  <SCORE.SYSTEM.CONST>
0

>  <SCORE.SYSTEM.DIHEDRAL>
0

>  <SCORE.SYSTEM.SOLV>
0

>  <SCORE.SYSTEM.norm>
0

>  <SCORE.heavy>
13

>  <SCORE.norm>
-1.16292

>  <RMSD>
6.297

$$$$
ligand
 OpenBabel11021811473D
libRbt.so/2013.1/901 2013/11/27
 13 12  0  0  0  0  0  0  0  0999 V2000
   29.3970   33.0089   48.9838 O   0  0  0  0  0  0  0  0  0  0  0  0
   30.6499   32.7891   46.3481 O   0  0  0  0  0  0  0  0  0  0  0  0
   29.7813   35.8352   52.2437 P   0  0  1  0  0  0  0  0  0  0  0  0
   29.8717   37.0722   51.3935 O   0  5  0  0  0  0  0  0  0  0  0  0
   29.5350   35.7320   53.6655 O   0  0  0  0  0  0  0  0  0  0  0  0
   29.2229   34.7210   51.2190 O   0  0  0  0  0  0  0  0  0  0  0  0
   33.3656   33.6131   46.0997 O   0  0  0  0  0  0  0  0  0  0  0  0
   29.5503   33.3217   51.3618 C   0  0  0  0  0  0  0  0  0  0  0  0
   29.2309   32.9591   46.5306 C   0  0  0  0  0  0  0  0  0  0  0  0
   32.6460   33.0845   44.9718 C   0  0  0  0  0  0  0  0  0  0  0  0
   28.9145   32.5008   50.2301 C   0  0  0  0  0  0  0  0  0  0  0  0
   28.7833   32.3305   47.8709 C   0  0  0  0  0  0  0  0  0  0  0  0
   31.1343   33.3730   45.1260 C   0  0  0  0  0  0  0  0  0  0  0  0
  1 12  1  0  0  0  0
  1 11  1  0  0  0  0
  2 13  1  0  0  0  0
  2  9  1  0  0  0  0
  3  4  1  6  0  0  0
  3  5  2  0  0  0  0
  3  6  1  0  0  0  0
  6  8  1  0  0  0  0
  7 10  1  0  0  0  0
  8 11  1  0  0  0  0
  9 12  1  0  0  0  0
 10 13  1  0  0  0  0
M  CHG  1   4  -1
M  END
>  <CHROM.1>
175.71262389,-177.10603042,150.30639416,-178.50188454,58.56300557,-179.05666170
63.64956604,-58.33497457,-176.84311146,30.13989715,34.06453772,49.23154275
1.23157529,-0.68459101,-2.16049713

>  <Name>
ligand

>  <RI>
0

>  <Rbt.Current_Directory>
/home/itssahil/PROJECTS/Mol_Feturizer/New_Systems/rnas/3GS8

>  <Rbt.Executable>
rbdock ($Id: //depot/dev/client3/rdock/2013.1/src/exe/rbdock.cxx#4 $)

>  <Rbt.Library>
libRbt.so (2013.1, Build901 2013/11/27)

>  <Rbt.Parameter_File>
/export/apps/rDock/src/rDock_2013.1_src/data/scripts/dock_solv.prm

>  <Rbt.Receptor>
prm/pocket_docking_4.prm

>  <SCORE>
-10.2167

>  <SCORE.INTER>
6.06242

>  <SCORE.INTER.CONST>
1

>  <SCORE.INTER.POLAR>
0

>  <SCORE.INTER.ROT>
9

>  <SCORE.INTER.SOLV>
9.53285

>  <SCORE.INTER.VDW>
-8.73601

>  <SCORE.INTER.norm>
0.46634

>  <SCORE.INTRA>
-16.2791

>  <SCORE.INTRA.DIHEDRAL>
-31.2934

>  <SCORE.INTRA.DIHEDRAL.0>
31.9578

>  <SCORE.INTRA.POLAR>
0

>  <SCORE.INTRA.POLAR.0>
0

>  <SCORE.INTRA.REPUL>
0

>  <SCORE.INTRA.REPUL.0>
0

>  <SCORE.INTRA.SOLV>
-1.47479

>  <SCORE.INTRA.SOLV.lig_0>
-48.4032

>  <SCORE.INTRA.VDW>
0.104992

>  <SCORE.INTRA.VDW.0>
-1.65238

>  <SCORE.INTRA.norm>
-1.25224

>  <SCORE.RESTR>
0

>  <SCORE.RESTR.CAVITY>
0

>  <SCORE.RESTR.norm>
0

>  <SCORE.SYSTEM>
0

>  <SCORE.SYSTEM.CONST>
0

>  <SCORE.SYSTEM.DIHEDRAL>
0

>  <SCORE.SYSTEM.SOLV>
0

>  <SCORE.SYSTEM.norm>
0

>  <SCORE.heavy>
13

>  <SCORE.norm>
-0.785901

>  <RMSD>
6.298

$$$$
ligand
 OpenBabel11021811473D
libRbt.so/2013.1/901 2013/11/27
 13 12  0  0  0  0  0  0  0  0999 V2000
   29.5659   34.4557   50.2162 O   0  0  0  0  0  0  0  0  0  0  0  0
   30.2366   33.2505   47.6668 O   0  0  0  0  0  0  0  0  0  0  0  0
   30.3299   38.7294   50.3587 P   0  0  1  0  0  0  0  0  0  0  0  0
   31.5119   39.0489   49.4859 O   0  5  0  0  0  0  0  0  0  0  0  0
   29.0751   39.4396   50.4759 O   0  0  0  0  0  0  0  0  0  0  0  0
   30.3932   37.1229   50.4952 O   0  0  0  0  0  0  0  0  0  0  0  0
   32.2209   33.1555   45.5934 O   0  0  0  0  0  0  0  0  0  0  0  0
   29.7492   36.4243   51.5827 C   0  0  0  0  0  0  0  0  0  0  0  0
   29.4107   32.5772   48.6366 C   0  0  0  0  0  0  0  0  0  0  0  0
   30.8802   33.6106   45.3383 C   0  0  0  0  0  0  0  0  0  0  0  0
   30.0215   34.9156   51.4911 C   0  0  0  0  0  0  0  0  0  0  0  0
   29.7775   33.0386   50.0663 C   0  0  0  0  0  0  0  0  0  0  0  0
   29.8935   32.9209   46.3093 C   0  0  0  0  0  0  0  0  0  0  0  0
  1 12  1  0  0  0  0
  1 11  1  0  0  0  0
  2 13  1  0  0  0  0
  2  9  1  0  0  0  0
  3  4  1  6  0  0  0
  3  5  2  0  0  0  0
  3  6  1  0  0  0  0
  6  8  1  0  0  0  0
  7 10  1  0  0  0  0
  8 11  1  0  0  0  0
  9 12  1  0  0  0  0
 10 13  1  0  0  0  0
M  CHG  1   4  -1
M  END
>  <CHROM.1>
-174.44368017,-176.39764947,158.50976205,-177.69288489,-57.05979781,-176.69340133
60.74590632,60.69248129,-179.35699363,30.25824550,35.60494929,49.15603525
1.39661325,-1.17733879,-2.70246572

>  <Name>
ligand

>  <RI>
0

>  <Rbt.Current_Directory>
/home/itssahil/PROJECTS/Mol_Feturizer/New_Systems/rnas/3GS8

>  <Rbt.Executable>
rbdock ($Id: //depot/dev/client3/rdock/2013.1/src/exe/rbdock.cxx#4 $)

>  <Rbt.Library>
libRbt.so (2013.1, Build901 2013/11/27)

>  <Rbt.Parameter_File>
/export/apps/rDock/src/rDock_2013.1_src/data/scripts/dock_solv.prm

>  <Rbt.Receptor>
prm/pocket_docking_3.prm

>  <SCORE>
-8.56869

>  <SCORE.INTER>
7.74757

>  <SCORE.INTER.CONST>
1

>  <SCORE.INTER.POLAR>
0

>  <SCORE.INTER.ROT>
9

>  <SCORE.INTER.SOLV>
6.77889

>  <SCORE.INTER.VDW>
-6.69459

>  <SCORE.INTER.norm>
0.595967

>  <SCORE.INTRA>
-16.3163

>  <SCORE.INTRA.DIHEDRAL>
-31.3253

>  <SCORE.INTRA.DIHEDRAL.0>
31.9578

>  <SCORE.INTRA.POLAR>
0

>  <SCORE.INTRA.POLAR.0>
0

>  <SCORE.INTRA.REPUL>
0

>  <SCORE.INTRA.REPUL.0>
0

>  <SCORE.INTRA.SOLV>
-1.44766

>  <SCORE.INTRA.SOLV.lig_0>
-48.4032

>  <SCORE.INTRA.VDW>
0.0702401

>  <SCORE.INTRA.VDW.0>
-1.65238

>  <SCORE.INTRA.norm>
-1.2551

>  <SCORE.RESTR>
0

>  <SCORE.RESTR.CAVITY>
0

>  <SCORE.RESTR.norm>
0

>  <SCORE.SYSTEM>
0

>  <SCORE.SYSTEM.CONST>
0

>  <SCORE.SYSTEM.DIHEDRAL>
0

>  <SCORE.SYSTEM.SOLV>
0

>  <SCORE.SYSTEM.norm>
0

>  <SCORE.heavy>
13

>  <SCORE.norm>
-0.65913

>  <RMSD>
6.300

$$$$
ligand
 OpenBabel11021811473D
libRbt.so/2013.1/901 2013/11/27
 13 12  0  0  0  0  0  0  0  0999 V2000
   30.3969   35.4161   46.4435 O   0  0  0  0  0  0  0  0  0  0  0  0
   29.5733   33.2448   48.1531 O   0  0  0  0  0  0  0  0  0  0  0  0
   28.9485   39.6311   48.8673 P   0  0  1  0  0  0  0  0  0  0  0  0
   27.4749   39.5797   48.5724 O   0  5  0  0  0  0  0  0  0  0  0  0
   29.6107   39.7152   50.1507 O   0  0  0  0  0  0  0  0  0  0  0  0
   29.6000   38.8005   47.6471 O   0  0  0  0  0  0  0  0  0  0  0  0
   31.4943   32.5456   50.1549 O   0  0  0  0  0  0  0  0  0  0  0  0
   29.6636   37.3578   47.6551 C   0  0  0  0  0  0  0  0  0  0  0  0
   29.1798   33.3039   46.7683 C   0  0  0  0  0  0  0  0  0  0  0  0
   30.1995   31.9203   50.1074 C   0  0  0  0  0  0  0  0  0  0  0  0
   30.2778   36.8376   46.3471 C   0  0  0  0  0  0  0  0  0  0  0  0
   29.1166   34.7734   46.2908 C   0  0  0  0  0  0  0  0  0  0  0  0
   29.6748   31.8997   48.6526 C   0  0  0  0  0  0  0  0  0  0  0  0
  1 12  1  0  0  0  0
  1 11  1  0  0  0  0
  2 13  1  0  0  0  0
  2  9  1  0  0  0  0
  3  4  1  1  0  0  0
  3  5  2  0  0  0  0
  3  6  1  0  0  0  0
  6  8  1  0  0  0  0
  7 10  1  0  0  0  0
  8 11  1  0  0  0  0
  9 12  1  0  0  0  0
 10 13  1  0  0  0  0
M  CHG  1   4  -1
M  END
>  <CHROM.1>
-164.68250726,175.87760047,-82.26333486,177.61842665,176.29049667,-178.93050836
59.17651580,-59.62577574,75.12059093,29.58011659,36.12472372,48.21905722
0.62812377,1.35797987,-2.20233714

>  <Name>
ligand

>  <RI>
0

>  <Rbt.Current_Directory>
/home/itssahil/PROJECTS/Mol_Feturizer/New_Systems/rnas/3GS8

>  <Rbt.Executable>
rbdock ($Id: //depot/dev/client3/rdock/2013.1/src/exe/rbdock.cxx#4 $)

>  <Rbt.Library>
libRbt.so (2013.1, Build901 2013/11/27)

>  <Rbt.Parameter_File>
/export/apps/rDock/src/rDock_2013.1_src/data/scripts/dock_solv.prm

>  <Rbt.Receptor>
prm/pocket_docking_3.prm

>  <SCORE>
-5.19216

>  <SCORE.INTER>
8.85899

>  <SCORE.INTER.CONST>
1

>  <SCORE.INTER.POLAR>
0

>  <SCORE.INTER.ROT>
9

>  <SCORE.INTER.SOLV>
4.83112

>  <SCORE.INTER.VDW>
-5.30438

>  <SCORE.INTER.norm>
0.681461

>  <SCORE.INTRA>
-14.0539

>  <SCORE.INTRA.DIHEDRAL>
-29.3136

>  <SCORE.INTRA.DIHEDRAL.0>
31.9578

>  <SCORE.INTRA.POLAR>
0

>  <SCORE.INTRA.POLAR.0>
0

>  <SCORE.INTRA.REPUL>
0

>  <SCORE.INTRA.REPUL.0>
0

>  <SCORE.INTRA.SOLV>
-1.22598

>  <SCORE.INTRA.SOLV.lig_0>
-48.4032

>  <SCORE.INTRA.VDW>
1.21586

>  <SCORE.INTRA.VDW.0>
-1.65238

>  <SCORE.INTRA.norm>
-1.08107

>  <SCORE.RESTR>
0.00276129

>  <SCORE.RESTR.CAVITY>
0.00276129

>  <SCORE.RESTR.norm>
0.000212407

>  <SCORE.SYSTEM>
0

>  <SCORE.SYSTEM.CONST>
0

>  <SCORE.SYSTEM.DIHEDRAL>
0

>  <SCORE.SYSTEM.SOLV>
0

>  <SCORE.SYSTEM.norm>
0

>  <SCORE.heavy>
13

>  <SCORE.norm>
-0.399397

>  <RMSD>
6.302

$$$$
ligand
 OpenBabel11021811473D
libRbt.so/2013.1/901 2013/11/27
 13 12  0  0  0  0  0  0  0  0999 V2000
   36.6284   31.4025   47.3616 O   0  0  0  0  0  0  0  0  0  0  0  0
   35.1927   31.3565   49.8846 O   0  0  0  0  0  0  0  0  0  0  0  0
   34.3232   31.4703   43.5475 P   0  0  1  0  0  0  0  0  0  0  0  0
   33.7427   32.7766   44.0141 O   0  5  0  0  0  0  0  0  0  0  0  0
   34.6224   31.0454   42.1974 O   0  0  0  0  0  0  0  0  0  0  0  0
   35.2454   31.0099   44.7888 O   0  0  0  0  0  0  0  0  0  0  0  0
   32.4814   32.3257   52.2094 O   0  0  0  0  0  0  0  0  0  0  0  0
   36.5929   31.5001   44.9605 C   0  0  0  0  0  0  0  0  0  0  0  0
   36.6206   31.5364   49.8173 C   0  0  0  0  0  0  0  0  0  0  0  0
   33.0750   31.7261   51.0442 C   0  0  0  0  0  0  0  0  0  0  0  0
   37.2473   30.8588   46.1931 C   0  0  0  0  0  0  0  0  0  0  0  0
   37.1908   30.8370   48.5614 C   0  0  0  0  0  0  0  0  0  0  0  0
   34.5984   31.9928   51.0296 C   0  0  0  0  0  0  0  0  0  0  0  0
  1 12  1  0  0  0  0
  1 11  1  0  0  0  0
  2 13  1  0  0  0  0
  2  9  1  0  0  0  0
  3  4  1  6  0  0  0
  3  5  2  0  0  0  0
  3  6  1  0  0  0  0
  6  8  1  0  0  0  0
  7 10  1  0  0  0  0
  8 11  1  0  0  0  0
  9 12  1  0  0  0  0
 10 13  1  0  0  0  0
M  CHG  1   4  -1
M  END
>  <CHROM.1>
174.09162941,-178.73497321,-83.54630848,-178.00013476,-71.14278844,-179.62443807
61.22778121,178.24235551,179.67001027,35.09632583,31.52862820,47.01469234
-1.64960882,0.24779264,-1.59751946

>  <Name>
ligand

>  <RI>
0

>  <Rbt.Current_Directory>
/home/itssahil/PROJECTS/Mol_Feturizer/New_Systems/rnas/3GS8

>  <Rbt.Executable>
rbdock ($Id: //depot/dev/client3/rdock/2013.1/src/exe/rbdock.cxx#4 $)

>  <Rbt.Library>
libRbt.so (2013.1, Build901 2013/11/27)

>  <Rbt.Parameter_File>
/export/apps/rDock/src/rDock_2013.1_src/data/scripts/dock_solv.prm

>  <Rbt.Receptor>
prm/pocket_docking_5.prm

>  <SCORE>
-15.7386

>  <SCORE.INTER>
0.369853

>  <SCORE.INTER.CONST>
1

>  <SCORE.INTER.POLAR>
0

>  <SCORE.INTER.ROT>
9

>  <SCORE.INTER.SOLV>
10.2225

>  <SCORE.INTER.VDW>
-12.7609

>  <SCORE.INTER.norm>
0.0284503

>  <SCORE.INTRA>
-16.1084

>  <SCORE.INTRA.DIHEDRAL>
-30.9682

>  <SCORE.INTRA.DIHEDRAL.0>
31.9578

>  <SCORE.INTRA.POLAR>
0

>  <SCORE.INTRA.POLAR.0>
0

>  <SCORE.INTRA.REPUL>
0

>  <SCORE.INTRA.REPUL.0>
0

>  <SCORE.INTRA.SOLV>
-1.51536

>  <SCORE.INTRA.SOLV.lig_0>
-48.4032

>  <SCORE.INTRA.VDW>
0.133369

>  <SCORE.INTRA.VDW.0>
-1.65238

>  <SCORE.INTRA.norm>
-1.23911

>  <SCORE.RESTR>
0

>  <SCORE.RESTR.CAVITY>
0

>  <SCORE.RESTR.norm>
0

>  <SCORE.SYSTEM>
0

>  <SCORE.SYSTEM.CONST>
0

>  <SCORE.SYSTEM.DIHEDRAL>
0

>  <SCORE.SYSTEM.SOLV>
0

>  <SCORE.SYSTEM.norm>
0

>  <SCORE.heavy>
13

>  <SCORE.norm>
-1.21066

>  <RMSD>
6.312

$$$$
ligand
 OpenBabel11021811473D
libRbt.so/2013.1/901 2013/11/27
 13 12  0  0  0  0  0  0  0  0999 V2000
   36.8613   31.3944   48.0145 O   0  0  0  0  0  0  0  0  0  0  0  0
   35.0665   31.3955   50.3491 O   0  0  0  0  0  0  0  0  0  0  0  0
   35.1571   31.8146   44.0342 P   0  0  1  0  0  0  0  0  0  0  0  0
   35.8537   31.0675   42.9308 O   0  5  0  0  0  0  0  0  0  0  0  0
   33.8202   32.3673   44.0474 O   0  0  0  0  0  0  0  0  0  0  0  0
   35.8171   31.2001   45.3722 O   0  0  0  0  0  0  0  0  0  0  0  0
   32.0020   32.3007   52.2161 O   0  0  0  0  0  0  0  0  0  0  0  0
   37.2320   31.3047   45.6416 C   0  0  0  0  0  0  0  0  0  0  0  0
   36.4660   31.7312   50.4184 C   0  0  0  0  0  0  0  0  0  0  0  0
   32.7921   31.6583   51.2000 C   0  0  0  0  0  0  0  0  0  0  0  0
   37.5701   30.6762   47.0016 C   0  0  0  0  0  0  0  0  0  0  0  0
   37.2558   30.9648   49.3319 C   0  0  0  0  0  0  0  0  0  0  0  0
   34.2791   32.0537   51.3570 C   0  0  0  0  0  0  0  0  0  0  0  0
  1 12  1  0  0  0  0
  1 11  1  0  0  0  0
  2 13  1  0  0  0  0
  2  9  1  0  0  0  0
  3  4  1  6  0  0  0
  3  5  2  0  0  0  0
  3  6  1  0  0  0  0
  6  8  1  0  0  0  0
  7 10  1  0  0  0  0
  8 11  1  0  0  0  0
  9 12  1  0  0  0  0
 10 13  1  0  0  0  0
M  CHG  1   4  -1
M  END
>  <CHROM.1>
-179.04280755,179.13363296,60.87572163,178.09075566,-61.31323435,178.63098620
65.50587106,179.28872765,-172.98080341,35.35087280,31.56053663,47.49577234
-1.80217913,0.24387353,-1.55615770

>  <Name>
ligand

>  <RI>
0

>  <Rbt.Current_Directory>
/home/itssahil/PROJECTS/Mol_Feturizer/New_Systems/rnas/3GS8

>  <Rbt.Executable>
rbdock ($Id: //depot/dev/client3/rdock/2013.1/src/exe/rbdock.cxx#4 $)

>  <Rbt.Library>
libRbt.so (2013.1, Build901 2013/11/27)

>  <Rbt.Parameter_File>
/export/apps/rDock/src/rDock_2013.1_src/data/scripts/dock_solv.prm

>  <Rbt.Receptor>
prm/pocket_docking_7.prm

>  <SCORE>
-15.1836

>  <SCORE.INTER>
0.825954

>  <SCORE.INTER.CONST>
1

>  <SCORE.INTER.POLAR>
0

>  <SCORE.INTER.ROT>
9

>  <SCORE.INTER.SOLV>
8.88747

>  <SCORE.INTER.VDW>
-12.0119

>  <SCORE.INTER.norm>
0.063535

>  <SCORE.INTRA>
-16.0096

>  <SCORE.INTRA.DIHEDRAL>
-31.0775

>  <SCORE.INTRA.DIHEDRAL.0>
31.9578

>  <SCORE.INTRA.POLAR>
0

>  <SCORE.INTRA.POLAR.0>
0

>  <SCORE.INTRA.REPUL>
0

>  <SCORE.INTRA.REPUL.0>
0

>  <SCORE.INTRA.SOLV>
-1.52573

>  <SCORE.INTRA.SOLV.lig_0>
-48.4032

>  <SCORE.INTRA.VDW>
0.292057

>  <SCORE.INTRA.VDW.0>
-1.65238

>  <SCORE.INTRA.norm>
-1.2315

>  <SCORE.RESTR>
0

>  <SCORE.RESTR.CAVITY>
0

>  <SCORE.RESTR.norm>
0

>  <SCORE.SYSTEM>
0

>  <SCORE.SYSTEM.CONST>
0

>  <SCORE.SYSTEM.DIHEDRAL>
0

>  <SCORE.SYSTEM.SOLV>
0

>  <SCORE.SYSTEM.norm>
0

>  <SCORE.heavy>
13

>  <SCORE.norm>
-1.16797

>  <RMSD>
6.325

$$$$
ligand
 OpenBabel11021811473D
libRbt.so/2013.1/901 2013/11/27
 13 12  0  0  0  0  0  0  0  0999 V2000
   36.8282   31.3871   47.6484 O   0  0  0  0  0  0  0  0  0  0  0  0
   35.2087   31.3838   50.0897 O   0  0  0  0  0  0  0  0  0  0  0  0
   34.8440   31.8747   43.7756 P   0  0  1  0  0  0  0  0  0  0  0  0
   33.7183   30.9093   43.5270 O   0  5  0  0  0  0  0  0  0  0  0  0
   34.8843   33.2992   43.5265 O   0  0  0  0  0  0  0  0  0  0  0  0
   35.6156   31.2279   45.0363 O   0  0  0  0  0  0  0  0  0  0  0  0
   32.4690   32.2669   49.9409 O   0  0  0  0  0  0  0  0  0  0  0  0
   37.0282   31.4353   45.2539 C   0  0  0  0  0  0  0  0  0  0  0  0
   36.6313   31.6125   50.0894 C   0  0  0  0  0  0  0  0  0  0  0  0
   33.0247   31.6947   51.1382 C   0  0  0  0  0  0  0  0  0  0  0  0
   37.4813   30.7464   46.5496 C   0  0  0  0  0  0  0  0  0  0  0  0
   37.2943   30.8664   48.9082 C   0  0  0  0  0  0  0  0  0  0  0  0
   34.5414   31.9892   51.2110 C   0  0  0  0  0  0  0  0  0  0  0  0
  1 12  1  0  0  0  0
  1 11  1  0  0  0  0
  2 13  1  0  0  0  0
  2  9  1  0  0  0  0
  3  4  1  1  0  0  0
  3  5  2  0  0  0  0
  3  6  1  0  0  0  0
  6  8  1  0  0  0  0
  7 10  1  0  0  0  0
  8 11  1  0  0  0  0
  9 12  1  0  0  0  0
 10 13  1  0  0  0  0
M  CHG  1   4  -1
M  END
>  <CHROM.1>
177.30569855,-179.86394315,151.73688595,178.02978201,-64.95675943,176.63156367
63.95695938,-61.80268910,-175.06206094,35.27911318,31.62311566,47.09867633
-1.64538254,0.22248249,-1.53773982

>  <Name>
ligand

>  <RI>
0

>  <Rbt.Current_Directory>
/home/itssahil/PROJECTS/Mol_Feturizer/New_Systems/rnas/3GS8

>  <Rbt.Executable>
rbdock ($Id: //depot/dev/client3/rdock/2013.1/src/exe/rbdock.cxx#4 $)

>  <Rbt.Library>
libRbt.so (2013.1, Build901 2013/11/27)

>  <Rbt.Parameter_File>
/export/apps/rDock/src/rDock_2013.1_src/data/scripts/dock_solv.prm

>  <Rbt.Receptor>
prm/pocket_docking_5.prm

>  <SCORE>
-14.8237

>  <SCORE.INTER>
1.41391

>  <SCORE.INTER.CONST>
1

>  <SCORE.INTER.POLAR>
0

>  <SCORE.INTER.ROT>
9

>  <SCORE.INTER.SOLV>
10.8035

>  <SCORE.INTER.VDW>
-12.2586

>  <SCORE.INTER.norm>
0.108762

>  <SCORE.INTRA>
-16.2377

>  <SCORE.INTRA.DIHEDRAL>
-31.1874

>  <SCORE.INTRA.DIHEDRAL.0>
31.9578

>  <SCORE.INTRA.POLAR>
0

>  <SCORE.INTRA.POLAR.0>
0

>  <SCORE.INTRA.REPUL>
0

>  <SCORE.INTRA.REPUL.0>
0

>  <SCORE.INTRA.SOLV>
-1.50704

>  <SCORE.INTRA.SOLV.lig_0>
-48.4032

>  <SCORE.INTRA.VDW>
0.109566

>  <SCORE.INTRA.VDW.0>
-1.65238

>  <SCORE.INTRA.norm>
-1.24905

>  <SCORE.RESTR>
0

>  <SCORE.RESTR.CAVITY>
0

>  <SCORE.RESTR.norm>
0

>  <SCORE.SYSTEM>
0

>  <SCORE.SYSTEM.CONST>
0

>  <SCORE.SYSTEM.DIHEDRAL>
0

>  <SCORE.SYSTEM.SOLV>
0

>  <SCORE.SYSTEM.norm>
0

>  <SCORE.heavy>
13

>  <SCORE.norm>
-1.14029

>  <RMSD>
6.334

$$$$
ligand
 OpenBabel11021811473D
libRbt.so/2013.1/901 2013/11/27
 13 12  0  0  0  0  0  0  0  0999 V2000
   30.4430   33.6225   48.2314 O   0  0  0  0  0  0  0  0  0  0  0  0
   31.9681   33.6153   45.7168 O   0  0  0  0  0  0  0  0  0  0  0  0
   30.3144   37.3624   50.3912 P   0  0  1  0  0  0  0  0  0  0  0  0
   30.6814   37.3357   51.8492 O   0  5  0  0  0  0  0  0  0  0  0  0
   30.3334   38.4819   49.4751 O   0  0  0  0  0  0  0  0  0  0  0  0
   30.6736   35.8711   49.8910 O   0  0  0  0  0  0  0  0  0  0  0  0
   34.1318   32.3863   44.2780 O   0  0  0  0  0  0  0  0  0  0  0  0
   29.8972   34.7231   50.2971 C   0  0  0  0  0  0  0  0  0  0  0  0
   30.9393   32.6549   46.0256 C   0  0  0  0  0  0  0  0  0  0  0  0
   32.8359   32.5771   43.6833 C   0  0  0  0  0  0  0  0  0  0  0  0
   30.4473   33.4435   49.6500 C   0  0  0  0  0  0  0  0  0  0  0  0
   30.8629   32.4231   47.5527 C   0  0  0  0  0  0  0  0  0  0  0  0
   32.1460   33.8148   44.3034 C   0  0  0  0  0  0  0  0  0  0  0  0
  1 12  1  0  0  0  0
  1 11  1  0  0  0  0
  2 13  1  0  0  0  0
  2  9  1  0  0  0  0
  3  4  1  1  0  0  0
  3  5  2  0  0  0  0
  3  6  1  0  0  0  0
  6  8  1  0  0  0  0
  7 10  1  0  0  0  0
  8 11  1  0  0  0  0
  9 12  1  0  0  0  0
 10 13  1  0  0  0  0
M  CHG  1   4  -1
M  END
>  <CHROM.1>
-176.46353592,-72.43886556,70.42847235,178.85796424,-56.82427406,176.41679734
65.12177816,-60.99062082,-176.07323825,31.14349622,34.75753569,48.02901597
0.88470818,-1.09247496,-2.83133548

>  <Name>
ligand

>  <RI>
0

>  <Rbt.Current_Directory>
/home/itssahil/PROJECTS/Mol_Feturizer/New_Systems/rnas/3GS8

>  <Rbt.Executable>
rbdock ($Id: //depot/dev/client3/rdock/2013.1/src/exe/rbdock.cxx#4 $)

>  <Rbt.Library>
libRbt.so (2013.1, Build901 2013/11/27)

>  <Rbt.Parameter_File>
/export/apps/rDock/src/rDock_2013.1_src/data/scripts/dock_solv.prm

>  <Rbt.Receptor>
prm/pocket_docking_4.prm

>  <SCORE>
-8.22683

>  <SCORE.INTER>
6.40622

>  <SCORE.INTER.CONST>
1

>  <SCORE.INTER.POLAR>
0

>  <SCORE.INTER.ROT>
9

>  <SCORE.INTER.SOLV>
6.55707

>  <SCORE.INTER.VDW>
-7.51487

>  <SCORE.INTER.norm>
0.492786

>  <SCORE.INTRA>
-14.6331

>  <SCORE.INTRA.DIHEDRAL>
-30.1558

>  <SCORE.INTRA.DIHEDRAL.0>
31.9578

>  <SCORE.INTRA.POLAR>
0

>  <SCORE.INTRA.POLAR.0>
0

>  <SCORE.INTRA.REPUL>
0

>  <SCORE.INTRA.REPUL.0>
0

>  <SCORE.INTRA.SOLV>
-1.17985

>  <SCORE.INTRA.SOLV.lig_0>
-48.4032

>  <SCORE.INTRA.VDW>
1.03479

>  <SCORE.INTRA.VDW.0>
-1.65238

>  <SCORE.INTRA.norm>
-1.12562

>  <SCORE.RESTR>
0

>  <SCORE.RESTR.CAVITY>
0

>  <SCORE.RESTR.norm>
0

>  <SCORE.SYSTEM>
0

>  <SCORE.SYSTEM.CONST>
0

>  <SCORE.SYSTEM.DIHEDRAL>
0

>  <SCORE.SYSTEM.SOLV>
0

>  <SCORE.SYSTEM.norm>
0

>  <SCORE.heavy>
13

>  <SCORE.norm>
-0.632833

>  <RMSD>
6.341

$$$$
ligand
 OpenBabel11021811473D
libRbt.so/2013.1/901 2013/11/27
 13 12  0  0  0  0  0  0  0  0999 V2000
   36.0869   31.5288   52.0626 O   0  0  0  0  0  0  0  0  0  0  0  0
   34.6180   34.2865   54.0771 O   0  0  0  0  0  0  0  0  0  0  0  0
   37.2196   30.9656   47.1491 P   0  0  1  0  0  0  0  0  0  0  0  0
   36.4105   31.3737   45.9492 O   0  5  0  0  0  0  0  0  0  0  0  0
   38.6544   30.8216   47.2650 O   0  0  0  0  0  0  0  0  0  0  0  0
   36.3326   31.4905   48.3905 O   0  0  0  0  0  0  0  0  0  0  0  0
   34.1002   37.6884   55.4385 O   0  0  0  0  0  0  0  0  0  0  0  0
   36.6906   31.2015   49.7594 C   0  0  0  0  0  0  0  0  0  0  0  0
   35.5001   33.6710   53.1184 C   0  0  0  0  0  0  0  0  0  0  0  0
   33.8486   36.2842   55.2532 C   0  0  0  0  0  0  0  0  0  0  0  0
   35.6825   31.8392   50.7268 C   0  0  0  0  0  0  0  0  0  0  0  0
   35.2195   32.1528   53.0289 C   0  0  0  0  0  0  0  0  0  0  0  0
   34.8440   35.6995   54.2239 C   0  0  0  0  0  0  0  0  0  0  0  0
  1 12  1  0  0  0  0
  1 11  1  0  0  0  0
  2 13  1  0  0  0  0
  2  9  1  0  0  0  0
  3  4  1  6  0  0  0
  3  5  2  0  0  0  0
  3  6  1  0  0  0  0
  6  8  1  0  0  0  0
  7 10  1  0  0  0  0
  8 11  1  0  0  0  0
  9 12  1  0  0  0  0
 10 13  1  0  0  0  0
M  CHG  1   4  -1
M  END
>  <CHROM.1>
-74.26998721,179.28392159,174.51382184,179.24288592,-179.70390343,179.03196551
179.40810800,178.02332275,177.17059160,35.91425275,32.82934826,50.89329084
-2.86636786,1.25407720,-0.85694900

>  <Name>
ligand

>  <RI>
0

>  <Rbt.Current_Directory>
/home/itssahil/PROJECTS/Mol_Feturizer/New_Systems/rnas/3GS8

>  <Rbt.Executable>
rbdock ($Id: //depot/dev/client3/rdock/2013.1/src/exe/rbdock.cxx#4 $)

>  <Rbt.Library>
libRbt.so (2013.1, Build901 2013/11/27)

>  <Rbt.Parameter_File>
/export/apps/rDock/src/rDock_2013.1_src/data/scripts/dock_solv.prm

>  <Rbt.Receptor>
prm/pocket_docking_8.prm

>  <SCORE>
-11.3849

>  <SCORE.INTER>
3.51666

>  <SCORE.INTER.CONST>
1

>  <SCORE.INTER.POLAR>
0

>  <SCORE.INTER.ROT>
9

>  <SCORE.INTER.SOLV>
11.5499

>  <SCORE.INTER.VDW>
-11.1055

>  <SCORE.INTER.norm>
0.270512

>  <SCORE.INTRA>
-14.9016

>  <SCORE.INTRA.DIHEDRAL>
-30.5674

>  <SCORE.INTRA.DIHEDRAL.0>
31.9578

>  <SCORE.INTRA.POLAR>
0

>  <SCORE.INTRA.POLAR.0>
0

>  <SCORE.INTRA.REPUL>
0

>  <SCORE.INTRA.REPUL.0>
0

>  <SCORE.INTRA.SOLV>
-1.91922

>  <SCORE.INTRA.SOLV.lig_0>
-48.4032

>  <SCORE.INTRA.VDW>
1.34175

>  <SCORE.INTRA.VDW.0>
-1.65238

>  <SCORE.INTRA.norm>
-1.14627

>  <SCORE.RESTR>
0

>  <SCORE.RESTR.CAVITY>
0

>  <SCORE.RESTR.norm>
0

>  <SCORE.SYSTEM>
0

>  <SCORE.SYSTEM.CONST>
0

>  <SCORE.SYSTEM.DIHEDRAL>
0

>  <SCORE.SYSTEM.SOLV>
0

>  <SCORE.SYSTEM.norm>
0

>  <SCORE.heavy>
13

>  <SCORE.norm>
-0.875761

>  <RMSD>
6.341

$$$$
ligand
 OpenBabel11021811473D
libRbt.so/2013.1/901 2013/11/27
 13 12  0  0  0  0  0  0  0  0999 V2000
   30.8264   32.1750   47.3174 O   0  0  0  0  0  0  0  0  0  0  0  0
   31.9453   32.4735   44.6794 O   0  0  0  0  0  0  0  0  0  0  0  0
   30.5302   35.5005   50.1016 P   0  0  1  0  0  0  0  0  0  0  0  0
   30.4597   36.7030   49.2015 O   0  5  0  0  0  0  0  0  0  0  0  0
   30.3110   35.4268   51.5296 O   0  0  0  0  0  0  0  0  0  0  0  0
   30.1048   34.2846   49.1301 O   0  0  0  0  0  0  0  0  0  0  0  0
   33.8899   30.4987   43.8935 O   0  0  0  0  0  0  0  0  0  0  0  0
   30.2419   32.9042   49.5316 C   0  0  0  0  0  0  0  0  0  0  0  0
   31.5237   33.6155   45.4501 C   0  0  0  0  0  0  0  0  0  0  0  0
   33.4068   31.5007   42.9812 C   0  0  0  0  0  0  0  0  0  0  0  0
   29.8816   31.9662   48.3701 C   0  0  0  0  0  0  0  0  0  0  0  0
   30.3898   33.2169   46.4233 C   0  0  0  0  0  0  0  0  0  0  0  0
   33.0085   32.7768   43.7592 C   0  0  0  0  0  0  0  0  0  0  0  0
  1 12  1  0  0  0  0
  1 11  1  0  0  0  0
  2 13  1  0  0  0  0
  2  9  1  0  0  0  0
  3  4  1  6  0  0  0
  3  5  2  0  0  0  0
  3  6  1  0  0  0  0
  6  8  1  0  0  0  0
  7 10  1  0  0  0  0
  8 11  1  0  0  0  0
  9 12  1  0  0  0  0
 10 13  1  0  0  0  0
M  CHG  1   4  -1
M  END
>  <CHROM.1>
169.51493402,179.62732588,169.96991288,-174.91959533,63.89352055,-179.55756381
58.89508320,-61.63892896,-89.06201527,31.21049209,33.50256339,47.37492486
0.72561733,-1.08854282,-2.86723259

>  <Name>
ligand

>  <RI>
0

>  <Rbt.Current_Directory>
/home/itssahil/PROJECTS/Mol_Feturizer/New_Systems/rnas/3GS8

>  <Rbt.Executable>
rbdock ($Id: //depot/dev/client3/rdock/2013.1/src/exe/rbdock.cxx#4 $)

>  <Rbt.Library>
libRbt.so (2013.1, Build901 2013/11/27)

>  <Rbt.Parameter_File>
/export/apps/rDock/src/rDock_2013.1_src/data/scripts/dock_solv.prm

>  <Rbt.Receptor>
prm/pocket_docking_4.prm

>  <SCORE>
-8.8027

>  <SCORE.INTER>
4.85619

>  <SCORE.INTER.CONST>
1

>  <SCORE.INTER.POLAR>
0

>  <SCORE.INTER.ROT>
9

>  <SCORE.INTER.SOLV>
9.98013

>  <SCORE.INTER.VDW>
-9.68925

>  <SCORE.INTER.norm>
0.373553

>  <SCORE.INTRA>
-13.6589

>  <SCORE.INTRA.DIHEDRAL>
-27.4943

>  <SCORE.INTRA.DIHEDRAL.0>
31.9578

>  <SCORE.INTRA.POLAR>
0

>  <SCORE.INTRA.POLAR.0>
0

>  <SCORE.INTRA.REPUL>
0

>  <SCORE.INTRA.REPUL.0>
0

>  <SCORE.INTRA.SOLV>
-0.876163

>  <SCORE.INTRA.SOLV.lig_0>
-48.4032

>  <SCORE.INTRA.VDW>
0.52634

>  <SCORE.INTRA.VDW.0>
-1.65238

>  <SCORE.INTRA.norm>
-1.05068

>  <SCORE.RESTR>
0

>  <SCORE.RESTR.CAVITY>
0

>  <SCORE.RESTR.norm>
0

>  <SCORE.SYSTEM>
0

>  <SCORE.SYSTEM.CONST>
0

>  <SCORE.SYSTEM.DIHEDRAL>
0

>  <SCORE.SYSTEM.SOLV>
0

>  <SCORE.SYSTEM.norm>
0

>  <SCORE.heavy>
13

>  <SCORE.norm>
-0.677131

>  <RMSD>
6.346

$$$$
ligand
 OpenBabel11021811473D
libRbt.so/2013.1/901 2013/11/27
 13 12  0  0  0  0  0  0  0  0999 V2000
   31.0094   33.1125   46.5999 O   0  0  0  0  0  0  0  0  0  0  0  0
   33.2418   33.0116   44.6997 O   0  0  0  0  0  0  0  0  0  0  0  0
   30.3736   34.3887   49.6635 P   0  0  1  0  0  0  0  0  0  0  0  0
   29.1761   34.0279   50.4982 O   0  5  0  0  0  0  0  0  0  0  0  0
   31.7127   33.8442   49.7215 O   0  0  0  0  0  0  0  0  0  0  0  0
   29.7227   34.8503   48.2612 O   0  0  0  0  0  0  0  0  0  0  0  0
   35.4321   31.5525   43.6141 O   0  0  0  0  0  0  0  0  0  0  0  0
   28.9271   33.9520   47.4576 C   0  0  0  0  0  0  0  0  0  0  0  0
   32.2875   34.0903   44.7402 C   0  0  0  0  0  0  0  0  0  0  0  0
   34.1036   31.0005   43.6140 C   0  0  0  0  0  0  0  0  0  0  0  0
   29.7334   32.6967   47.0932 C   0  0  0  0  0  0  0  0  0  0  0  0
   30.9170   33.5756   45.2388 C   0  0  0  0  0  0  0  0  0  0  0  0
   33.0575   32.1389   43.5712 C   0  0  0  0  0  0  0  0  0  0  0  0
  1 12  1  0  0  0  0
  1 11  1  0  0  0  0
  2 13  1  0  0  0  0
  2  9  1  0  0  0  0
  3  4  1  6  0  0  0
  3  5  2  0  0  0  0
  3  6  1  0  0  0  0
  6  8  1  0  0  0  0
  7 10  1  0  0  0  0
  8 11  1  0  0  0  0
  9 12  1  0  0  0  0
 10 13  1  0  0  0  0
M  CHG  1   4  -1
M  END
>  <CHROM.1>
177.09027824,-179.12727658,-61.02806717,-57.70288678,-48.41250118,76.72158962
64.34750846,-58.13500583,-77.90596546,31.43461608,33.34925439,46.81313309
2.19420838,-0.29572783,1.40606985

>  <Name>
ligand

>  <RI>
0

>  <Rbt.Current_Directory>
/home/itssahil/PROJECTS/Mol_Feturizer/New_Systems/rnas/3GS8

>  <Rbt.Executable>
rbdock ($Id: //depot/dev/client3/rdock/2013.1/src/exe/rbdock.cxx#4 $)

>  <Rbt.Library>
libRbt.so (2013.1, Build901 2013/11/27)

>  <Rbt.Parameter_File>
/export/apps/rDock/src/rDock_2013.1_src/data/scripts/dock_solv.prm

>  <Rbt.Receptor>
prm/pocket_docking_3.prm

>  <SCORE>
-5.81276

>  <SCORE.INTER>
5.40128

>  <SCORE.INTER.CONST>
1

>  <SCORE.INTER.POLAR>
0

>  <SCORE.INTER.ROT>
9

>  <SCORE.INTER.SOLV>
8.36682

>  <SCORE.INTER.VDW>
-8.78809

>  <SCORE.INTER.norm>
0.415483

>  <SCORE.INTRA>
-11.214

>  <SCORE.INTRA.DIHEDRAL>
-28.1029

>  <SCORE.INTRA.DIHEDRAL.0>
31.9578

>  <SCORE.INTRA.POLAR>
0

>  <SCORE.INTRA.POLAR.0>
0

>  <SCORE.INTRA.REPUL>
0

>  <SCORE.INTRA.REPUL.0>
0

>  <SCORE.INTRA.SOLV>
2.28128

>  <SCORE.INTRA.SOLV.lig_0>
-48.4032

>  <SCORE.INTRA.VDW>
1.69678

>  <SCORE.INTRA.VDW.0>
-1.65238

>  <SCORE.INTRA.norm>
-0.862618

>  <SCORE.RESTR>
0

>  <SCORE.RESTR.CAVITY>
0

>  <SCORE.RESTR.norm>
0

>  <SCORE.SYSTEM>
0

>  <SCORE.SYSTEM.CONST>
0

>  <SCORE.SYSTEM.DIHEDRAL>
0

>  <SCORE.SYSTEM.SOLV>
0

>  <SCORE.SYSTEM.norm>
0

>  <SCORE.heavy>
13

>  <SCORE.norm>
-0.447135

>  <RMSD>
6.352

$$$$
ligand
 OpenBabel11021811473D
libRbt.so/2013.1/901 2013/11/27
 13 12  0  0  0  0  0  0  0  0999 V2000
   30.2480   34.1307   48.2696 O   0  0  0  0  0  0  0  0  0  0  0  0
   31.6332   33.1746   45.9425 O   0  0  0  0  0  0  0  0  0  0  0  0
   30.2046   38.0838   50.0280 P   0  0  1  0  0  0  0  0  0  0  0  0
   29.9977   38.8532   48.7527 O   0  5  0  0  0  0  0  0  0  0  0  0
   30.0783   38.5464   51.3929 O   0  0  0  0  0  0  0  0  0  0  0  0
   29.8045   36.5750   49.6199 O   0  0  0  0  0  0  0  0  0  0  0  0
   34.3632   32.7525   45.1924 O   0  0  0  0  0  0  0  0  0  0  0  0
   30.3728   35.4281   50.2888 C   0  0  0  0  0  0  0  0  0  0  0  0
   30.2212   32.9458   46.1147 C   0  0  0  0  0  0  0  0  0  0  0  0
   33.5102   33.6428   44.4513 C   0  0  0  0  0  0  0  0  0  0  0  0
   29.8696   34.1260   49.6484 C   0  0  0  0  0  0  0  0  0  0  0  0
   29.8640   32.9041   47.6188 C   0  0  0  0  0  0  0  0  0  0  0  0
   32.0385   33.1804   44.5623 C   0  0  0  0  0  0  0  0  0  0  0  0
  1 12  1  0  0  0  0
  1 11  1  0  0  0  0
  2 13  1  0  0  0  0
  2  9  1  0  0  0  0
  3  4  1  6  0  0  0
  3  5  2  0  0  0  0
  3  6  1  0  0  0  0
  6  8  1  0  0  0  0
  7 10  1  0  0  0  0
  8 11  1  0  0  0  0
  9 12  1  0  0  0  0
 10 13  1  0  0  0  0
M  CHG  1   4  -1
M  END
>  <CHROM.1>
177.46530449,171.40171044,152.31197325,-177.05497873,59.24023385,178.06851454
57.93446923,59.75298954,177.16463214,30.88456116,35.24159559,48.03300464
1.06556718,-0.81035866,-2.72938648

>  <Name>
ligand

>  <RI>
0

>  <Rbt.Current_Directory>
/home/itssahil/PROJECTS/Mol_Feturizer/New_Systems/rnas/3GS8

>  <Rbt.Executable>
rbdock ($Id: //depot/dev/client3/rdock/2013.1/src/exe/rbdock.cxx#4 $)

>  <Rbt.Library>
libRbt.so (2013.1, Build901 2013/11/27)

>  <Rbt.Parameter_File>
/export/apps/rDock/src/rDock_2013.1_src/data/scripts/dock_solv.prm

>  <Rbt.Receptor>
prm/pocket_docking_3.prm

>  <SCORE>
-9.07329

>  <SCORE.INTER>
7.12553

>  <SCORE.INTER.CONST>
1

>  <SCORE.INTER.POLAR>
0

>  <SCORE.INTER.ROT>
9

>  <SCORE.INTER.SOLV>
6.75547

>  <SCORE.INTER.VDW>
-7.10147

>  <SCORE.INTER.norm>
0.548118

>  <SCORE.INTRA>
-16.1988

>  <SCORE.INTRA.DIHEDRAL>
-31.0808

>  <SCORE.INTRA.DIHEDRAL.0>
31.9578

>  <SCORE.INTRA.POLAR>
0

>  <SCORE.INTRA.POLAR.0>
0

>  <SCORE.INTRA.REPUL>
0

>  <SCORE.INTRA.REPUL.0>
0

>  <SCORE.INTRA.SOLV>
-1.46213

>  <SCORE.INTRA.SOLV.lig_0>
-48.4032

>  <SCORE.INTRA.VDW>
0.0726619

>  <SCORE.INTRA.VDW.0>
-1.65238

>  <SCORE.INTRA.norm>
-1.24606

>  <SCORE.RESTR>
0

>  <SCORE.RESTR.CAVITY>
0

>  <SCORE.RESTR.norm>
0

>  <SCORE.SYSTEM>
0

>  <SCORE.SYSTEM.CONST>
0

>  <SCORE.SYSTEM.DIHEDRAL>
0

>  <SCORE.SYSTEM.SOLV>
0

>  <SCORE.SYSTEM.norm>
0

>  <SCORE.heavy>
13

>  <SCORE.norm>
-0.697946

>  <RMSD>
6.358

$$$$
ligand
 OpenBabel11021811473D
libRbt.so/2013.1/901 2013/11/27
 13 12  0  0  0  0  0  0  0  0999 V2000
   34.9260   31.7467   50.6729 O   0  0  0  0  0  0  0  0  0  0  0  0
   32.5885   30.9863   52.2076 O   0  0  0  0  0  0  0  0  0  0  0  0
   38.0467   30.8253   46.7812 P   0  0  1  0  0  0  0  0  0  0  0  0
   39.4481   30.2813   46.8168 O   0  5  0  0  0  0  0  0  0  0  0  0
   37.0384   30.6582   45.7573 O   0  0  0  0  0  0  0  0  0  0  0  0
   37.6430   30.9126   48.3409 O   0  0  0  0  0  0  0  0  0  0  0  0
   30.5437   29.3865   50.9900 O   0  0  0  0  0  0  0  0  0  0  0  0
   36.3380   31.3612   48.7666 C   0  0  0  0  0  0  0  0  0  0  0  0
   33.3397   32.1802   52.5015 C   0  0  0  0  0  0  0  0  0  0  0  0
   30.5159   29.7072   52.3922 C   0  0  0  0  0  0  0  0  0  0  0  0
   36.2772   31.4679   50.2975 C   0  0  0  0  0  0  0  0  0  0  0  0
   34.8186   31.9989   52.0872 C   0  0  0  0  0  0  0  0  0  0  0  0
   31.2184   31.0628   52.6391 C   0  0  0  0  0  0  0  0  0  0  0  0
  1 12  1  0  0  0  0
  1 11  1  0  0  0  0
  2 13  1  0  0  0  0
  2  9  1  0  0  0  0
  3  4  1  1  0  0  0
  3  5  2  0  0  0  0
  3  6  1  0  0  0  0
  6  8  1  0  0  0  0
  7 10  1  0  0  0  0
  8 11  1  0  0  0  0
  9 12  1  0  0  0  0
 10 13  1  0  0  0  0
M  CHG  1   4  -1
M  END
>  <CHROM.1>
-175.18818459,-175.42880656,-178.35678877,-174.72742159,-172.69022498,176.71107034
60.66943680,-60.28911705,-173.96579519,35.11499264,30.93879692,49.70957114
-2.55331209,-0.37331309,-2.05781692

>  <Name>
ligand

>  <RI>
0

>  <Rbt.Current_Directory>
/home/itssahil/PROJECTS/Mol_Feturizer/New_Systems/rnas/3GS8

>  <Rbt.Executable>
rbdock ($Id: //depot/dev/client3/rdock/2013.1/src/exe/rbdock.cxx#4 $)

>  <Rbt.Library>
libRbt.so (2013.1, Build901 2013/11/27)

>  <Rbt.Parameter_File>
/export/apps/rDock/src/rDock_2013.1_src/data/scripts/dock_solv.prm

>  <Rbt.Receptor>
prm/pocket_docking_6.prm

>  <SCORE>
-14.459

>  <SCORE.INTER>
1.37832

>  <SCORE.INTER.CONST>
1

>  <SCORE.INTER.POLAR>
0

>  <SCORE.INTER.ROT>
9

>  <SCORE.INTER.SOLV>
13.8052

>  <SCORE.INTER.VDW>
-13.2829

>  <SCORE.INTER.norm>
0.106025

>  <SCORE.INTRA>
-15.8373

>  <SCORE.INTRA.DIHEDRAL>
-30.6732

>  <SCORE.INTRA.DIHEDRAL.0>
31.9578

>  <SCORE.INTRA.POLAR>
0

>  <SCORE.INTRA.POLAR.0>
0

>  <SCORE.INTRA.REPUL>
0

>  <SCORE.INTRA.REPUL.0>
0

>  <SCORE.INTRA.SOLV>
-1.52285

>  <SCORE.INTRA.SOLV.lig_0>
-48.4032

>  <SCORE.INTRA.VDW>
0.260719

>  <SCORE.INTRA.VDW.0>
-1.65238

>  <SCORE.INTRA.norm>
-1.21825

>  <SCORE.RESTR>
0

>  <SCORE.RESTR.CAVITY>
0

>  <SCORE.RESTR.norm>
0

>  <SCORE.SYSTEM>
0

>  <SCORE.SYSTEM.CONST>
0

>  <SCORE.SYSTEM.DIHEDRAL>
0

>  <SCORE.SYSTEM.SOLV>
0

>  <SCORE.SYSTEM.norm>
0

>  <SCORE.heavy>
13

>  <SCORE.norm>
-1.11223

>  <RMSD>
6.359

$$$$
ligand
 OpenBabel11021811473D
libRbt.so/2013.1/901 2013/11/27
 13 12  0  0  0  0  0  0  0  0999 V2000
   32.4020   32.1669   49.4749 O   0  0  0  0  0  0  0  0  0  0  0  0
   35.1774   31.9517   49.6605 O   0  0  0  0  0  0  0  0  0  0  0  0
   31.2463   33.0049   45.3370 P   0  0  1  0  0  0  0  0  0  0  0  0
   30.0254   33.8729   45.2067 O   0  5  0  0  0  0  0  0  0  0  0  0
   32.2966   32.7718   44.3699 O   0  0  0  0  0  0  0  0  0  0  0  0
   31.5650   33.0483   46.9181 O   0  0  0  0  0  0  0  0  0  0  0  0
   38.3417   30.5331   48.3676 O   0  0  0  0  0  0  0  0  0  0  0  0
   30.6289   32.5502   47.8985 C   0  0  0  0  0  0  0  0  0  0  0  0
   34.4005   31.8284   50.8676 C   0  0  0  0  0  0  0  0  0  0  0  0
   37.1040   31.2651   48.3253 C   0  0  0  0  0  0  0  0  0  0  0  0
   31.1409   32.8228   49.3206 C   0  0  0  0  0  0  0  0  0  0  0  0
   33.0422   32.5501   50.7074 C   0  0  0  0  0  0  0  0  0  0  0  0
   36.4112   31.2137   49.7072 C   0  0  0  0  0  0  0  0  0  0  0  0
  1 12  1  0  0  0  0
  1 11  1  0  0  0  0
  2 13  1  0  0  0  0
  2  9  1  0  0  0  0
  3  4  1  6  0  0  0
  3  5  2  0  0  0  0
  3  6  1  0  0  0  0
  6  8  1  0  0  0  0
  7 10  1  0  0  0  0
  8 11  1  0  0  0  0
  9 12  1  0  0  0  0
 10 13  1  0  0  0  0
M  CHG  1   4  -1
M  END
>  <CHROM.1>
179.65475960,173.57161793,61.86902803,-175.33168803,-59.60008182,-175.49450143
48.81040429,179.76361271,170.89645961,33.19383805,32.34039377,47.89244266
0.57962210,-0.29391236,1.62988438

>  <Name>
ligand

>  <RI>
0

>  <Rbt.Current_Directory>
/home/itssahil/PROJECTS/Mol_Feturizer/New_Systems/rnas/3GS8

>  <Rbt.Executable>
rbdock ($Id: //depot/dev/client3/rdock/2013.1/src/exe/rbdock.cxx#4 $)

>  <Rbt.Library>
libRbt.so (2013.1, Build901 2013/11/27)

>  <Rbt.Parameter_File>
/export/apps/rDock/src/rDock_2013.1_src/data/scripts/dock_solv.prm

>  <Rbt.Receptor>
prm/pocket_docking_5.prm

>  <SCORE>
-12.9994

>  <SCORE.INTER>
2.5767

>  <SCORE.INTER.CONST>
1

>  <SCORE.INTER.POLAR>
0

>  <SCORE.INTER.ROT>
9

>  <SCORE.INTER.SOLV>
15.0797

>  <SCORE.INTER.VDW>
-12.9088

>  <SCORE.INTER.norm>
0.198208

>  <SCORE.INTRA>
-15.5761

>  <SCORE.INTRA.DIHEDRAL>
-30.1822

>  <SCORE.INTRA.DIHEDRAL.0>
31.9578

>  <SCORE.INTRA.POLAR>
0

>  <SCORE.INTRA.POLAR.0>
0

>  <SCORE.INTRA.REPUL>
0

>  <SCORE.INTRA.REPUL.0>
0

>  <SCORE.INTRA.SOLV>
-1.49284

>  <SCORE.INTRA.SOLV.lig_0>
-48.4032

>  <SCORE.INTRA.VDW>
0.261451

>  <SCORE.INTRA.VDW.0>
-1.65238

>  <SCORE.INTRA.norm>
-1.19816

>  <SCORE.RESTR>
0

>  <SCORE.RESTR.CAVITY>
0

>  <SCORE.RESTR.norm>
0

>  <SCORE.SYSTEM>
0

>  <SCORE.SYSTEM.CONST>
0

>  <SCORE.SYSTEM.DIHEDRAL>
0

>  <SCORE.SYSTEM.SOLV>
0

>  <SCORE.SYSTEM.norm>
0

>  <SCORE.heavy>
13

>  <SCORE.norm>
-0.999952

>  <RMSD>
6.365

$$$$
ligand
 OpenBabel11021811473D
libRbt.so/2013.1/901 2013/11/27
 13 12  0  0  0  0  0  0  0  0999 V2000
   30.7226   32.8968   47.0056 O   0  0  0  0  0  0  0  0  0  0  0  0
   32.4983   32.5207   44.7242 O   0  0  0  0  0  0  0  0  0  0  0  0
   30.9636   33.4375   51.3596 P   0  0  1  0  0  0  0  0  0  0  0  0
   29.6737   33.6703   52.0966 O   0  5  0  0  0  0  0  0  0  0  0  0
   32.1451   32.7324   51.8066 O   0  0  0  0  0  0  0  0  0  0  0  0
   30.5050   33.3969   49.8132 O   0  0  0  0  0  0  0  0  0  0  0  0
   33.9681   30.4595   43.3971 O   0  0  0  0  0  0  0  0  0  0  0  0
   30.0240   32.1850   49.1922 C   0  0  0  0  0  0  0  0  0  0  0  0
   31.6139   33.6521   44.8415 C   0  0  0  0  0  0  0  0  0  0  0  0
   34.6337   31.5863   43.9945 C   0  0  0  0  0  0  0  0  0  0  0  0
   29.5815   32.4584   47.7472 C   0  0  0  0  0  0  0  0  0  0  0  0
   30.3600   33.2701   45.6622 C   0  0  0  0  0  0  0  0  0  0  0  0
   33.6981   32.8178   43.9885 C   0  0  0  0  0  0  0  0  0  0  0  0
  1 12  1  0  0  0  0
  1 11  1  0  0  0  0
  2 13  1  0  0  0  0
  2  9  1  0  0  0  0
  3  4  1  1  0  0  0
  3  5  2  0  0  0  0
  3  6  1  0  0  0  0
  6  8  1  0  0  0  0
  7 10  1  0  0  0  0
  8 11  1  0  0  0  0
  9 12  1  0  0  0  0
 10 13  1  0  0  0  0
M  CHG  1   4  -1
M  END
>  <CHROM.1>
-176.21638896,176.01038888,-85.39553308,176.60087883,62.55555387,-179.01580610
62.48535703,59.33195570,-175.60381904,31.52071310,32.75323565,47.72140506
1.19825970,0.33763120,-1.61460139

>  <Name>
ligand

>  <RI>
0

>  <Rbt.Current_Directory>
/home/itssahil/PROJECTS/Mol_Feturizer/New_Systems/rnas/3GS8

>  <Rbt.Executable>
rbdock ($Id: //depot/dev/client3/rdock/2013.1/src/exe/rbdock.cxx#4 $)

>  <Rbt.Library>
libRbt.so (2013.1, Build901 2013/11/27)

>  <Rbt.Parameter_File>
/export/apps/rDock/src/rDock_2013.1_src/data/scripts/dock_solv.prm

>  <Rbt.Receptor>
prm/pocket_docking_4.prm

>  <SCORE>
-11.0889

>  <SCORE.INTER>
5.11727

>  <SCORE.INTER.CONST>
1

>  <SCORE.INTER.POLAR>
0

>  <SCORE.INTER.ROT>
9

>  <SCORE.INTER.SOLV>
5.85035

>  <SCORE.INTER.VDW>
-8.1386

>  <SCORE.INTER.norm>
0.393636

>  <SCORE.INTRA>
-16.2062

>  <SCORE.INTRA.DIHEDRAL>
-31.2666

>  <SCORE.INTRA.DIHEDRAL.0>
31.9578

>  <SCORE.INTRA.POLAR>
0

>  <SCORE.INTRA.POLAR.0>
0

>  <SCORE.INTRA.REPUL>
0

>  <SCORE.INTRA.REPUL.0>
0

>  <SCORE.INTRA.SOLV>
-1.20719

>  <SCORE.INTRA.SOLV.lig_0>
-48.4032

>  <SCORE.INTRA.VDW>
0.0307132

>  <SCORE.INTRA.VDW.0>
-1.65238

>  <SCORE.INTRA.norm>
-1.24663

>  <SCORE.RESTR>
0

>  <SCORE.RESTR.CAVITY>
0

>  <SCORE.RESTR.norm>
0

>  <SCORE.SYSTEM>
0

>  <SCORE.SYSTEM.CONST>
0

>  <SCORE.SYSTEM.DIHEDRAL>
0

>  <SCORE.SYSTEM.SOLV>
0

>  <SCORE.SYSTEM.norm>
0

>  <SCORE.heavy>
13

>  <SCORE.norm>
-0.852994

>  <RMSD>
6.372

$$$$
ligand
 OpenBabel11021811473D
libRbt.so/2013.1/901 2013/11/27
 13 12  0  0  0  0  0  0  0  0999 V2000
   30.9710   31.6956   50.5829 O   0  0  0  0  0  0  0  0  0  0  0  0
   33.9379   31.3842   50.7571 O   0  0  0  0  0  0  0  0  0  0  0  0
   29.1746   33.1599   46.9640 P   0  0  1  0  0  0  0  0  0  0  0  0
   30.4387   33.5788   46.2658 O   0  5  0  0  0  0  0  0  0  0  0  0
   27.8416   33.0281   46.4175 O   0  0  0  0  0  0  0  0  0  0  0  0
   29.7018   32.1669   48.1213 O   0  0  0  0  0  0  0  0  0  0  0  0
   35.6194   31.9696   48.5348 O   0  0  0  0  0  0  0  0  0  0  0  0
   28.9376   31.9216   49.3219 C   0  0  0  0  0  0  0  0  0  0  0  0
   33.0678   31.6755   51.8680 C   0  0  0  0  0  0  0  0  0  0  0  0
   36.1653   31.4409   49.7563 C   0  0  0  0  0  0  0  0  0  0  0  0
   29.7327   31.0407   50.2969 C   0  0  0  0  0  0  0  0  0  0  0  0
   31.6801   31.0301   51.6459 C   0  0  0  0  0  0  0  0  0  0  0  0
   35.2816   31.8581   50.9551 C   0  0  0  0  0  0  0  0  0  0  0  0
  1 12  1  0  0  0  0
  1 11  1  0  0  0  0
  2 13  1  0  0  0  0
  2  9  1  0  0  0  0
  3  4  1  6  0  0  0
  3  5  2  0  0  0  0
  3  6  1  0  0  0  0
  6  8  1  0  0  0  0
  7 10  1  0  0  0  0
  8 11  1  0  0  0  0
  9 12  1  0  0  0  0
 10 13  1  0  0  0  0
M  CHG  1   4  -1
M  END
>  <CHROM.1>
175.34015940,177.00199552,156.30570538,-174.93161981,57.36517050,-174.90863453
-69.90394894,58.20207854,171.17781168,31.51142291,32.10680926,49.10370307
0.55023704,0.00013537,1.94701934

>  <Name>
ligand

>  <RI>
0

>  <Rbt.Current_Directory>
/home/itssahil/PROJECTS/Mol_Feturizer/New_Systems/rnas/3GS8

>  <Rbt.Executable>
rbdock ($Id: //depot/dev/client3/rdock/2013.1/src/exe/rbdock.cxx#4 $)

>  <Rbt.Library>
libRbt.so (2013.1, Build901 2013/11/27)

>  <Rbt.Parameter_File>
/export/apps/rDock/src/rDock_2013.1_src/data/scripts/dock_solv.prm

>  <Rbt.Receptor>
prm/pocket_docking_8.prm

>  <SCORE>
-15.0228

>  <SCORE.INTER>
0.810752

>  <SCORE.INTER.CONST>
1

>  <SCORE.INTER.POLAR>
0

>  <SCORE.INTER.ROT>
9

>  <SCORE.INTER.SOLV>
8.58619

>  <SCORE.INTER.VDW>
-11.9216

>  <SCORE.INTER.norm>
0.0623655

>  <SCORE.INTRA>
-15.8335

>  <SCORE.INTRA.DIHEDRAL>
-30.4578

>  <SCORE.INTRA.DIHEDRAL.0>
31.9578

>  <SCORE.INTRA.POLAR>
0

>  <SCORE.INTRA.POLAR.0>
0

>  <SCORE.INTRA.REPUL>
0

>  <SCORE.INTRA.REPUL.0>
0

>  <SCORE.INTRA.SOLV>
-1.44433

>  <SCORE.INTRA.SOLV.lig_0>
-48.4032

>  <SCORE.INTRA.VDW>
0.117513

>  <SCORE.INTRA.VDW.0>
-1.65238

>  <SCORE.INTRA.norm>
-1.21796

>  <SCORE.RESTR>
0

>  <SCORE.RESTR.CAVITY>
0

>  <SCORE.RESTR.norm>
0

>  <SCORE.SYSTEM>
0

>  <SCORE.SYSTEM.CONST>
0

>  <SCORE.SYSTEM.DIHEDRAL>
0

>  <SCORE.SYSTEM.SOLV>
0

>  <SCORE.SYSTEM.norm>
0

>  <SCORE.heavy>
13

>  <SCORE.norm>
-1.1556

>  <RMSD>
6.373

$$$$
ligand
 OpenBabel11021811473D
libRbt.so/2013.1/901 2013/11/27
 13 12  0  0  0  0  0  0  0  0999 V2000
   36.7881   31.3242   48.8610 O   0  0  0  0  0  0  0  0  0  0  0  0
   34.9311   31.4460   51.0268 O   0  0  0  0  0  0  0  0  0  0  0  0
   36.5669   32.6744   44.7105 P   0  0  1  0  0  0  0  0  0  0  0  0
   36.3880   34.1577   44.8806 O   0  5  0  0  0  0  0  0  0  0  0  0
   36.9080   31.9369   43.5136 O   0  0  0  0  0  0  0  0  0  0  0  0
   37.0874   32.1950   46.1605 O   0  0  0  0  0  0  0  0  0  0  0  0
   32.1583   31.9141   50.3108 O   0  0  0  0  0  0  0  0  0  0  0  0
   37.1151   30.8013   46.5381 C   0  0  0  0  0  0  0  0  0  0  0  0
   36.2762   31.9368   51.1871 C   0  0  0  0  0  0  0  0  0  0  0  0
   32.5683   31.5408   51.6382 C   0  0  0  0  0  0  0  0  0  0  0  0
   37.6649   30.6393   47.9629 C   0  0  0  0  0  0  0  0  0  0  0  0
   37.2351   31.1979   50.2247 C   0  0  0  0  0  0  0  0  0  0  0  0
   33.9935   32.0710   51.9208 C   0  0  0  0  0  0  0  0  0  0  0  0
  1 12  1  0  0  0  0
  1 11  1  0  0  0  0
  2 13  1  0  0  0  0
  2  9  1  0  0  0  0
  3  4  1  6  0  0  0
  3  5  2  0  0  0  0
  3  6  1  0  0  0  0
  6  8  1  0  0  0  0
  7 10  1  0  0  0  0
  8 11  1  0  0  0  0
  9 12  1  0  0  0  0
 10 13  1  0  0  0  0
M  CHG  1   4  -1
M  END
>  <CHROM.1>
-179.74433712,177.25399624,166.36980256,179.55313165,61.84771253,178.50436873
56.17417643,-63.78139427,179.20768483,35.87518416,31.91943312,48.03352511
-1.99410548,0.32384337,-1.30551254

>  <Name>
ligand

>  <RI>
0

>  <Rbt.Current_Directory>
/home/itssahil/PROJECTS/Mol_Feturizer/New_Systems/rnas/3GS8

>  <Rbt.Executable>
rbdock ($Id: //depot/dev/client3/rdock/2013.1/src/exe/rbdock.cxx#4 $)

>  <Rbt.Library>
libRbt.so (2013.1, Build901 2013/11/27)

>  <Rbt.Parameter_File>
/export/apps/rDock/src/rDock_2013.1_src/data/scripts/dock_solv.prm

>  <Rbt.Receptor>
prm/pocket_docking_6.prm

>  <SCORE>
-14.5472

>  <SCORE.INTER>
1.85066

>  <SCORE.INTER.CONST>
1

>  <SCORE.INTER.POLAR>
0

>  <SCORE.INTER.ROT>
9

>  <SCORE.INTER.SOLV>
5.28022

>  <SCORE.INTER.VDW>
-10.1263

>  <SCORE.INTER.norm>
0.142358

>  <SCORE.INTRA>
-16.3978

>  <SCORE.INTRA.DIHEDRAL>
-31.496

>  <SCORE.INTRA.DIHEDRAL.0>
31.9578

>  <SCORE.INTRA.POLAR>
0

>  <SCORE.INTRA.POLAR.0>
0

>  <SCORE.INTRA.REPUL>
0

>  <SCORE.INTRA.REPUL.0>
0

>  <SCORE.INTRA.SOLV>
-1.44508

>  <SCORE.INTRA.SOLV.lig_0>
-48.4032

>  <SCORE.INTRA.VDW>
0.0726748

>  <SCORE.INTRA.VDW.0>
-1.65238

>  <SCORE.INTRA.norm>
-1.26137

>  <SCORE.RESTR>
0

>  <SCORE.RESTR.CAVITY>
0

>  <SCORE.RESTR.norm>
0

>  <SCORE.SYSTEM>
0

>  <SCORE.SYSTEM.CONST>
0

>  <SCORE.SYSTEM.DIHEDRAL>
0

>  <SCORE.SYSTEM.SOLV>
0

>  <SCORE.SYSTEM.norm>
0

>  <SCORE.heavy>
13

>  <SCORE.norm>
-1.11901

>  <RMSD>
6.380

$$$$
ligand
 OpenBabel11021811473D
libRbt.so/2013.1/901 2013/11/27
 13 12  0  0  0  0  0  0  0  0999 V2000
   36.8159   31.0036   47.2615 O   0  0  0  0  0  0  0  0  0  0  0  0
   35.5822   31.8026   49.6699 O   0  0  0  0  0  0  0  0  0  0  0  0
   34.3960   32.1274   43.7492 P   0  0  1  0  0  0  0  0  0  0  0  0
   33.8430   30.7323   43.6543 O   0  5  0  0  0  0  0  0  0  0  0  0
   33.7306   33.3834   43.4794 O   0  0  0  0  0  0  0  0  0  0  0  0
   35.5078   32.0073   44.9122 O   0  0  0  0  0  0  0  0  0  0  0  0
   33.5536   33.6927   50.3604 O   0  0  0  0  0  0  0  0  0  0  0  0
   36.5465   31.0047   44.8733 C   0  0  0  0  0  0  0  0  0  0  0  0
   36.8513   31.1222   49.7177 C   0  0  0  0  0  0  0  0  0  0  0  0
   33.4262   32.3015   50.7038 C   0  0  0  0  0  0  0  0  0  0  0  0
   37.5287   31.2000   46.0377 C   0  0  0  0  0  0  0  0  0  0  0  0
   37.6296   31.3456   48.4001 C   0  0  0  0  0  0  0  0  0  0  0  0
   34.8267   31.6712   50.8869 C   0  0  0  0  0  0  0  0  0  0  0  0
  1 12  1  0  0  0  0
  1 11  1  0  0  0  0
  2 13  1  0  0  0  0
  2  9  1  0  0  0  0
  3  4  1  1  0  0  0
  3  5  2  0  0  0  0
  3  6  1  0  0  0  0
  6  8  1  0  0  0  0
  7 10  1  0  0  0  0
  8 11  1  0  0  0  0
  9 12  1  0  0  0  0
 10 13  1  0  0  0  0
M  CHG  1   4  -1
M  END
>  <CHROM.1>
-179.70314803,-174.22749936,52.54635202,175.13021299,63.55779982,-178.01997824
-52.42743475,-59.21991462,-172.29798435,35.29048726,31.84293598,46.89399922
-1.49481857,0.44415554,-1.62439377

>  <Name>
ligand

>  <RI>
0

>  <Rbt.Current_Directory>
/home/itssahil/PROJECTS/Mol_Feturizer/New_Systems/rnas/3GS8

>  <Rbt.Executable>
rbdock ($Id: //depot/dev/client3/rdock/2013.1/src/exe/rbdock.cxx#4 $)

>  <Rbt.Library>
libRbt.so (2013.1, Build901 2013/11/27)

>  <Rbt.Parameter_File>
/export/apps/rDock/src/rDock_2013.1_src/data/scripts/dock_solv.prm

>  <Rbt.Receptor>
prm/pocket_docking_8.prm

>  <SCORE>
-13.3432

>  <SCORE.INTER>
2.41428

>  <SCORE.INTER.CONST>
1

>  <SCORE.INTER.POLAR>
0

>  <SCORE.INTER.ROT>
9

>  <SCORE.INTER.SOLV>
10.5434

>  <SCORE.INTER.VDW>
-11.5049

>  <SCORE.INTER.norm>
0.185714

>  <SCORE.INTRA>
-15.7575

>  <SCORE.INTRA.DIHEDRAL>
-30.7668

>  <SCORE.INTRA.DIHEDRAL.0>
31.9578

>  <SCORE.INTRA.POLAR>
0

>  <SCORE.INTRA.POLAR.0>
0

>  <SCORE.INTRA.REPUL>
0

>  <SCORE.INTRA.REPUL.0>
0

>  <SCORE.INTRA.SOLV>
-1.26655

>  <SCORE.INTRA.SOLV.lig_0>
-48.4032

>  <SCORE.INTRA.VDW>
0.259183

>  <SCORE.INTRA.VDW.0>
-1.65238

>  <SCORE.INTRA.norm>
-1.21211

>  <SCORE.RESTR>
0

>  <SCORE.RESTR.CAVITY>
0

>  <SCORE.RESTR.norm>
0

>  <SCORE.SYSTEM>
0

>  <SCORE.SYSTEM.CONST>
0

>  <SCORE.SYSTEM.DIHEDRAL>
0

>  <SCORE.SYSTEM.SOLV>
0

>  <SCORE.SYSTEM.norm>
0

>  <SCORE.heavy>
13

>  <SCORE.norm>
-1.0264

>  <RMSD>
6.392

$$$$
ligand
 OpenBabel11021811473D
libRbt.so/2013.1/901 2013/11/27
 13 12  0  0  0  0  0  0  0  0999 V2000
   32.7660   32.1562   49.4745 O   0  0  0  0  0  0  0  0  0  0  0  0
   35.5339   31.8549   48.8212 O   0  0  0  0  0  0  0  0  0  0  0  0
   31.2200   33.6603   46.4134 P   0  0  1  0  0  0  0  0  0  0  0  0
   32.4208   33.3435   45.5655 O   0  5  0  0  0  0  0  0  0  0  0  0
   30.1157   34.5477   46.1203 O   0  0  0  0  0  0  0  0  0  0  0  0
   30.9972   32.3060   47.2616 O   0  0  0  0  0  0  0  0  0  0  0  0
   37.3352   32.4086   46.6611 O   0  0  0  0  0  0  0  0  0  0  0  0
   30.5242   32.3300   48.6259 C   0  0  0  0  0  0  0  0  0  0  0  0
   35.0973   31.8473   50.1942 C   0  0  0  0  0  0  0  0  0  0  0  0
   37.0710   31.0630   47.0959 C   0  0  0  0  0  0  0  0  0  0  0  0
   31.5802   32.9512   49.5521 C   0  0  0  0  0  0  0  0  0  0  0  0
   33.7934   32.6648   50.3469 C   0  0  0  0  0  0  0  0  0  0  0  0
   36.7083   31.0543   48.5994 C   0  0  0  0  0  0  0  0  0  0  0  0
  1 12  1  0  0  0  0
  1 11  1  0  0  0  0
  2 13  1  0  0  0  0
  2  9  1  0  0  0  0
  3  4  1  6  0  0  0
  3  5  2  0  0  0  0
  3  6  1  0  0  0  0
  6  8  1  0  0  0  0
  7 10  1  0  0  0  0
  8 11  1  0  0  0  0
  9 12  1  0  0  0  0
 10 13  1  0  0  0  0
M  CHG  1   4  -1
M  END
>  <CHROM.1>
-176.72074706,177.38959146,144.91761205,-67.61733733,-60.20005439,-177.06208354
56.64084644,60.17649254,-178.61425203,33.27750107,32.58751536,47.88299955
0.29685612,-0.25112209,1.81752209

>  <Name>
ligand

>  <RI>
0

>  <Rbt.Current_Directory>
/home/itssahil/PROJECTS/Mol_Feturizer/New_Systems/rnas/3GS8

>  <Rbt.Executable>
rbdock ($Id: //depot/dev/client3/rdock/2013.1/src/exe/rbdock.cxx#4 $)

>  <Rbt.Library>
libRbt.so (2013.1, Build901 2013/11/27)

>  <Rbt.Parameter_File>
/export/apps/rDock/src/rDock_2013.1_src/data/scripts/dock_solv.prm

>  <Rbt.Receptor>
prm/pocket_docking_4.prm

>  <SCORE>
-12.2586

>  <SCORE.INTER>
2.93

>  <SCORE.INTER.CONST>
1

>  <SCORE.INTER.POLAR>
0

>  <SCORE.INTER.ROT>
9

>  <SCORE.INTER.SOLV>
5.72062

>  <SCORE.INTER.VDW>
-9.55354

>  <SCORE.INTER.norm>
0.225385

>  <SCORE.INTRA>
-15.1886

>  <SCORE.INTRA.DIHEDRAL>
-30.9865

>  <SCORE.INTRA.DIHEDRAL.0>
31.9578

>  <SCORE.INTRA.POLAR>
0

>  <SCORE.INTRA.POLAR.0>
0

>  <SCORE.INTRA.REPUL>
0

>  <SCORE.INTRA.REPUL.0>
0

>  <SCORE.INTRA.SOLV>
0.531478

>  <SCORE.INTRA.SOLV.lig_0>
-48.4032

>  <SCORE.INTRA.VDW>
0.0389082

>  <SCORE.INTRA.VDW.0>
-1.65238

>  <SCORE.INTRA.norm>
-1.16835

>  <SCORE.RESTR>
0

>  <SCORE.RESTR.CAVITY>
0

>  <SCORE.RESTR.norm>
0

>  <SCORE.SYSTEM>
0

>  <SCORE.SYSTEM.CONST>
0

>  <SCORE.SYSTEM.DIHEDRAL>
0

>  <SCORE.SYSTEM.SOLV>
0

>  <SCORE.SYSTEM.norm>
0

>  <SCORE.heavy>
13

>  <SCORE.norm>
-0.942969

>  <RMSD>
6.417

$$$$
ligand
 OpenBabel11021811473D
libRbt.so/2013.1/901 2013/11/27
 13 12  0  0  0  0  0  0  0  0999 V2000
   30.3806   33.0883   45.1836 O   0  0  0  0  0  0  0  0  0  0  0  0
   32.8127   31.8866   44.4068 O   0  0  0  0  0  0  0  0  0  0  0  0
   30.3512   32.3019   49.4743 P   0  0  1  0  0  0  0  0  0  0  0  0
   31.8335   32.5534   49.4534 O   0  5  0  0  0  0  0  0  0  0  0  0
   29.4161   32.5009   50.5601 O   0  0  0  0  0  0  0  0  0  0  0  0
   29.9116   32.5479   47.9415 O   0  0  0  0  0  0  0  0  0  0  0  0
   35.5309   31.5139   45.2624 O   0  0  0  0  0  0  0  0  0  0  0  0
   29.8091   33.8751   47.3814 C   0  0  0  0  0  0  0  0  0  0  0  0
   32.5010   33.2150   43.9442 C   0  0  0  0  0  0  0  0  0  0  0  0
   35.1954   31.7588   43.8850 C   0  0  0  0  0  0  0  0  0  0  0  0
   29.3796   33.8073   45.9084 C   0  0  0  0  0  0  0  0  0  0  0  0
   31.5342   33.9129   44.9291 C   0  0  0  0  0  0  0  0  0  0  0  0
   33.7798   31.2152   43.5804 C   0  0  0  0  0  0  0  0  0  0  0  0
  1 12  1  0  0  0  0
  1 11  1  0  0  0  0
  2 13  1  0  0  0  0
  2  9  1  0  0  0  0
  3  4  1  1  0  0  0
  3  5  2  0  0  0  0
  3  6  1  0  0  0  0
  6  8  1  0  0  0  0
  7 10  1  0  0  0  0
  8 11  1  0  0  0  0
  9 12  1  0  0  0  0
 10 13  1  0  0  0  0
M  CHG  1   4  -1
M  END
>  <CHROM.1>
-170.26841281,76.97081228,-75.24714599,179.72723147,-61.45062002,-176.07061791
-52.45923562,60.94456569,-77.40614826,31.61110004,32.58702786,46.60228693
0.83510973,0.42176422,-1.35410325

>  <Name>
ligand

>  <RI>
0

>  <Rbt.Current_Directory>
/home/itssahil/PROJECTS/Mol_Feturizer/New_Systems/rnas/3GS8

>  <Rbt.Executable>
rbdock ($Id: //depot/dev/client3/rdock/2013.1/src/exe/rbdock.cxx#4 $)

>  <Rbt.Library>
libRbt.so (2013.1, Build901 2013/11/27)

>  <Rbt.Parameter_File>
/export/apps/rDock/src/rDock_2013.1_src/data/scripts/dock_solv.prm

>  <Rbt.Receptor>
prm/pocket_docking_3.prm

>  <SCORE>
-7.78221

>  <SCORE.INTER>
5.1603

>  <SCORE.INTER.CONST>
1

>  <SCORE.INTER.POLAR>
0

>  <SCORE.INTER.ROT>
9

>  <SCORE.INTER.SOLV>
9.84852

>  <SCORE.INTER.VDW>
-9.44264

>  <SCORE.INTER.norm>
0.396946

>  <SCORE.INTRA>
-12.9806

>  <SCORE.INTRA.DIHEDRAL>
-28.1934

>  <SCORE.INTRA.DIHEDRAL.0>
31.9578

>  <SCORE.INTRA.POLAR>
0

>  <SCORE.INTRA.POLAR.0>
0

>  <SCORE.INTRA.REPUL>
0

>  <SCORE.INTRA.REPUL.0>
0

>  <SCORE.INTRA.SOLV>
-1.01529

>  <SCORE.INTRA.SOLV.lig_0>
-48.4032

>  <SCORE.INTRA.VDW>
1.62381

>  <SCORE.INTRA.VDW.0>
-1.65238

>  <SCORE.INTRA.norm>
-0.998504

>  <SCORE.RESTR>
0.0380494

>  <SCORE.RESTR.CAVITY>
0.0380494

>  <SCORE.RESTR.norm>
0.00292687

>  <SCORE.SYSTEM>
0

>  <SCORE.SYSTEM.CONST>
0

>  <SCORE.SYSTEM.DIHEDRAL>
0

>  <SCORE.SYSTEM.SOLV>
0

>  <SCORE.SYSTEM.norm>
0

>  <SCORE.heavy>
13

>  <SCORE.norm>
-0.598631

>  <RMSD>
6.427

$$$$
ligand
 OpenBabel11021811473D
libRbt.so/2013.1/901 2013/11/27
 13 12  0  0  0  0  0  0  0  0999 V2000
   36.5160   31.4824   48.0592 O   0  0  0  0  0  0  0  0  0  0  0  0
   35.0151   31.3516   50.5092 O   0  0  0  0  0  0  0  0  0  0  0  0
   36.3935   31.0684   43.0050 P   0  0  1  0  0  0  0  0  0  0  0  0
   34.9440   30.6687   43.0033 O   0  5  0  0  0  0  0  0  0  0  0  0
   37.0394   32.1282   42.2618 O   0  0  0  0  0  0  0  0  0  0  0  0
   36.8852   30.6740   44.4903 O   0  0  0  0  0  0  0  0  0  0  0  0
   32.0722   32.2435   52.5684 O   0  0  0  0  0  0  0  0  0  0  0  0
   36.4304   31.3900   45.6591 C   0  0  0  0  0  0  0  0  0  0  0  0
   36.4206   31.6684   50.5096 C   0  0  0  0  0  0  0  0  0  0  0  0
   32.7947   31.6235   51.4900 C   0  0  0  0  0  0  0  0  0  0  0  0
   37.1007   30.8368   46.9253 C   0  0  0  0  0  0  0  0  0  0  0  0
   37.1158   31.0255   49.2868 C   0  0  0  0  0  0  0  0  0  0  0  0
   34.2999   31.9630   51.5972 C   0  0  0  0  0  0  0  0  0  0  0  0
  1 12  1  0  0  0  0
  1 11  1  0  0  0  0
  2 13  1  0  0  0  0
  2  9  1  0  0  0  0
  3  4  1  1  0  0  0
  3  5  2  0  0  0  0
  3  6  1  0  0  0  0
  6  8  1  0  0  0  0
  7 10  1  0  0  0  0
  8 11  1  0  0  0  0
  9 12  1  0  0  0  0
 10 13  1  0  0  0  0
M  CHG  1   4  -1
M  END
>  <CHROM.1>
-176.71390012,177.61462438,-69.30275433,-177.75364848,-174.10448386,-177.81892943
58.38177337,-179.43462973,-179.03711929,35.66826421,31.36971976,47.22474118
-1.86417907,0.10089625,-1.61273638

>  <Name>
ligand

>  <RI>
0

>  <Rbt.Current_Directory>
/home/itssahil/PROJECTS/Mol_Feturizer/New_Systems/rnas/3GS8

>  <Rbt.Executable>
rbdock ($Id: //depot/dev/client3/rdock/2013.1/src/exe/rbdock.cxx#4 $)

>  <Rbt.Library>
libRbt.so (2013.1, Build901 2013/11/27)

>  <Rbt.Parameter_File>
/export/apps/rDock/src/rDock_2013.1_src/data/scripts/dock_solv.prm

>  <Rbt.Receptor>
prm/pocket_docking_7.prm

>  <SCORE>
-15.3845

>  <SCORE.INTER>
0.741561

>  <SCORE.INTER.CONST>
1

>  <SCORE.INTER.POLAR>
0

>  <SCORE.INTER.ROT>
9

>  <SCORE.INTER.SOLV>
9.16093

>  <SCORE.INTER.VDW>
-12.1593

>  <SCORE.INTER.norm>
0.0570431

>  <SCORE.INTRA>
-16.1261

>  <SCORE.INTRA.DIHEDRAL>
-31.3642

>  <SCORE.INTRA.DIHEDRAL.0>
31.9578

>  <SCORE.INTRA.POLAR>
0

>  <SCORE.INTRA.POLAR.0>
0

>  <SCORE.INTRA.REPUL>
0

>  <SCORE.INTRA.REPUL.0>
0

>  <SCORE.INTRA.SOLV>
-1.50526

>  <SCORE.INTRA.SOLV.lig_0>
-48.4032

>  <SCORE.INTRA.VDW>
0.308649

>  <SCORE.INTRA.VDW.0>
-1.65238

>  <SCORE.INTRA.norm>
-1.24047

>  <SCORE.RESTR>
0

>  <SCORE.RESTR.CAVITY>
0

>  <SCORE.RESTR.norm>
0

>  <SCORE.SYSTEM>
0

>  <SCORE.SYSTEM.CONST>
0

>  <SCORE.SYSTEM.DIHEDRAL>
0

>  <SCORE.SYSTEM.SOLV>
0

>  <SCORE.SYSTEM.norm>
0

>  <SCORE.heavy>
13

>  <SCORE.norm>
-1.18342

>  <RMSD>
6.438

$$$$
ligand
 OpenBabel11021811473D
libRbt.so/2013.1/901 2013/11/27
 13 12  0  0  0  0  0  0  0  0999 V2000
   32.8618   32.2952   48.9879 O   0  0  0  0  0  0  0  0  0  0  0  0
   35.6379   31.8308   48.6366 O   0  0  0  0  0  0  0  0  0  0  0  0
   31.7339   33.9741   45.7831 P   0  0  1  0  0  0  0  0  0  0  0  0
   32.8642   33.6021   44.8638 O   0  5  0  0  0  0  0  0  0  0  0  0
   30.7234   34.9941   45.6058 O   0  0  0  0  0  0  0  0  0  0  0  0
   31.3936   32.5866   46.5328 O   0  0  0  0  0  0  0  0  0  0  0  0
   37.5633   32.1456   46.5177 O   0  0  0  0  0  0  0  0  0  0  0  0
   30.7694   32.5566   47.8348 C   0  0  0  0  0  0  0  0  0  0  0  0
   35.0902   31.9378   49.9650 C   0  0  0  0  0  0  0  0  0  0  0  0
   37.2894   30.8668   47.1170 C   0  0  0  0  0  0  0  0  0  0  0  0
   31.7116   33.1399   48.8982 C   0  0  0  0  0  0  0  0  0  0  0  0
   33.8081   32.8024   49.9486 C   0  0  0  0  0  0  0  0  0  0  0  0
   36.8482   31.0550   48.5874 C   0  0  0  0  0  0  0  0  0  0  0  0
  1 12  1  0  0  0  0
  1 11  1  0  0  0  0
  2 13  1  0  0  0  0
  2  9  1  0  0  0  0
  3  4  1  6  0  0  0
  3  5  2  0  0  0  0
  3  6  1  0  0  0  0
  6  8  1  0  0  0  0
  7 10  1  0  0  0  0
  8 11  1  0  0  0  0
  9 12  1  0  0  0  0
 10 13  1  0  0  0  0
M  CHG  1   4  -1
M  END
>  <CHROM.1>
-175.99135336,174.21839428,155.07165547,-66.29954817,-64.08832434,179.01489410
54.09234319,61.59386478,178.60819334,33.54433083,32.72675951,47.44433031
0.42879993,-0.30450685,1.84214706

>  <Name>
ligand

>  <RI>
0

>  <Rbt.Current_Directory>
/home/itssahil/PROJECTS/Mol_Feturizer/New_Systems/rnas/3GS8

>  <Rbt.Executable>
rbdock ($Id: //depot/dev/client3/rdock/2013.1/src/exe/rbdock.cxx#4 $)

>  <Rbt.Library>
libRbt.so (2013.1, Build901 2013/11/27)

>  <Rbt.Parameter_File>
/export/apps/rDock/src/rDock_2013.1_src/data/scripts/dock_solv.prm

>  <Rbt.Receptor>
prm/pocket_docking_4.prm

>  <SCORE>
-12.2399

>  <SCORE.INTER>
2.93569

>  <SCORE.INTER.CONST>
1

>  <SCORE.INTER.POLAR>
0

>  <SCORE.INTER.ROT>
9

>  <SCORE.INTER.SOLV>
5.1714

>  <SCORE.INTER.VDW>
-9.36667

>  <SCORE.INTER.norm>
0.225823

>  <SCORE.INTRA>
-15.1756

>  <SCORE.INTRA.DIHEDRAL>
-30.9724

>  <SCORE.INTRA.DIHEDRAL.0>
31.9578

>  <SCORE.INTRA.POLAR>
0

>  <SCORE.INTRA.POLAR.0>
0

>  <SCORE.INTRA.REPUL>
0

>  <SCORE.INTRA.REPUL.0>
0

>  <SCORE.INTRA.SOLV>
0.425124

>  <SCORE.INTRA.SOLV.lig_0>
-48.4032

>  <SCORE.INTRA.VDW>
0.0980692

>  <SCORE.INTRA.VDW.0>
-1.65238

>  <SCORE.INTRA.norm>
-1.16735

>  <SCORE.RESTR>
0

>  <SCORE.RESTR.CAVITY>
0

>  <SCORE.RESTR.norm>
0

>  <SCORE.SYSTEM>
0

>  <SCORE.SYSTEM.CONST>
0

>  <SCORE.SYSTEM.DIHEDRAL>
0

>  <SCORE.SYSTEM.SOLV>
0

>  <SCORE.SYSTEM.norm>
0

>  <SCORE.heavy>
13

>  <SCORE.norm>
-0.941531

>  <RMSD>
6.443

$$$$
ligand
 OpenBabel11021811473D
libRbt.so/2013.1/901 2013/11/27
 13 12  0  0  0  0  0  0  0  0999 V2000
   36.9833   31.3227   47.8566 O   0  0  0  0  0  0  0  0  0  0  0  0
   35.3582   31.3763   50.2499 O   0  0  0  0  0  0  0  0  0  0  0  0
   34.8918   31.6163   44.0282 P   0  0  1  0  0  0  0  0  0  0  0  0
   35.2464   30.6449   42.9366 O   0  5  0  0  0  0  0  0  0  0  0  0
   33.6748   32.3799   44.1980 O   0  0  0  0  0  0  0  0  0  0  0  0
   35.7077   31.0562   45.3025 O   0  0  0  0  0  0  0  0  0  0  0  0
   32.6616   32.3124   49.9552 O   0  0  0  0  0  0  0  0  0  0  0  0
   37.1260   31.2798   45.4579 C   0  0  0  0  0  0  0  0  0  0  0  0
   36.7828   31.5872   50.2934 C   0  0  0  0  0  0  0  0  0  0  0  0
   33.1407   31.7662   51.1969 C   0  0  0  0  0  0  0  0  0  0  0  0
   37.6298   30.6575   46.7685 C   0  0  0  0  0  0  0  0  0  0  0  0
   37.4711   30.8439   49.1249 C   0  0  0  0  0  0  0  0  0  0  0  0
   34.6610   32.0160   51.3333 C   0  0  0  0  0  0  0  0  0  0  0  0
  1 12  1  0  0  0  0
  1 11  1  0  0  0  0
  2 13  1  0  0  0  0
  2  9  1  0  0  0  0
  3  4  1  6  0  0  0
  3  5  2  0  0  0  0
  3  6  1  0  0  0  0
  6  8  1  0  0  0  0
  7 10  1  0  0  0  0
  8 11  1  0  0  0  0
  9 12  1  0  0  0  0
 10 13  1  0  0  0  0
M  CHG  1   4  -1
M  END
>  <CHROM.1>
179.02085972,178.83492038,77.79078684,179.05118130,-63.27452034,178.52836537
60.20270018,-60.49335570,-176.46581729,35.40875309,31.46762849,47.25913095
-1.64175708,0.26007664,-1.60848077

>  <Name>
ligand

>  <RI>
0

>  <Rbt.Current_Directory>
/home/itssahil/PROJECTS/Mol_Feturizer/New_Systems/rnas/3GS8

>  <Rbt.Executable>
rbdock ($Id: //depot/dev/client3/rdock/2013.1/src/exe/rbdock.cxx#4 $)

>  <Rbt.Library>
libRbt.so (2013.1, Build901 2013/11/27)

>  <Rbt.Parameter_File>
/export/apps/rDock/src/rDock_2013.1_src/data/scripts/dock_solv.prm

>  <Rbt.Receptor>
prm/pocket_docking_6.prm

>  <SCORE>
-15.1785

>  <SCORE.INTER>
0.856788

>  <SCORE.INTER.CONST>
1

>  <SCORE.INTER.POLAR>
0

>  <SCORE.INTER.ROT>
9

>  <SCORE.INTER.SOLV>
11.4653

>  <SCORE.INTER.VDW>
-12.8506

>  <SCORE.INTER.norm>
0.0659068

>  <SCORE.INTRA>
-16.0353

>  <SCORE.INTRA.DIHEDRAL>
-30.912

>  <SCORE.INTRA.DIHEDRAL.0>
31.9578

>  <SCORE.INTRA.POLAR>
0

>  <SCORE.INTRA.POLAR.0>
0

>  <SCORE.INTRA.REPUL>
0

>  <SCORE.INTRA.REPUL.0>
0

>  <SCORE.INTRA.SOLV>
-1.35775

>  <SCORE.INTRA.SOLV.lig_0>
-48.4032

>  <SCORE.INTRA.VDW>
0.0995733

>  <SCORE.INTRA.VDW.0>
-1.65238

>  <SCORE.INTRA.norm>
-1.23349

>  <SCORE.RESTR>
0

>  <SCORE.RESTR.CAVITY>
0

>  <SCORE.RESTR.norm>
0

>  <SCORE.SYSTEM>
0

>  <SCORE.SYSTEM.CONST>
0

>  <SCORE.SYSTEM.DIHEDRAL>
0

>  <SCORE.SYSTEM.SOLV>
0

>  <SCORE.SYSTEM.norm>
0

>  <SCORE.heavy>
13

>  <SCORE.norm>
-1.16758

>  <RMSD>
6.452

$$$$
ligand
 OpenBabel11021811473D
libRbt.so/2013.1/901 2013/11/27
 13 12  0  0  0  0  0  0  0  0999 V2000
   30.1578   34.2941   49.1300 O   0  0  0  0  0  0  0  0  0  0  0  0
   31.0966   32.9488   46.7581 O   0  0  0  0  0  0  0  0  0  0  0  0
   30.0595   38.5103   50.1241 P   0  0  1  0  0  0  0  0  0  0  0  0
   31.3132   38.6171   49.3008 O   0  5  0  0  0  0  0  0  0  0  0  0
   29.0047   39.4855   50.2946 O   0  0  0  0  0  0  0  0  0  0  0  0
   29.7366   36.9296   50.1044 O   0  0  0  0  0  0  0  0  0  0  0  0
   32.6984   32.8806   43.4225 O   0  0  0  0  0  0  0  0  0  0  0  0
   30.5656   35.9734   50.8003 C   0  0  0  0  0  0  0  0  0  0  0  0
   29.7763   32.7137   47.2848 C   0  0  0  0  0  0  0  0  0  0  0  0
   32.6128   33.0650   44.8467 C   0  0  0  0  0  0  0  0  0  0  0  0
   30.0762   34.5419   50.5358 C   0  0  0  0  0  0  0  0  0  0  0  0
   29.7593   32.9463   48.8136 C   0  0  0  0  0  0  0  0  0  0  0  0
   31.1722   32.7792   45.3317 C   0  0  0  0  0  0  0  0  0  0  0  0
  1 12  1  0  0  0  0
  1 11  1  0  0  0  0
  2 13  1  0  0  0  0
  2  9  1  0  0  0  0
  3  4  1  6  0  0  0
  3  5  2  0  0  0  0
  3  6  1  0  0  0  0
  6  8  1  0  0  0  0
  7 10  1  0  0  0  0
  8 11  1  0  0  0  0
  9 12  1  0  0  0  0
 10 13  1  0  0  0  0
M  CHG  1   4  -1
M  END
>  <CHROM.1>
176.85984612,179.33095718,69.52687355,-176.39295444,60.64379424,-178.62488233
59.20280739,179.28318890,177.84986342,30.57562689,35.37547414,48.36245691
1.05756346,-1.09201310,-2.86793105

>  <Name>
ligand

>  <RI>
0

>  <Rbt.Current_Directory>
/home/itssahil/PROJECTS/Mol_Feturizer/New_Systems/rnas/3GS8

>  <Rbt.Executable>
rbdock ($Id: //depot/dev/client3/rdock/2013.1/src/exe/rbdock.cxx#4 $)

>  <Rbt.Library>
libRbt.so (2013.1, Build901 2013/11/27)

>  <Rbt.Parameter_File>
/export/apps/rDock/src/rDock_2013.1_src/data/scripts/dock_solv.prm

>  <Rbt.Receptor>
prm/pocket_docking_3.prm

>  <SCORE>
-9.26205

>  <SCORE.INTER>
6.8761

>  <SCORE.INTER.CONST>
1

>  <SCORE.INTER.POLAR>
0

>  <SCORE.INTER.ROT>
9

>  <SCORE.INTER.SOLV>
7.9854

>  <SCORE.INTER.VDW>
-7.67773

>  <SCORE.INTER.norm>
0.528931

>  <SCORE.INTRA>
-16.1382

>  <SCORE.INTRA.DIHEDRAL>
-31.1114

>  <SCORE.INTRA.DIHEDRAL.0>
31.9578

>  <SCORE.INTRA.POLAR>
0

>  <SCORE.INTRA.POLAR.0>
0

>  <SCORE.INTRA.REPUL>
0

>  <SCORE.INTRA.REPUL.0>
0

>  <SCORE.INTRA.SOLV>
-1.51978

>  <SCORE.INTRA.SOLV.lig_0>
-48.4032

>  <SCORE.INTRA.VDW>
0.177457

>  <SCORE.INTRA.VDW.0>
-1.65238

>  <SCORE.INTRA.norm>
-1.2414

>  <SCORE.RESTR>
0

>  <SCORE.RESTR.CAVITY>
0

>  <SCORE.RESTR.norm>
0

>  <SCORE.SYSTEM>
0

>  <SCORE.SYSTEM.CONST>
0

>  <SCORE.SYSTEM.DIHEDRAL>
0

>  <SCORE.SYSTEM.SOLV>
0

>  <SCORE.SYSTEM.norm>
0

>  <SCORE.heavy>
13

>  <SCORE.norm>
-0.712465

>  <RMSD>
6.484

$$$$
ligand
 OpenBabel11021811473D
libRbt.so/2013.1/901 2013/11/27
 13 12  0  0  0  0  0  0  0  0999 V2000
   36.4250   31.2492   47.9417 O   0  0  0  0  0  0  0  0  0  0  0  0
   35.7105   32.5848   50.3744 O   0  0  0  0  0  0  0  0  0  0  0  0
   36.2428   31.0240   42.8776 P   0  0  1  0  0  0  0  0  0  0  0  0
   35.7496   32.4443   42.8529 O   0  5  0  0  0  0  0  0  0  0  0  0
   36.6529   30.1905   41.7686 O   0  0  0  0  0  0  0  0  0  0  0  0
   36.9604   30.9057   44.3179 O   0  0  0  0  0  0  0  0  0  0  0  0
   32.8460   32.2360   50.2439 O   0  0  0  0  0  0  0  0  0  0  0  0
   36.2668   31.2249   45.5437 C   0  0  0  0  0  0  0  0  0  0  0  0
   36.3981   31.3189   50.3999 C   0  0  0  0  0  0  0  0  0  0  0  0
   33.6127   31.8801   51.4081 C   0  0  0  0  0  0  0  0  0  0  0  0
   37.1867   31.0126   46.7551 C   0  0  0  0  0  0  0  0  0  0  0  0
   37.2478   31.1441   49.1197 C   0  0  0  0  0  0  0  0  0  0  0  0
   34.8608   32.7870   51.5173 C   0  0  0  0  0  0  0  0  0  0  0  0
  1 12  1  0  0  0  0
  1 11  1  0  0  0  0
  2 13  1  0  0  0  0
  2  9  1  0  0  0  0
  3  4  1  6  0  0  0
  3  5  2  0  0  0  0
  3  6  1  0  0  0  0
  6  8  1  0  0  0  0
  7 10  1  0  0  0  0
  8 11  1  0  0  0  0
  9 12  1  0  0  0  0
 10 13  1  0  0  0  0
M  CHG  1   4  -1
M  END
>  <CHROM.1>
-176.65332322,-72.44874984,55.03911629,179.58777915,-175.91673347,177.79604749
-57.27049870,-62.44269970,-176.61152640,35.88179335,31.50085325,46.90082857
-1.78069322,0.32534357,-1.63692130

>  <Name>
ligand

>  <RI>
0

>  <Rbt.Current_Directory>
/home/itssahil/PROJECTS/Mol_Feturizer/New_Systems/rnas/3GS8

>  <Rbt.Executable>
rbdock ($Id: //depot/dev/client3/rdock/2013.1/src/exe/rbdock.cxx#4 $)

>  <Rbt.Library>
libRbt.so (2013.1, Build901 2013/11/27)

>  <Rbt.Parameter_File>
/export/apps/rDock/src/rDock_2013.1_src/data/scripts/dock_solv.prm

>  <Rbt.Receptor>
prm/pocket_docking_6.prm

>  <SCORE>
-12.5504

>  <SCORE.INTER>
2.16391

>  <SCORE.INTER.CONST>
1

>  <SCORE.INTER.POLAR>
0

>  <SCORE.INTER.ROT>
9

>  <SCORE.INTER.SOLV>
7.38806

>  <SCORE.INTER.VDW>
-10.6201

>  <SCORE.INTER.norm>
0.166455

>  <SCORE.INTRA>
-14.7143

>  <SCORE.INTRA.DIHEDRAL>
-30.5963

>  <SCORE.INTRA.DIHEDRAL.0>
31.9578

>  <SCORE.INTRA.POLAR>
0

>  <SCORE.INTRA.POLAR.0>
0

>  <SCORE.INTRA.REPUL>
0

>  <SCORE.INTRA.REPUL.0>
0

>  <SCORE.INTRA.SOLV>
-1.23664

>  <SCORE.INTRA.SOLV.lig_0>
-48.4032

>  <SCORE.INTRA.VDW>
1.20219

>  <SCORE.INTRA.VDW.0>
-1.65238

>  <SCORE.INTRA.norm>
-1.13187

>  <SCORE.RESTR>
0

>  <SCORE.RESTR.CAVITY>
0

>  <SCORE.RESTR.norm>
0

>  <SCORE.SYSTEM>
0

>  <SCORE.SYSTEM.CONST>
0

>  <SCORE.SYSTEM.DIHEDRAL>
0

>  <SCORE.SYSTEM.SOLV>
0

>  <SCORE.SYSTEM.norm>
0

>  <SCORE.heavy>
13

>  <SCORE.norm>
-0.965412

>  <RMSD>
6.489

$$$$
ligand
 OpenBabel11021811473D
libRbt.so/2013.1/901 2013/11/27
 13 12  0  0  0  0  0  0  0  0999 V2000
   36.5199   31.4486   48.0829 O   0  0  0  0  0  0  0  0  0  0  0  0
   35.0197   31.3648   50.5125 O   0  0  0  0  0  0  0  0  0  0  0  0
   36.5555   31.1743   43.0167 P   0  0  1  0  0  0  0  0  0  0  0  0
   36.8119   32.6545   42.9506 O   0  5  0  0  0  0  0  0  0  0  0  0
   36.5725   30.2055   41.9425 O   0  0  0  0  0  0  0  0  0  0  0  0
   37.0457   30.7790   44.5022 O   0  0  0  0  0  0  0  0  0  0  0  0
   32.0754   32.2576   52.5695 O   0  0  0  0  0  0  0  0  0  0  0  0
   36.4609   31.3733   45.6814 C   0  0  0  0  0  0  0  0  0  0  0  0
   36.4307   31.6555   50.5318 C   0  0  0  0  0  0  0  0  0  0  0  0
   32.7975   31.6439   51.4871 C   0  0  0  0  0  0  0  0  0  0  0  0
   37.1478   30.8446   46.9492 C   0  0  0  0  0  0  0  0  0  0  0  0
   37.1284   31.0089   49.3125 C   0  0  0  0  0  0  0  0  0  0  0  0
   34.3026   31.9832   51.5953 C   0  0  0  0  0  0  0  0  0  0  0  0
  1 12  1  0  0  0  0
  1 11  1  0  0  0  0
  2 13  1  0  0  0  0
  2  9  1  0  0  0  0
  3  4  1  6  0  0  0
  3  5  2  0  0  0  0
  3  6  1  0  0  0  0
  6  8  1  0  0  0  0
  7 10  1  0  0  0  0
  8 11  1  0  0  0  0
  9 12  1  0  0  0  0
 10 13  1  0  0  0  0
M  CHG  1   4  -1
M  END
>  <CHROM.1>
-179.33698896,178.97734775,59.34696907,-178.28093301,-179.19517120,-177.72124313
56.29951305,179.87582690,-179.26069849,35.81827540,31.39765406,47.20723757
-1.89881552,0.19147333,-1.58188110

>  <Name>
ligand

>  <RI>
0

>  <Rbt.Current_Directory>
/home/itssahil/PROJECTS/Mol_Feturizer/New_Systems/rnas/3GS8

>  <Rbt.Executable>
rbdock ($Id: //depot/dev/client3/rdock/2013.1/src/exe/rbdock.cxx#4 $)

>  <Rbt.Library>
libRbt.so (2013.1, Build901 2013/11/27)

>  <Rbt.Parameter_File>
/export/apps/rDock/src/rDock_2013.1_src/data/scripts/dock_solv.prm

>  <Rbt.Receptor>
prm/pocket_docking_7.prm

>  <SCORE>
-15.2988

>  <SCORE.INTER>
0.797648

>  <SCORE.INTER.CONST>
1

>  <SCORE.INTER.POLAR>
0

>  <SCORE.INTER.ROT>
9

>  <SCORE.INTER.SOLV>
7.90095

>  <SCORE.INTER.VDW>
-11.7019

>  <SCORE.INTER.norm>
0.0613576

>  <SCORE.INTRA>
-16.0964

>  <SCORE.INTRA.DIHEDRAL>
-31.4031

>  <SCORE.INTRA.DIHEDRAL.0>
31.9578

>  <SCORE.INTRA.POLAR>
0

>  <SCORE.INTRA.POLAR.0>
0

>  <SCORE.INTRA.REPUL>
0

>  <SCORE.INTRA.REPUL.0>
0

>  <SCORE.INTRA.SOLV>
-1.61352

>  <SCORE.INTRA.SOLV.lig_0>
-48.4032

>  <SCORE.INTRA.VDW>
0.411859

>  <SCORE.INTRA.VDW.0>
-1.65238

>  <SCORE.INTRA.norm>
-1.23819

>  <SCORE.RESTR>
0

>  <SCORE.RESTR.CAVITY>
0

>  <SCORE.RESTR.norm>
0

>  <SCORE.SYSTEM>
0

>  <SCORE.SYSTEM.CONST>
0

>  <SCORE.SYSTEM.DIHEDRAL>
0

>  <SCORE.SYSTEM.SOLV>
0

>  <SCORE.SYSTEM.norm>
0

>  <SCORE.heavy>
13

>  <SCORE.norm>
-1.17683

>  <RMSD>
6.516

$$$$
ligand
 OpenBabel11021811473D
libRbt.so/2013.1/901 2013/11/27
 13 12  0  0  0  0  0  0  0  0999 V2000
   36.3181   31.4939   48.4981 O   0  0  0  0  0  0  0  0  0  0  0  0
   34.4596   31.3551   50.7206 O   0  0  0  0  0  0  0  0  0  0  0  0
   39.0470   30.8550   44.9438 P   0  0  1  0  0  0  0  0  0  0  0  0
   39.0885   32.0015   43.9717 O   0  5  0  0  0  0  0  0  0  0  0  0
   39.9869   30.5256   45.9930 O   0  0  0  0  0  0  0  0  0  0  0  0
   37.4677   30.5784   45.1238 O   0  0  0  0  0  0  0  0  0  0  0  0
   31.1733   31.9418   52.3181 O   0  0  0  0  0  0  0  0  0  0  0  0
   36.6865   31.2504   46.1356 C   0  0  0  0  0  0  0  0  0  0  0  0
   35.7980   31.8665   50.8727 C   0  0  0  0  0  0  0  0  0  0  0  0
   32.1190   31.3370   51.4184 C   0  0  0  0  0  0  0  0  0  0  0  0
   37.1390   30.8221   47.5394 C   0  0  0  0  0  0  0  0  0  0  0  0
   36.7448   31.2059   49.8436 C   0  0  0  0  0  0  0  0  0  0  0  0
   33.5237   31.9450   51.6400 C   0  0  0  0  0  0  0  0  0  0  0  0
  1 12  1  0  0  0  0
  1 11  1  0  0  0  0
  2 13  1  0  0  0  0
  2  9  1  0  0  0  0
  3  4  1  1  0  0  0
  3  5  2  0  0  0  0
  3  6  1  0  0  0  0
  6  8  1  0  0  0  0
  7 10  1  0  0  0  0
  8 11  1  0  0  0  0
  9 12  1  0  0  0  0
 10 13  1  0  0  0  0
M  CHG  1   4  -1
M  END
>  <CHROM.1>
-176.50742094,-179.59866370,-89.42925865,-65.95403041,-178.85089842,-179.21490149
60.94740180,-178.90224242,-176.21383500,36.37100477,31.28366300,48.07527977
-2.30708825,0.09376121,-1.58852801

>  <Name>
ligand

>  <RI>
0

>  <Rbt.Current_Directory>
/home/itssahil/PROJECTS/Mol_Feturizer/New_Systems/rnas/3GS8

>  <Rbt.Executable>
rbdock ($Id: //depot/dev/client3/rdock/2013.1/src/exe/rbdock.cxx#4 $)

>  <Rbt.Library>
libRbt.so (2013.1, Build901 2013/11/27)

>  <Rbt.Parameter_File>
/export/apps/rDock/src/rDock_2013.1_src/data/scripts/dock_solv.prm

>  <Rbt.Receptor>
prm/pocket_docking_8.prm

>  <SCORE>
-14.7736

>  <SCORE.INTER>
0.533053

>  <SCORE.INTER.CONST>
1

>  <SCORE.INTER.POLAR>
0

>  <SCORE.INTER.ROT>
9

>  <SCORE.INTER.SOLV>
8.05786

>  <SCORE.INTER.VDW>
-11.9306

>  <SCORE.INTER.norm>
0.0410041

>  <SCORE.INTRA>
-15.3067

>  <SCORE.INTRA.DIHEDRAL>
-31.2418

>  <SCORE.INTRA.DIHEDRAL.0>
31.9578

>  <SCORE.INTRA.POLAR>
0

>  <SCORE.INTRA.POLAR.0>
0

>  <SCORE.INTRA.REPUL>
0

>  <SCORE.INTRA.REPUL.0>
0

>  <SCORE.INTRA.SOLV>
-0.0160141

>  <SCORE.INTRA.SOLV.lig_0>
-48.4032

>  <SCORE.INTRA.VDW>
0.322223

>  <SCORE.INTRA.VDW.0>
-1.65238

>  <SCORE.INTRA.norm>
-1.17744

>  <SCORE.RESTR>
0

>  <SCORE.RESTR.CAVITY>
0

>  <SCORE.RESTR.norm>
0

>  <SCORE.SYSTEM>
0

>  <SCORE.SYSTEM.CONST>
0

>  <SCORE.SYSTEM.DIHEDRAL>
0

>  <SCORE.SYSTEM.SOLV>
0

>  <SCORE.SYSTEM.norm>
0

>  <SCORE.heavy>
13

>  <SCORE.norm>
-1.13643

>  <RMSD>
6.521

$$$$
ligand
 OpenBabel11021811473D
libRbt.so/2013.1/901 2013/11/27
 13 12  0  0  0  0  0  0  0  0999 V2000
   29.8280   33.5202   45.5162 O   0  0  0  0  0  0  0  0  0  0  0  0
   33.2493   32.3616   44.6445 O   0  0  0  0  0  0  0  0  0  0  0  0
   31.1157   35.8303   49.0325 P   0  0  1  0  0  0  0  0  0  0  0  0
   32.3348   35.2333   49.6793 O   0  5  0  0  0  0  0  0  0  0  0  0
   30.8483   37.2162   48.7152 O   0  0  0  0  0  0  0  0  0  0  0  0
   30.5789   34.6405   48.0840 O   0  0  0  0  0  0  0  0  0  0  0  0
   36.0950   32.0733   44.7803 O   0  0  0  0  0  0  0  0  0  0  0  0
   29.2320   34.6296   47.5631 C   0  0  0  0  0  0  0  0  0  0  0  0
   31.9952   33.0451   44.4550 C   0  0  0  0  0  0  0  0  0  0  0  0
   35.3305   31.4871   43.7119 C   0  0  0  0  0  0  0  0  0  0  0  0
   29.0056   33.3944   46.6790 C   0  0  0  0  0  0  0  0  0  0  0  0
   31.1302   32.9431   45.7329 C   0  0  0  0  0  0  0  0  0  0  0  0
   34.0549   32.3227   43.4535 C   0  0  0  0  0  0  0  0  0  0  0  0
  1 12  1  0  0  0  0
  1 11  1  0  0  0  0
  2 13  1  0  0  0  0
  2  9  1  0  0  0  0
  3  4  1  6  0  0  0
  3  5  2  0  0  0  0
  3  6  1  0  0  0  0
  6  8  1  0  0  0  0
  7 10  1  0  0  0  0
  8 11  1  0  0  0  0
  9 12  1  0  0  0  0
 10 13  1  0  0  0  0
M  CHG  1   4  -1
M  END
>  <CHROM.1>
178.21404024,-175.90551533,162.19487624,179.17011148,-66.57300717,175.08589277
-174.93139184,-59.85967406,89.29040651,31.85792548,33.93725807,46.56293028
2.16343234,-0.03958808,0.93171096

>  <Name>
ligand

>  <RI>
0

>  <Rbt.Current_Directory>
/home/itssahil/PROJECTS/Mol_Feturizer/New_Systems/rnas/3GS8

>  <Rbt.Executable>
rbdock ($Id: //depot/dev/client3/rdock/2013.1/src/exe/rbdock.cxx#4 $)

>  <Rbt.Library>
libRbt.so (2013.1, Build901 2013/11/27)

>  <Rbt.Parameter_File>
/export/apps/rDock/src/rDock_2013.1_src/data/scripts/dock_solv.prm

>  <Rbt.Receptor>
prm/pocket_docking_3.prm

>  <SCORE>
-7.84787

>  <SCORE.INTER>
5.97309

>  <SCORE.INTER.CONST>
1

>  <SCORE.INTER.POLAR>
0

>  <SCORE.INTER.ROT>
9

>  <SCORE.INTER.SOLV>
5.00572

>  <SCORE.INTER.VDW>
-7.28651

>  <SCORE.INTER.norm>
0.459468

>  <SCORE.INTRA>
-13.8236

>  <SCORE.INTRA.DIHEDRAL>
-27.7305

>  <SCORE.INTRA.DIHEDRAL.0>
31.9578

>  <SCORE.INTRA.POLAR>
0

>  <SCORE.INTRA.POLAR.0>
0

>  <SCORE.INTRA.REPUL>
0

>  <SCORE.INTRA.REPUL.0>
0

>  <SCORE.INTRA.SOLV>
-1.26505

>  <SCORE.INTRA.SOLV.lig_0>
-48.4032

>  <SCORE.INTRA.VDW>
0.674191

>  <SCORE.INTRA.VDW.0>
-1.65238

>  <SCORE.INTRA.norm>
-1.06335

>  <SCORE.RESTR>
0.00261928

>  <SCORE.RESTR.CAVITY>
0.00261928

>  <SCORE.RESTR.norm>
0.000201483

>  <SCORE.SYSTEM>
0

>  <SCORE.SYSTEM.CONST>
0

>  <SCORE.SYSTEM.DIHEDRAL>
0

>  <SCORE.SYSTEM.SOLV>
0

>  <SCORE.SYSTEM.norm>
0

>  <SCORE.heavy>
13

>  <SCORE.norm>
-0.603682

>  <RMSD>
6.534

$$$$
ligand
 OpenBabel11021811473D
libRbt.so/2013.1/901 2013/11/27
 13 12  0  0  0  0  0  0  0  0999 V2000
   36.5268   31.4168   48.0467 O   0  0  0  0  0  0  0  0  0  0  0  0
   35.0296   31.3178   50.4689 O   0  0  0  0  0  0  0  0  0  0  0  0
   36.5355   31.1755   42.9789 P   0  0  1  0  0  0  0  0  0  0  0  0
   36.8767   32.6373   42.8900 O   0  5  0  0  0  0  0  0  0  0  0  0
   36.4748   30.1956   41.9163 O   0  0  0  0  0  0  0  0  0  0  0  0
   37.0310   30.7685   44.4594 O   0  0  0  0  0  0  0  0  0  0  0  0
   32.0782   32.2249   52.5090 O   0  0  0  0  0  0  0  0  0  0  0  0
   36.4728   31.3770   45.6443 C   0  0  0  0  0  0  0  0  0  0  0  0
   36.4424   31.5988   50.4978 C   0  0  0  0  0  0  0  0  0  0  0  0
   32.8007   31.6232   51.4203 C   0  0  0  0  0  0  0  0  0  0  0  0
   37.1529   30.8247   46.9057 C   0  0  0  0  0  0  0  0  0  0  0  0
   37.1401   30.9676   49.2704 C   0  0  0  0  0  0  0  0  0  0  0  0
   34.3074   31.9520   51.5392 C   0  0  0  0  0  0  0  0  0  0  0  0
  1 12  1  0  0  0  0
  1 11  1  0  0  0  0
  2 13  1  0  0  0  0
  2  9  1  0  0  0  0
  3  4  1  6  0  0  0
  3  5  2  0  0  0  0
  3  6  1  0  0  0  0
  6  8  1  0  0  0  0
  7 10  1  0  0  0  0
  8 11  1  0  0  0  0
  9 12  1  0  0  0  0
 10 13  1  0  0  0  0
M  CHG  1   4  -1
M  END
>  <CHROM.1>
-179.21019110,178.92099408,61.47798910,-178.66248492,-177.63064012,-176.18411433
55.49859275,178.43930381,-178.53872863,35.81643079,31.37549660,47.16264998
-1.89581050,0.18383236,-1.58096757

>  <Name>
ligand

>  <RI>
0

>  <Rbt.Current_Directory>
/home/itssahil/PROJECTS/Mol_Feturizer/New_Systems/rnas/3GS8

>  <Rbt.Executable>
rbdock ($Id: //depot/dev/client3/rdock/2013.1/src/exe/rbdock.cxx#4 $)

>  <Rbt.Library>
libRbt.so (2013.1, Build901 2013/11/27)

>  <Rbt.Parameter_File>
/export/apps/rDock/src/rDock_2013.1_src/data/scripts/dock_solv.prm

>  <Rbt.Receptor>
prm/pocket_docking_7.prm

>  <SCORE>
-15.2874

>  <SCORE.INTER>
0.756703

>  <SCORE.INTER.CONST>
1

>  <SCORE.INTER.POLAR>
0

>  <SCORE.INTER.ROT>
9

>  <SCORE.INTER.SOLV>
7.93615

>  <SCORE.INTER.VDW>
-11.7409

>  <SCORE.INTER.norm>
0.0582079

>  <SCORE.INTRA>
-16.0441

>  <SCORE.INTRA.DIHEDRAL>
-31.2561

>  <SCORE.INTRA.DIHEDRAL.0>
31.9578

>  <SCORE.INTRA.POLAR>
0

>  <SCORE.INTRA.POLAR.0>
0

>  <SCORE.INTRA.REPUL>
0

>  <SCORE.INTRA.REPUL.0>
0

>  <SCORE.INTRA.SOLV>
-1.62223

>  <SCORE.INTRA.SOLV.lig_0>
-48.4032

>  <SCORE.INTRA.VDW>
0.395077

>  <SCORE.INTRA.VDW.0>
-1.65238

>  <SCORE.INTRA.norm>
-1.23416

>  <SCORE.RESTR>
0

>  <SCORE.RESTR.CAVITY>
0

>  <SCORE.RESTR.norm>
0

>  <SCORE.SYSTEM>
0

>  <SCORE.SYSTEM.CONST>
0

>  <SCORE.SYSTEM.DIHEDRAL>
0

>  <SCORE.SYSTEM.SOLV>
0

>  <SCORE.SYSTEM.norm>
0

>  <SCORE.heavy>
13

>  <SCORE.norm>
-1.17595

>  <RMSD>
6.538

$$$$
ligand
 OpenBabel11021811473D
libRbt.so/2013.1/901 2013/11/27
 13 12  0  0  0  0  0  0  0  0999 V2000
   36.5609   31.4827   48.1231 O   0  0  0  0  0  0  0  0  0  0  0  0
   35.0614   31.3655   50.5410 O   0  0  0  0  0  0  0  0  0  0  0  0
   36.4375   31.0812   43.0671 P   0  0  1  0  0  0  0  0  0  0  0  0
   37.5981   30.7402   42.1739 O   0  5  0  0  0  0  0  0  0  0  0  0
   35.0225   31.0219   42.7722 O   0  0  0  0  0  0  0  0  0  0  0  0
   36.9950   30.7462   44.5437 O   0  0  0  0  0  0  0  0  0  0  0  0
   32.0842   32.3234   52.5190 O   0  0  0  0  0  0  0  0  0  0  0  0
   36.4495   31.3730   45.7249 C   0  0  0  0  0  0  0  0  0  0  0  0
   36.4712   31.6606   50.5744 C   0  0  0  0  0  0  0  0  0  0  0  0
   32.8242   31.6690   51.4732 C   0  0  0  0  0  0  0  0  0  0  0  0
   37.1725   30.8723   46.9840 C   0  0  0  0  0  0  0  0  0  0  0  0
   37.1784   31.0397   49.3471 C   0  0  0  0  0  0  0  0  0  0  0  0
   34.3333   31.9732   51.6226 C   0  0  0  0  0  0  0  0  0  0  0  0
  1 12  1  0  0  0  0
  1 11  1  0  0  0  0
  2 13  1  0  0  0  0
  2  9  1  0  0  0  0
  3  4  1  6  0  0  0
  3  5  2  0  0  0  0
  3  6  1  0  0  0  0
  6  8  1  0  0  0  0
  7 10  1  0  0  0  0
  8 11  1  0  0  0  0
  9 12  1  0  0  0  0
 10 13  1  0  0  0  0
M  CHG  1   4  -1
M  END
>  <CHROM.1>
-177.64775192,177.11138047,155.89306000,-179.75039652,-177.79064743,-177.05711978
55.30801773,-177.47117428,179.08586054,35.75689123,31.31112779,47.23438253
-1.87811184,0.13954647,-1.63276780

>  <Name>
ligand

>  <RI>
0

>  <Rbt.Current_Directory>
/home/itssahil/PROJECTS/Mol_Feturizer/New_Systems/rnas/3GS8

>  <Rbt.Executable>
rbdock ($Id: //depot/dev/client3/rdock/2013.1/src/exe/rbdock.cxx#4 $)

>  <Rbt.Library>
libRbt.so (2013.1, Build901 2013/11/27)

>  <Rbt.Parameter_File>
/export/apps/rDock/src/rDock_2013.1_src/data/scripts/dock_solv.prm

>  <Rbt.Receptor>
prm/pocket_docking_7.prm

>  <SCORE>
-15.6649

>  <SCORE.INTER>
0.653573

>  <SCORE.INTER.CONST>
1

>  <SCORE.INTER.POLAR>
0

>  <SCORE.INTER.ROT>
9

>  <SCORE.INTER.SOLV>
8.94389

>  <SCORE.INTER.VDW>
-12.1456

>  <SCORE.INTER.norm>
0.0502748

>  <SCORE.INTRA>
-16.3185

>  <SCORE.INTRA.DIHEDRAL>
-31.3953

>  <SCORE.INTRA.DIHEDRAL.0>
31.9578

>  <SCORE.INTRA.POLAR>
0

>  <SCORE.INTRA.POLAR.0>
0

>  <SCORE.INTRA.REPUL>
0

>  <SCORE.INTRA.REPUL.0>
0

>  <SCORE.INTRA.SOLV>
-1.82824

>  <SCORE.INTRA.SOLV.lig_0>
-48.4032

>  <SCORE.INTRA.VDW>
0.293248

>  <SCORE.INTRA.VDW.0>
-1.65238

>  <SCORE.INTRA.norm>
-1.25527

>  <SCORE.RESTR>
0

>  <SCORE.RESTR.CAVITY>
0

>  <SCORE.RESTR.norm>
0

>  <SCORE.SYSTEM>
0

>  <SCORE.SYSTEM.CONST>
0

>  <SCORE.SYSTEM.DIHEDRAL>
0

>  <SCORE.SYSTEM.SOLV>
0

>  <SCORE.SYSTEM.norm>
0

>  <SCORE.heavy>
13

>  <SCORE.norm>
-1.205

>  <RMSD>
6.544

$$$$
ligand
 OpenBabel11021811473D
libRbt.so/2013.1/901 2013/11/27
 13 12  0  0  0  0  0  0  0  0999 V2000
   31.9963   33.1577   45.5961 O   0  0  0  0  0  0  0  0  0  0  0  0
   34.7514   32.4741   45.2554 O   0  0  0  0  0  0  0  0  0  0  0  0
   30.6485   33.0689   49.7388 P   0  0  1  0  0  0  0  0  0  0  0  0
   31.2034   34.4594   49.8787 O   0  5  0  0  0  0  0  0  0  0  0  0
   29.5615   32.4523   50.4675 O   0  0  0  0  0  0  0  0  0  0  0  0
   30.9153   32.7176   48.1868 O   0  0  0  0  0  0  0  0  0  0  0  0
   36.6641   30.7444   46.4891 O   0  0  0  0  0  0  0  0  0  0  0  0
   30.1495   33.3268   47.1247 C   0  0  0  0  0  0  0  0  0  0  0  0
   34.0010   33.0615   44.1747 C   0  0  0  0  0  0  0  0  0  0  0  0
   36.8784   32.1651   46.4157 C   0  0  0  0  0  0  0  0  0  0  0  0
   30.6187   32.8102   45.7566 C   0  0  0  0  0  0  0  0  0  0  0  0
   32.4990   32.7221   44.3181 C   0  0  0  0  0  0  0  0  0  0  0  0
   36.1618   32.7450   45.1738 C   0  0  0  0  0  0  0  0  0  0  0  0
  1 12  1  0  0  0  0
  1 11  1  0  0  0  0
  2 13  1  0  0  0  0
  2  9  1  0  0  0  0
  3  4  1  6  0  0  0
  3  5  2  0  0  0  0
  3  6  1  0  0  0  0
  6  8  1  0  0  0  0
  7 10  1  0  0  0  0
  8 11  1  0  0  0  0
  9 12  1  0  0  0  0
 10 13  1  0  0  0  0
M  CHG  1   4  -1
M  END
>  <CHROM.1>
-178.12268596,176.14663980,-72.59398296,179.91885030,-60.67037640,179.53851361
56.55062188,59.36186412,-178.99719296,32.58802113,32.78129514,47.09498180
0.63125884,0.22648621,-1.50708026

>  <Name>
ligand

>  <RI>
0

>  <Rbt.Current_Directory>
/home/itssahil/PROJECTS/Mol_Feturizer/New_Systems/rnas/3GS8

>  <Rbt.Executable>
rbdock ($Id: //depot/dev/client3/rdock/2013.1/src/exe/rbdock.cxx#4 $)

>  <Rbt.Library>
libRbt.so (2013.1, Build901 2013/11/27)

>  <Rbt.Parameter_File>
/export/apps/rDock/src/rDock_2013.1_src/data/scripts/dock_solv.prm

>  <Rbt.Receptor>
prm/pocket_docking_3.prm

>  <SCORE>
-10.6407

>  <SCORE.INTER>
5.63064

>  <SCORE.INTER.CONST>
1

>  <SCORE.INTER.POLAR>
0

>  <SCORE.INTER.ROT>
9

>  <SCORE.INTER.SOLV>
5.53676

>  <SCORE.INTER.VDW>
-7.69182

>  <SCORE.INTER.norm>
0.433126

>  <SCORE.INTRA>
-16.2714

>  <SCORE.INTRA.DIHEDRAL>
-31.521

>  <SCORE.INTRA.DIHEDRAL.0>
31.9578

>  <SCORE.INTRA.POLAR>
0

>  <SCORE.INTRA.POLAR.0>
0

>  <SCORE.INTRA.REPUL>
0

>  <SCORE.INTRA.REPUL.0>
0

>  <SCORE.INTRA.SOLV>
-1.13284

>  <SCORE.INTRA.SOLV.lig_0>
-48.4032

>  <SCORE.INTRA.VDW>
0.0555422

>  <SCORE.INTRA.VDW.0>
-1.65238

>  <SCORE.INTRA.norm>
-1.25164

>  <SCORE.RESTR>
0

>  <SCORE.RESTR.CAVITY>
0

>  <SCORE.RESTR.norm>
0

>  <SCORE.SYSTEM>
0

>  <SCORE.SYSTEM.CONST>
0

>  <SCORE.SYSTEM.DIHEDRAL>
0

>  <SCORE.SYSTEM.SOLV>
0

>  <SCORE.SYSTEM.norm>
0

>  <SCORE.heavy>
13

>  <SCORE.norm>
-0.818518

>  <RMSD>
6.549

$$$$
ligand
 OpenBabel11021811473D
libRbt.so/2013.1/901 2013/11/27
 13 12  0  0  0  0  0  0  0  0999 V2000
   36.5368   31.4547   48.0872 O   0  0  0  0  0  0  0  0  0  0  0  0
   35.0556   31.3540   50.5190 O   0  0  0  0  0  0  0  0  0  0  0  0
   36.3613   31.0329   43.0354 P   0  0  1  0  0  0  0  0  0  0  0  0
   37.5022   30.6858   42.1194 O   0  5  0  0  0  0  0  0  0  0  0  0
   34.9399   30.9530   42.7785 O   0  0  0  0  0  0  0  0  0  0  0  0
   36.9601   30.7336   44.5034 O   0  0  0  0  0  0  0  0  0  0  0  0
   32.1163   32.2554   52.5792 O   0  0  0  0  0  0  0  0  0  0  0  0
   36.4209   31.3583   45.6886 C   0  0  0  0  0  0  0  0  0  0  0  0
   36.4679   31.6386   50.5387 C   0  0  0  0  0  0  0  0  0  0  0  0
   32.8335   31.6507   51.4886 C   0  0  0  0  0  0  0  0  0  0  0  0
   37.1452   30.8493   46.9436 C   0  0  0  0  0  0  0  0  0  0  0  0
   37.1593   31.0082   49.3073 C   0  0  0  0  0  0  0  0  0  0  0  0
   34.3439   31.9598   51.6124 C   0  0  0  0  0  0  0  0  0  0  0  0
  1 12  1  0  0  0  0
  1 11  1  0  0  0  0
  2 13  1  0  0  0  0
  2  9  1  0  0  0  0
  3  4  1  6  0  0  0
  3  5  2  0  0  0  0
  3  6  1  0  0  0  0
  6  8  1  0  0  0  0
  7 10  1  0  0  0  0
  8 11  1  0  0  0  0
  9 12  1  0  0  0  0
 10 13  1  0  0  0  0
M  CHG  1   4  -1
M  END
>  <CHROM.1>
-178.41890234,177.90768838,157.14902922,177.78950026,-177.59719192,-177.64367210
55.47741865,-179.94386391,179.33140254,35.72581690,31.27743515,47.21342853
-1.86776042,0.12937346,-1.63878492

>  <Name>
ligand

>  <RI>
0

>  <Rbt.Current_Directory>
/home/itssahil/PROJECTS/Mol_Feturizer/New_Systems/rnas/3GS8

>  <Rbt.Executable>
rbdock ($Id: //depot/dev/client3/rdock/2013.1/src/exe/rbdock.cxx#4 $)

>  <Rbt.Library>
libRbt.so (2013.1, Build901 2013/11/27)

>  <Rbt.Parameter_File>
/export/apps/rDock/src/rDock_2013.1_src/data/scripts/dock_solv.prm

>  <Rbt.Receptor>
prm/pocket_docking_7.prm

>  <SCORE>
-15.6948

>  <SCORE.INTER>
0.650702

>  <SCORE.INTER.CONST>
1

>  <SCORE.INTER.POLAR>
0

>  <SCORE.INTER.ROT>
9

>  <SCORE.INTER.SOLV>
9.31682

>  <SCORE.INTER.VDW>
-12.2718

>  <SCORE.INTER.norm>
0.050054

>  <SCORE.INTRA>
-16.3455

>  <SCORE.INTRA.DIHEDRAL>
-31.4619

>  <SCORE.INTRA.DIHEDRAL.0>
31.9578

>  <SCORE.INTRA.POLAR>
0

>  <SCORE.INTRA.POLAR.0>
0

>  <SCORE.INTRA.REPUL>
0

>  <SCORE.INTRA.REPUL.0>
0

>  <SCORE.INTRA.SOLV>
-1.81948

>  <SCORE.INTRA.SOLV.lig_0>
-48.4032

>  <SCORE.INTRA.VDW>
0.295168

>  <SCORE.INTRA.VDW.0>
-1.65238

>  <SCORE.INTRA.norm>
-1.25735

>  <SCORE.RESTR>
0

>  <SCORE.RESTR.CAVITY>
0

>  <SCORE.RESTR.norm>
0

>  <SCORE.SYSTEM>
0

>  <SCORE.SYSTEM.CONST>
0

>  <SCORE.SYSTEM.DIHEDRAL>
0

>  <SCORE.SYSTEM.SOLV>
0

>  <SCORE.SYSTEM.norm>
0

>  <SCORE.heavy>
13

>  <SCORE.norm>
-1.2073

>  <RMSD>
6.549

$$$$
ligand
 OpenBabel11021811473D
libRbt.so/2013.1/901 2013/11/27
 13 12  0  0  0  0  0  0  0  0999 V2000
   29.6756   34.6991   47.0280 O   0  0  0  0  0  0  0  0  0  0  0  0
   31.1681   33.4934   44.8165 O   0  0  0  0  0  0  0  0  0  0  0  0
   29.5322   38.4599   49.1906 P   0  0  1  0  0  0  0  0  0  0  0  0
   28.2984   39.0028   48.5241 O   0  5  0  0  0  0  0  0  0  0  0  0
   30.1732   38.9081   50.4076 O   0  0  0  0  0  0  0  0  0  0  0  0
   29.5168   36.8986   48.7840 O   0  0  0  0  0  0  0  0  0  0  0  0
   34.8004   32.8200   44.5985 O   0  0  0  0  0  0  0  0  0  0  0  0
   30.7351   36.1373   48.6358 C   0  0  0  0  0  0  0  0  0  0  0  0
   30.7312   32.7467   45.9687 C   0  0  0  0  0  0  0  0  0  0  0  0
   33.5857   33.3673   45.1411 C   0  0  0  0  0  0  0  0  0  0  0  0
   30.4198   34.6849   48.2488 C   0  0  0  0  0  0  0  0  0  0  0  0
   29.4359   33.3623   46.5473 C   0  0  0  0  0  0  0  0  0  0  0  0
   32.3854   32.9841   44.2440 C   0  0  0  0  0  0  0  0  0  0  0  0
  1 12  1  0  0  0  0
  1 11  1  0  0  0  0
  2 13  1  0  0  0  0
  2  9  1  0  0  0  0
  3  4  1  1  0  0  0
  3  5  2  0  0  0  0
  3  6  1  0  0  0  0
  6  8  1  0  0  0  0
  7 10  1  0  0  0  0
  8 11  1  0  0  0  0
  9 12  1  0  0  0  0
 10 13  1  0  0  0  0
M  CHG  1   4  -1
M  END
>  <CHROM.1>
-73.39619627,-74.43023280,149.97682238,179.86767508,58.36169123,178.95923436
-63.76780129,177.96654121,175.40008768,30.69117940,35.50249037,47.27140889
1.12686983,-0.17112000,-2.54066134

>  <Name>
ligand

>  <RI>
0

>  <Rbt.Current_Directory>
/home/itssahil/PROJECTS/Mol_Feturizer/New_Systems/rnas/3GS8

>  <Rbt.Executable>
rbdock ($Id: //depot/dev/client3/rdock/2013.1/src/exe/rbdock.cxx#4 $)

>  <Rbt.Library>
libRbt.so (2013.1, Build901 2013/11/27)

>  <Rbt.Parameter_File>
/export/apps/rDock/src/rDock_2013.1_src/data/scripts/dock_solv.prm

>  <Rbt.Receptor>
prm/pocket_docking_3.prm

>  <SCORE>
-6.36305

>  <SCORE.INTER>
7.44397

>  <SCORE.INTER.CONST>
1

>  <SCORE.INTER.POLAR>
0

>  <SCORE.INTER.ROT>
9

>  <SCORE.INTER.SOLV>
8.76408

>  <SCORE.INTER.VDW>
-7.55871

>  <SCORE.INTER.norm>
0.572613

>  <SCORE.INTRA>
-13.807

>  <SCORE.INTRA.DIHEDRAL>
-29.5342

>  <SCORE.INTRA.DIHEDRAL.0>
31.9578

>  <SCORE.INTRA.POLAR>
0

>  <SCORE.INTRA.POLAR.0>
0

>  <SCORE.INTRA.REPUL>
0

>  <SCORE.INTRA.REPUL.0>
0

>  <SCORE.INTRA.SOLV>
-1.57151

>  <SCORE.INTRA.SOLV.lig_0>
-48.4032

>  <SCORE.INTRA.VDW>
1.74583

>  <SCORE.INTRA.VDW.0>
-1.65238

>  <SCORE.INTRA.norm>
-1.06208

>  <SCORE.RESTR>
0

>  <SCORE.RESTR.CAVITY>
0

>  <SCORE.RESTR.norm>
0

>  <SCORE.SYSTEM>
0

>  <SCORE.SYSTEM.CONST>
0

>  <SCORE.SYSTEM.DIHEDRAL>
0

>  <SCORE.SYSTEM.SOLV>
0

>  <SCORE.SYSTEM.norm>
0

>  <SCORE.heavy>
13

>  <SCORE.norm>
-0.489465

>  <RMSD>
6.550

$$$$
ligand
 OpenBabel11021811473D
libRbt.so/2013.1/901 2013/11/27
 13 12  0  0  0  0  0  0  0  0999 V2000
   32.3632   32.1271   50.2311 O   0  0  0  0  0  0  0  0  0  0  0  0
   35.1269   31.4034   50.0585 O   0  0  0  0  0  0  0  0  0  0  0  0
   29.9314   34.1885   47.2863 P   0  0  1  0  0  0  0  0  0  0  0  0
   30.2985   35.6445   47.3660 O   0  5  0  0  0  0  0  0  0  0  0  0
   29.7642   33.3618   46.1109 O   0  0  0  0  0  0  0  0  0  0  0  0
   30.5323   33.5791   48.6541 O   0  0  0  0  0  0  0  0  0  0  0  0
   36.3584   31.6528   47.4587 O   0  0  0  0  0  0  0  0  0  0  0  0
   30.2628   32.2217   49.0670 C   0  0  0  0  0  0  0  0  0  0  0  0
   34.6032   32.0359   51.2424 C   0  0  0  0  0  0  0  0  0  0  0  0
   37.0049   30.9817   48.5548 C   0  0  0  0  0  0  0  0  0  0  0  0
   30.9594   31.9153   50.4010 C   0  0  0  0  0  0  0  0  0  0  0  0
   33.0983   31.7164   51.4002 C   0  0  0  0  0  0  0  0  0  0  0  0
   36.5433   31.5954   49.8973 C   0  0  0  0  0  0  0  0  0  0  0  0
  1 12  1  0  0  0  0
  1 11  1  0  0  0  0
  2 13  1  0  0  0  0
  2  9  1  0  0  0  0
  3  4  1  6  0  0  0
  3  5  2  0  0  0  0
  3  6  1  0  0  0  0
  6  8  1  0  0  0  0
  7 10  1  0  0  0  0
  8 11  1  0  0  0  0
  9 12  1  0  0  0  0
 10 13  1  0  0  0  0
M  CHG  1   4  -1
M  END
>  <CHROM.1>
-176.26010560,-175.69512683,172.32181061,-179.99821674,-58.38518205,-176.46680356
-56.87097776,62.33380740,-173.60812318,32.57739982,32.65633502,48.87232717
0.43743694,-0.28193736,1.92121620

>  <Name>
ligand

>  <RI>
0

>  <Rbt.Current_Directory>
/home/itssahil/PROJECTS/Mol_Feturizer/New_Systems/rnas/3GS8

>  <Rbt.Executable>
rbdock ($Id: //depot/dev/client3/rdock/2013.1/src/exe/rbdock.cxx#4 $)

>  <Rbt.Library>
libRbt.so (2013.1, Build901 2013/11/27)

>  <Rbt.Parameter_File>
/export/apps/rDock/src/rDock_2013.1_src/data/scripts/dock_solv.prm

>  <Rbt.Receptor>
prm/pocket_docking_5.prm

>  <SCORE>
-13.7355

>  <SCORE.INTER>
2.43692

>  <SCORE.INTER.CONST>
1

>  <SCORE.INTER.POLAR>
0

>  <SCORE.INTER.ROT>
9

>  <SCORE.INTER.SOLV>
5.66336

>  <SCORE.INTER.VDW>
-9.86317

>  <SCORE.INTER.norm>
0.187455

>  <SCORE.INTRA>
-16.1725

>  <SCORE.INTRA.DIHEDRAL>
-31.1334

>  <SCORE.INTRA.DIHEDRAL.0>
31.9578

>  <SCORE.INTRA.POLAR>
0

>  <SCORE.INTRA.POLAR.0>
0

>  <SCORE.INTRA.REPUL>
0

>  <SCORE.INTRA.REPUL.0>
0

>  <SCORE.INTRA.SOLV>
-1.40043

>  <SCORE.INTRA.SOLV.lig_0>
-48.4032

>  <SCORE.INTRA.VDW>
0.0944532

>  <SCORE.INTRA.VDW.0>
-1.65238

>  <SCORE.INTRA.norm>
-1.24404

>  <SCORE.RESTR>
0

>  <SCORE.RESTR.CAVITY>
0

>  <SCORE.RESTR.norm>
0

>  <SCORE.SYSTEM>
0

>  <SCORE.SYSTEM.CONST>
0

>  <SCORE.SYSTEM.DIHEDRAL>
0

>  <SCORE.SYSTEM.SOLV>
0

>  <SCORE.SYSTEM.norm>
0

>  <SCORE.heavy>
13

>  <SCORE.norm>
-1.05658

>  <RMSD>
6.550

$$$$
ligand
 OpenBabel11021811473D
libRbt.so/2013.1/901 2013/11/27
 13 12  0  0  0  0  0  0  0  0999 V2000
   31.4713   32.2593   45.3465 O   0  0  0  0  0  0  0  0  0  0  0  0
   34.2805   32.0206   44.5548 O   0  0  0  0  0  0  0  0  0  0  0  0
   32.6574   33.5607   49.3568 P   0  0  1  0  0  0  0  0  0  0  0  0
   33.8665   34.2077   48.7400 O   0  5  0  0  0  0  0  0  0  0  0  0
   31.9489   33.9336   50.5617 O   0  0  0  0  0  0  0  0  0  0  0  0
   31.8737   32.9511   48.0851 O   0  0  0  0  0  0  0  0  0  0  0  0
   37.0223   32.1813   45.4678 O   0  0  0  0  0  0  0  0  0  0  0  0
   31.1382   33.7906   47.1686 C   0  0  0  0  0  0  0  0  0  0  0  0
   33.2365   32.4078   43.6405 C   0  0  0  0  0  0  0  0  0  0  0  0
   36.4477   30.9669   44.9531 C   0  0  0  0  0  0  0  0  0  0  0  0
   30.4554   32.9401   46.0873 C   0  0  0  0  0  0  0  0  0  0  0  0
   32.1042   33.1398   44.3979 C   0  0  0  0  0  0  0  0  0  0  0  0
   35.3488   31.2992   43.9166 C   0  0  0  0  0  0  0  0  0  0  0  0
  1 12  1  0  0  0  0
  1 11  1  0  0  0  0
  2 13  1  0  0  0  0
  2  9  1  0  0  0  0
  3  4  1  6  0  0  0
  3  5  2  0  0  0  0
  3  6  1  0  0  0  0
  6  8  1  0  0  0  0
  7 10  1  0  0  0  0
  8 11  1  0  0  0  0
  9 12  1  0  0  0  0
 10 13  1  0  0  0  0
M  CHG  1   4  -1
M  END
>  <CHROM.1>
177.86033837,177.96617046,-74.39997269,-178.01064024,-61.84616117,178.32295116
-63.82638774,-63.02168424,-78.04007136,33.18496444,32.81886147,46.61669428
1.01505017,0.17879859,-1.84974269

>  <Name>
ligand

>  <RI>
0

>  <Rbt.Current_Directory>
/home/itssahil/PROJECTS/Mol_Feturizer/New_Systems/rnas/3GS8

>  <Rbt.Executable>
rbdock ($Id: //depot/dev/client3/rdock/2013.1/src/exe/rbdock.cxx#4 $)

>  <Rbt.Library>
libRbt.so (2013.1, Build901 2013/11/27)

>  <Rbt.Parameter_File>
/export/apps/rDock/src/rDock_2013.1_src/data/scripts/dock_solv.prm

>  <Rbt.Receptor>
prm/pocket_docking_3.prm

>  <SCORE>
-9.84818

>  <SCORE.INTER>
4.86873

>  <SCORE.INTER.CONST>
1

>  <SCORE.INTER.POLAR>
0

>  <SCORE.INTER.ROT>
9

>  <SCORE.INTER.SOLV>
6.77829

>  <SCORE.INTER.VDW>
-8.61361

>  <SCORE.INTER.norm>
0.374517

>  <SCORE.INTRA>
-14.7169

>  <SCORE.INTRA.DIHEDRAL>
-30.0043

>  <SCORE.INTRA.DIHEDRAL.0>
31.9578

>  <SCORE.INTRA.POLAR>
0

>  <SCORE.INTRA.POLAR.0>
0

>  <SCORE.INTRA.REPUL>
0

>  <SCORE.INTRA.REPUL.0>
0

>  <SCORE.INTRA.SOLV>
-1.17706

>  <SCORE.INTRA.SOLV.lig_0>
-48.4032

>  <SCORE.INTRA.VDW>
0.873778

>  <SCORE.INTRA.VDW.0>
-1.65238

>  <SCORE.INTRA.norm>
-1.13207

>  <SCORE.RESTR>
0

>  <SCORE.RESTR.CAVITY>
0

>  <SCORE.RESTR.norm>
0

>  <SCORE.SYSTEM>
0

>  <SCORE.SYSTEM.CONST>
0

>  <SCORE.SYSTEM.DIHEDRAL>
0

>  <SCORE.SYSTEM.SOLV>
0

>  <SCORE.SYSTEM.norm>
0

>  <SCORE.heavy>
13

>  <SCORE.norm>
-0.757553

>  <RMSD>
6.571

$$$$
ligand
 OpenBabel11021811473D
libRbt.so/2013.1/901 2013/11/27
 13 12  0  0  0  0  0  0  0  0999 V2000
   29.1506   33.7795   51.2503 O   0  0  0  0  0  0  0  0  0  0  0  0
   28.2599   32.8367   48.6641 O   0  0  0  0  0  0  0  0  0  0  0  0
   29.7346   38.0793   51.5062 P   0  0  1  0  0  0  0  0  0  0  0  0
   29.9185   38.3080   50.0315 O   0  5  0  0  0  0  0  0  0  0  0  0
   29.4077   39.0413   52.5360 O   0  0  0  0  0  0  0  0  0  0  0  0
   29.1900   36.5623   51.5811 O   0  0  0  0  0  0  0  0  0  0  0  0
   28.5204   34.6666   46.4425 O   0  0  0  0  0  0  0  0  0  0  0  0
   29.5393   35.6798   52.6695 C   0  0  0  0  0  0  0  0  0  0  0  0
   28.8215   31.9446   49.6463 C   0  0  0  0  0  0  0  0  0  0  0  0
   27.8443   33.4022   46.3246 C   0  0  0  0  0  0  0  0  0  0  0  0
   28.8155   34.3329   52.5254 C   0  0  0  0  0  0  0  0  0  0  0  0
   28.5544   32.4801   51.0723 C   0  0  0  0  0  0  0  0  0  0  0  0
   28.4545   32.3815   47.3135 C   0  0  0  0  0  0  0  0  0  0  0  0
  1 12  1  0  0  0  0
  1 11  1  0  0  0  0
  2 13  1  0  0  0  0
  2  9  1  0  0  0  0
  3  4  1  6  0  0  0
  3  5  2  0  0  0  0
  3  6  1  0  0  0  0
  6  8  1  0  0  0  0
  7 10  1  0  0  0  0
  8 11  1  0  0  0  0
  9 12  1  0  0  0  0
 10 13  1  0  0  0  0
M  CHG  1   4  -1
M  END
>  <CHROM.1>
175.12182600,-179.12422068,145.50841602,176.61219853,56.66189549,-178.97021991
-60.18659895,62.58083018,177.25780688,29.01073128,35.19571852,50.22947340
3.09488168,-1.38024182,-0.95624089

>  <Name>
ligand

>  <RI>
0

>  <Rbt.Current_Directory>
/home/itssahil/PROJECTS/Mol_Feturizer/New_Systems/rnas/3GS8

>  <Rbt.Executable>
rbdock ($Id: //depot/dev/client3/rdock/2013.1/src/exe/rbdock.cxx#4 $)

>  <Rbt.Library>
libRbt.so (2013.1, Build901 2013/11/27)

>  <Rbt.Parameter_File>
/export/apps/rDock/src/rDock_2013.1_src/data/scripts/dock_solv.prm

>  <Rbt.Receptor>
prm/pocket_docking_4.prm

>  <SCORE>
-9.58508

>  <SCORE.INTER>
6.68245

>  <SCORE.INTER.CONST>
1

>  <SCORE.INTER.POLAR>
0

>  <SCORE.INTER.ROT>
9

>  <SCORE.INTER.SOLV>
9.07304

>  <SCORE.INTER.VDW>
-8.16938

>  <SCORE.INTER.norm>
0.514034

>  <SCORE.INTRA>
-16.2675

>  <SCORE.INTRA.DIHEDRAL>
-31.1768

>  <SCORE.INTRA.DIHEDRAL.0>
31.9578

>  <SCORE.INTRA.POLAR>
0

>  <SCORE.INTRA.POLAR.0>
0

>  <SCORE.INTRA.REPUL>
0

>  <SCORE.INTRA.REPUL.0>
0

>  <SCORE.INTRA.SOLV>
-1.48363

>  <SCORE.INTRA.SOLV.lig_0>
-48.4032

>  <SCORE.INTRA.VDW>
0.0626914

>  <SCORE.INTRA.VDW.0>
-1.65238

>  <SCORE.INTRA.norm>
-1.25135

>  <SCORE.RESTR>
0

>  <SCORE.RESTR.CAVITY>
0

>  <SCORE.RESTR.norm>
0

>  <SCORE.SYSTEM>
0

>  <SCORE.SYSTEM.CONST>
0

>  <SCORE.SYSTEM.DIHEDRAL>
0

>  <SCORE.SYSTEM.SOLV>
0

>  <SCORE.SYSTEM.norm>
0

>  <SCORE.heavy>
13

>  <SCORE.norm>
-0.737314

>  <RMSD>
6.572

$$$$
ligand
 OpenBabel11021811473D
libRbt.so/2013.1/901 2013/11/27
 13 12  0  0  0  0  0  0  0  0999 V2000
   30.4277   33.0020   47.8671 O   0  0  0  0  0  0  0  0  0  0  0  0
   33.7289   32.3570   49.4461 O   0  0  0  0  0  0  0  0  0  0  0  0
   26.2405   31.9360   47.0674 P   0  0  1  0  0  0  0  0  0  0  0  0
   25.7979   32.1292   45.6434 O   0  5  0  0  0  0  0  0  0  0  0  0
   25.6247   31.1374   48.1046 O   0  0  0  0  0  0  0  0  0  0  0  0
   27.8436   32.0978   46.9826 O   0  0  0  0  0  0  0  0  0  0  0  0
   36.2002   31.4664   52.0531 O   0  0  0  0  0  0  0  0  0  0  0  0
   28.4633   33.3169   46.5186 C   0  0  0  0  0  0  0  0  0  0  0  0
   32.3129   32.6192   49.3992 C   0  0  0  0  0  0  0  0  0  0  0  0
   35.7157   31.7417   50.7268 C   0  0  0  0  0  0  0  0  0  0  0  0
   29.9928   33.1775   46.5163 C   0  0  0  0  0  0  0  0  0  0  0  0
   31.8587   32.8526   47.9394 C   0  0  0  0  0  0  0  0  0  0  0  0
   34.2031   32.0614   50.7716 C   0  0  0  0  0  0  0  0  0  0  0  0
  1 12  1  0  0  0  0
  1 11  1  0  0  0  0
  2 13  1  0  0  0  0
  2  9  1  0  0  0  0
  3  4  1  6  0  0  0
  3  5  2  0  0  0  0
  3  6  1  0  0  0  0
  6  8  1  0  0  0  0
  7 10  1  0  0  0  0
  8 11  1  0  0  0  0
  9 12  1  0  0  0  0
 10 13  1  0  0  0  0
M  CHG  1   4  -1
M  END
>  <CHROM.1>
-178.22499400,177.90853913,60.44320066,-178.84771738,-64.24461316,-176.92677572
175.07563462,179.07333520,179.51137689,30.25343511,32.25541445,48.27932663
-2.77642710,0.24042338,2.14833703

>  <Name>
ligand

>  <RI>
0

>  <Rbt.Current_Directory>
/home/itssahil/PROJECTS/Mol_Feturizer/New_Systems/rnas/3GS8

>  <Rbt.Executable>
rbdock ($Id: //depot/dev/client3/rdock/2013.1/src/exe/rbdock.cxx#4 $)

>  <Rbt.Library>
libRbt.so (2013.1, Build901 2013/11/27)

>  <Rbt.Parameter_File>
/export/apps/rDock/src/rDock_2013.1_src/data/scripts/dock_solv.prm

>  <Rbt.Receptor>
prm/pocket_docking_7.prm

>  <SCORE>
-13.5741

>  <SCORE.INTER>
2.49065

>  <SCORE.INTER.CONST>
1

>  <SCORE.INTER.POLAR>
0

>  <SCORE.INTER.ROT>
9

>  <SCORE.INTER.SOLV>
8.91884

>  <SCORE.INTER.VDW>
-10.9125

>  <SCORE.INTER.norm>
0.191589

>  <SCORE.INTRA>
-16.0647

>  <SCORE.INTRA.DIHEDRAL>
-31.2312

>  <SCORE.INTRA.DIHEDRAL.0>
31.9578

>  <SCORE.INTRA.POLAR>
0

>  <SCORE.INTRA.POLAR.0>
0

>  <SCORE.INTRA.REPUL>
0

>  <SCORE.INTRA.REPUL.0>
0

>  <SCORE.INTRA.SOLV>
-1.71781

>  <SCORE.INTRA.SOLV.lig_0>
-48.4032

>  <SCORE.INTRA.VDW>
0.409756

>  <SCORE.INTRA.VDW.0>
-1.65238

>  <SCORE.INTRA.norm>
-1.23575

>  <SCORE.RESTR>
0

>  <SCORE.RESTR.CAVITY>
0

>  <SCORE.RESTR.norm>
0

>  <SCORE.SYSTEM>
0

>  <SCORE.SYSTEM.CONST>
0

>  <SCORE.SYSTEM.DIHEDRAL>
0

>  <SCORE.SYSTEM.SOLV>
0

>  <SCORE.SYSTEM.norm>
0

>  <SCORE.heavy>
13

>  <SCORE.norm>
-1.04416

>  <RMSD>
6.577

$$$$
ligand
 OpenBabel11021811473D
libRbt.so/2013.1/901 2013/11/27
 13 12  0  0  0  0  0  0  0  0999 V2000
   31.4771   32.5913   45.8111 O   0  0  0  0  0  0  0  0  0  0  0  0
   34.1724   32.8506   44.8261 O   0  0  0  0  0  0  0  0  0  0  0  0
   31.3453   32.4779   50.1848 P   0  0  1  0  0  0  0  0  0  0  0  0
   31.5162   33.8066   50.8676 O   0  5  0  0  0  0  0  0  0  0  0  0
   30.7078   31.2798   50.6860 O   0  0  0  0  0  0  0  0  0  0  0  0
   31.2664   32.8714   48.6221 O   0  0  0  0  0  0  0  0  0  0  0  0
   34.6014   30.3241   43.3284 O   0  0  0  0  0  0  0  0  0  0  0  0
   30.1331   32.5129   47.8019 C   0  0  0  0  0  0  0  0  0  0  0  0
   33.0599   32.6621   43.9302 C   0  0  0  0  0  0  0  0  0  0  0  0
   35.5178   30.8851   44.2849 C   0  0  0  0  0  0  0  0  0  0  0  0
   30.2773   33.1071   46.3931 C   0  0  0  0  0  0  0  0  0  0  0  0
   31.7657   33.2339   44.5543 C   0  0  0  0  0  0  0  0  0  0  0  0
   35.4269   32.4290   44.2625 C   0  0  0  0  0  0  0  0  0  0  0  0
  1 12  1  0  0  0  0
  1 11  1  0  0  0  0
  2 13  1  0  0  0  0
  2  9  1  0  0  0  0
  3  4  1  1  0  0  0
  3  5  2  0  0  0  0
  3  6  1  0  0  0  0
  6  8  1  0  0  0  0
  7 10  1  0  0  0  0
  8 11  1  0  0  0  0
  9 12  1  0  0  0  0
 10 13  1  0  0  0  0
M  CHG  1   4  -1
M  END
>  <CHROM.1>
-179.64166964,-76.06793760,-122.58162186,175.59801923,59.77986604,-175.65847204
-58.93675056,70.41658368,-172.77304270,32.31366180,32.38876629,46.91375762
1.01564092,0.41051142,-1.46245221

>  <Name>
ligand

>  <RI>
0

>  <Rbt.Current_Directory>
/home/itssahil/PROJECTS/Mol_Feturizer/New_Systems/rnas/3GS8

>  <Rbt.Executable>
rbdock ($Id: //depot/dev/client3/rdock/2013.1/src/exe/rbdock.cxx#4 $)

>  <Rbt.Library>
libRbt.so (2013.1, Build901 2013/11/27)

>  <Rbt.Parameter_File>
/export/apps/rDock/src/rDock_2013.1_src/data/scripts/dock_solv.prm

>  <Rbt.Receptor>
prm/pocket_docking_4.prm

>  <SCORE>
-8.76923

>  <SCORE.INTER>
4.97247

>  <SCORE.INTER.CONST>
1

>  <SCORE.INTER.POLAR>
0

>  <SCORE.INTER.ROT>
9

>  <SCORE.INTER.SOLV>
8.66021

>  <SCORE.INTER.VDW>
-9.17176

>  <SCORE.INTER.norm>
0.382497

>  <SCORE.INTRA>
-13.7417

>  <SCORE.INTRA.DIHEDRAL>
-28.7227

>  <SCORE.INTRA.DIHEDRAL.0>
31.9578

>  <SCORE.INTRA.POLAR>
0

>  <SCORE.INTRA.POLAR.0>
0

>  <SCORE.INTRA.REPUL>
0

>  <SCORE.INTRA.REPUL.0>
0

>  <SCORE.INTRA.SOLV>
-0.9835

>  <SCORE.INTRA.SOLV.lig_0>
-48.4032

>  <SCORE.INTRA.VDW>
1.11141

>  <SCORE.INTRA.VDW.0>
-1.65238

>  <SCORE.INTRA.norm>
-1.05705

>  <SCORE.RESTR>
0

>  <SCORE.RESTR.CAVITY>
0

>  <SCORE.RESTR.norm>
0

>  <SCORE.SYSTEM>
0

>  <SCORE.SYSTEM.CONST>
0

>  <SCORE.SYSTEM.DIHEDRAL>
0

>  <SCORE.SYSTEM.SOLV>
0

>  <SCORE.SYSTEM.norm>
0

>  <SCORE.heavy>
13

>  <SCORE.norm>
-0.674556

>  <RMSD>
6.582

$$$$
ligand
 OpenBabel11021811473D
libRbt.so/2013.1/901 2013/11/27
 13 12  0  0  0  0  0  0  0  0999 V2000
   31.0682   31.7396   50.6364 O   0  0  0  0  0  0  0  0  0  0  0  0
   34.0196   31.3861   50.7530 O   0  0  0  0  0  0  0  0  0  0  0  0
   29.1660   32.9717   46.9440 P   0  0  1  0  0  0  0  0  0  0  0  0
   27.7917   32.4277   46.6676 O   0  5  0  0  0  0  0  0  0  0  0  0
   29.6574   34.3202   46.7627 O   0  0  0  0  0  0  0  0  0  0  0  0
   29.6918   32.0504   48.1598 O   0  0  0  0  0  0  0  0  0  0  0  0
   37.5869   31.7812   49.8512 O   0  0  0  0  0  0  0  0  0  0  0  0
   29.0060   31.9997   49.4297 C   0  0  0  0  0  0  0  0  0  0  0  0
   33.1882   31.7158   51.8826 C   0  0  0  0  0  0  0  0  0  0  0  0
   36.2112   31.3993   49.6747 C   0  0  0  0  0  0  0  0  0  0  0  0
   29.7880   31.1368   50.4310 C   0  0  0  0  0  0  0  0  0  0  0  0
   31.7809   31.0978   51.7114 C   0  0  0  0  0  0  0  0  0  0  0  0
   35.3849   31.8084   50.9165 C   0  0  0  0  0  0  0  0  0  0  0  0
  1 12  1  0  0  0  0
  1 11  1  0  0  0  0
  2 13  1  0  0  0  0
  2  9  1  0  0  0  0
  3  4  1  1  0  0  0
  3  5  2  0  0  0  0
  3  6  1  0  0  0  0
  6  8  1  0  0  0  0
  7 10  1  0  0  0  0
  8 11  1  0  0  0  0
  9 12  1  0  0  0  0
 10 13  1  0  0  0  0
M  CHG  1   4  -1
M  END
>  <CHROM.1>
177.45621841,179.14713852,-60.54990147,-175.35758513,61.56458483,-173.68000787
-68.55028164,-178.17161510,171.41598678,31.64188573,32.08294349,49.27717736
0.47065071,0.02229477,1.97673941

>  <Name>
ligand

>  <RI>
0

>  <Rbt.Current_Directory>
/home/itssahil/PROJECTS/Mol_Feturizer/New_Systems/rnas/3GS8

>  <Rbt.Executable>
rbdock ($Id: //depot/dev/client3/rdock/2013.1/src/exe/rbdock.cxx#4 $)

>  <Rbt.Library>
libRbt.so (2013.1, Build901 2013/11/27)

>  <Rbt.Parameter_File>
/export/apps/rDock/src/rDock_2013.1_src/data/scripts/dock_solv.prm

>  <Rbt.Receptor>
prm/pocket_docking_6.prm

>  <SCORE>
-14.7325

>  <SCORE.INTER>
0.946687

>  <SCORE.INTER.CONST>
1

>  <SCORE.INTER.POLAR>
0

>  <SCORE.INTER.ROT>
9

>  <SCORE.INTER.SOLV>
8.46769

>  <SCORE.INTER.VDW>
-11.7914

>  <SCORE.INTER.norm>
0.0728221

>  <SCORE.INTRA>
-15.6792

>  <SCORE.INTRA.DIHEDRAL>
-30.5173

>  <SCORE.INTRA.DIHEDRAL.0>
31.9578

>  <SCORE.INTRA.POLAR>
0

>  <SCORE.INTRA.POLAR.0>
0

>  <SCORE.INTRA.REPUL>
0

>  <SCORE.INTRA.REPUL.0>
0

>  <SCORE.INTRA.SOLV>
-1.36662

>  <SCORE.INTRA.SOLV.lig_0>
-48.4032

>  <SCORE.INTRA.VDW>
0.262749

>  <SCORE.INTRA.VDW.0>
-1.65238

>  <SCORE.INTRA.norm>
-1.20609

>  <SCORE.RESTR>
0

>  <SCORE.RESTR.CAVITY>
0

>  <SCORE.RESTR.norm>
0

>  <SCORE.SYSTEM>
0

>  <SCORE.SYSTEM.CONST>
0

>  <SCORE.SYSTEM.DIHEDRAL>
0

>  <SCORE.SYSTEM.SOLV>
0

>  <SCORE.SYSTEM.norm>
0

>  <SCORE.heavy>
13

>  <SCORE.norm>
-1.13327

>  <RMSD>
6.594

$$$$
ligand
 OpenBabel11021811473D
libRbt.so/2013.1/901 2013/11/27
 13 12  0  0  0  0  0  0  0  0999 V2000
   30.4669   33.7540   46.1788 O   0  0  0  0  0  0  0  0  0  0  0  0
   33.3351   32.2304   44.3743 O   0  0  0  0  0  0  0  0  0  0  0  0
   30.5222   35.1688   48.9008 P   0  0  1  0  0  0  0  0  0  0  0  0
   30.3539   36.1292   50.0454 O   0  5  0  0  0  0  0  0  0  0  0  0
   31.6860   34.3893   48.5390 O   0  0  0  0  0  0  0  0  0  0  0  0
   29.0319   34.5920   48.6785 O   0  0  0  0  0  0  0  0  0  0  0  0
   35.7752   30.6657   44.6042 O   0  0  0  0  0  0  0  0  0  0  0  0
   28.4764   34.4034   47.3588 C   0  0  0  0  0  0  0  0  0  0  0  0
   32.5447   33.2898   44.9479 C   0  0  0  0  0  0  0  0  0  0  0  0
   35.4650   31.4694   43.4521 C   0  0  0  0  0  0  0  0  0  0  0  0
   29.2005   33.2640   46.6265 C   0  0  0  0  0  0  0  0  0  0  0  0
   31.2090   32.7294   45.4897 C   0  0  0  0  0  0  0  0  0  0  0  0
   34.6038   32.6841   43.8704 C   0  0  0  0  0  0  0  0  0  0  0  0
  1 12  1  0  0  0  0
  1 11  1  0  0  0  0
  2 13  1  0  0  0  0
  2  9  1  0  0  0  0
  3  4  1  1  0  0  0
  3  5  2  0  0  0  0
  3  6  1  0  0  0  0
  6  8  1  0  0  0  0
  7 10  1  0  0  0  0
  8 11  1  0  0  0  0
  9 12  1  0  0  0  0
 10 13  1  0  0  0  0
M  CHG  1   4  -1
M  END
>  <CHROM.1>
177.12625674,172.30581804,138.03898788,68.61225002,-76.39925350,-179.03625584
174.50493115,-64.38738088,179.50702045,31.64755009,33.59252533,46.62941630
2.28724823,-0.08854237,1.03163566

>  <Name>
ligand

>  <RI>
0

>  <Rbt.Current_Directory>
/home/itssahil/PROJECTS/Mol_Feturizer/New_Systems/rnas/3GS8

>  <Rbt.Executable>
rbdock ($Id: //depot/dev/client3/rdock/2013.1/src/exe/rbdock.cxx#4 $)

>  <Rbt.Library>
libRbt.so (2013.1, Build901 2013/11/27)

>  <Rbt.Parameter_File>
/export/apps/rDock/src/rDock_2013.1_src/data/scripts/dock_solv.prm

>  <Rbt.Receptor>
prm/pocket_docking_3.prm

>  <SCORE>
-7.01522

>  <SCORE.INTER>
6.34942

>  <SCORE.INTER.CONST>
1

>  <SCORE.INTER.POLAR>
0

>  <SCORE.INTER.ROT>
9

>  <SCORE.INTER.SOLV>
8.67864

>  <SCORE.INTER.VDW>
-8.25993

>  <SCORE.INTER.norm>
0.488417

>  <SCORE.INTRA>
-13.3782

>  <SCORE.INTRA.DIHEDRAL>
-29.4437

>  <SCORE.INTRA.DIHEDRAL.0>
31.9578

>  <SCORE.INTRA.POLAR>
0

>  <SCORE.INTRA.POLAR.0>
0

>  <SCORE.INTRA.REPUL>
0

>  <SCORE.INTRA.REPUL.0>
0

>  <SCORE.INTRA.SOLV>
2.95904

>  <SCORE.INTRA.SOLV.lig_0>
-48.4032

>  <SCORE.INTRA.VDW>
-0.135851

>  <SCORE.INTRA.VDW.0>
-1.65238

>  <SCORE.INTRA.norm>
-1.02909

>  <SCORE.RESTR>
0.0135426

>  <SCORE.RESTR.CAVITY>
0.0135426

>  <SCORE.RESTR.norm>
0.00104174

>  <SCORE.SYSTEM>
0

>  <SCORE.SYSTEM.CONST>
0

>  <SCORE.SYSTEM.DIHEDRAL>
0

>  <SCORE.SYSTEM.SOLV>
0

>  <SCORE.SYSTEM.norm>
0

>  <SCORE.heavy>
13

>  <SCORE.norm>
-0.539633

>  <RMSD>
6.597

$$$$
ligand
 OpenBabel11021811473D
libRbt.so/2013.1/901 2013/11/27
 13 12  0  0  0  0  0  0  0  0999 V2000
   35.6741   31.5724   50.8234 O   0  0  0  0  0  0  0  0  0  0  0  0
   32.2796   32.0382   52.2498 O   0  0  0  0  0  0  0  0  0  0  0  0
   39.7038   30.1982   48.0715 P   0  0  1  0  0  0  0  0  0  0  0  0
   39.8513   30.1555   46.5757 O   0  5  0  0  0  0  0  0  0  0  0  0
   40.7189   30.4424   49.0729 O   0  0  0  0  0  0  0  0  0  0  0  0
   38.1882   30.7105   48.2803 O   0  0  0  0  0  0  0  0  0  0  0  0
   29.5217   29.7009   51.4580 O   0  0  0  0  0  0  0  0  0  0  0  0
   37.6594   31.0136   49.5896 C   0  0  0  0  0  0  0  0  0  0  0  0
   33.7194   31.9857   52.2575 C   0  0  0  0  0  0  0  0  0  0  0  0
   30.1331   30.9368   51.8682 C   0  0  0  0  0  0  0  0  0  0  0  0
   36.1767   31.4030   49.4956 C   0  0  0  0  0  0  0  0  0  0  0  0
   34.2586   31.8405   50.8153 C   0  0  0  0  0  0  0  0  0  0  0  0
   31.6727   30.7896   51.8731 C   0  0  0  0  0  0  0  0  0  0  0  0
  1 12  1  0  0  0  0
  1 11  1  0  0  0  0
  2 13  1  0  0  0  0
  2  9  1  0  0  0  0
  3  4  1  6  0  0  0
  3  5  2  0  0  0  0
  3  6  1  0  0  0  0
  6  8  1  0  0  0  0
  7 10  1  0  0  0  0
  8 11  1  0  0  0  0
  9 12  1  0  0  0  0
 10 13  1  0  0  0  0
M  CHG  1   4  -1
M  END
>  <CHROM.1>
178.54321489,-179.11353600,-174.22417857,-176.91525422,174.77796564,68.64020703
-170.78564245,178.49622270,-175.63008096,35.73858394,30.90862397,49.99233418
-2.77091279,-0.21293044,-2.22493896

>  <Name>
ligand

>  <RI>
0

>  <Rbt.Current_Directory>
/home/itssahil/PROJECTS/Mol_Feturizer/New_Systems/rnas/3GS8

>  <Rbt.Executable>
rbdock ($Id: //depot/dev/client3/rdock/2013.1/src/exe/rbdock.cxx#4 $)

>  <Rbt.Library>
libRbt.so (2013.1, Build901 2013/11/27)

>  <Rbt.Parameter_File>
/export/apps/rDock/src/rDock_2013.1_src/data/scripts/dock_solv.prm

>  <Rbt.Receptor>
prm/pocket_docking_7.prm

>  <SCORE>
-12.0728

>  <SCORE.INTER>
2.54949

>  <SCORE.INTER.CONST>
1

>  <SCORE.INTER.POLAR>
0

>  <SCORE.INTER.ROT>
9

>  <SCORE.INTER.SOLV>
6.22088

>  <SCORE.INTER.VDW>
-9.97397

>  <SCORE.INTER.norm>
0.196114

>  <SCORE.INTRA>
-14.6223

>  <SCORE.INTRA.DIHEDRAL>
-30.418

>  <SCORE.INTRA.DIHEDRAL.0>
31.9578

>  <SCORE.INTRA.POLAR>
0

>  <SCORE.INTRA.POLAR.0>
0

>  <SCORE.INTRA.REPUL>
0

>  <SCORE.INTRA.REPUL.0>
0

>  <SCORE.INTRA.SOLV>
-1.88206

>  <SCORE.INTRA.SOLV.lig_0>
-48.4032

>  <SCORE.INTRA.VDW>
1.52768

>  <SCORE.INTRA.VDW.0>
-1.65238

>  <SCORE.INTRA.norm>
-1.12479

>  <SCORE.RESTR>
0

>  <SCORE.RESTR.CAVITY>
0

>  <SCORE.RESTR.norm>
0

>  <SCORE.SYSTEM>
0

>  <SCORE.SYSTEM.CONST>
0

>  <SCORE.SYSTEM.DIHEDRAL>
0

>  <SCORE.SYSTEM.SOLV>
0

>  <SCORE.SYSTEM.norm>
0

>  <SCORE.heavy>
13

>  <SCORE.norm>
-0.92868

>  <RMSD>
6.602

$$$$
ligand
 OpenBabel11021811473D
libRbt.so/2013.1/901 2013/11/27
 13 12  0  0  0  0  0  0  0  0999 V2000
   31.0668   31.7132   50.7069 O   0  0  0  0  0  0  0  0  0  0  0  0
   34.0237   31.4132   50.6962 O   0  0  0  0  0  0  0  0  0  0  0  0
   29.0509   33.1053   47.1676 P   0  0  1  0  0  0  0  0  0  0  0  0
   30.2708   33.5496   46.4090 O   0  5  0  0  0  0  0  0  0  0  0  0
   27.7000   32.9271   46.6818 O   0  0  0  0  0  0  0  0  0  0  0  0
   29.6566   32.1456   48.3145 O   0  0  0  0  0  0  0  0  0  0  0  0
   37.5489   31.8660   49.6657 O   0  0  0  0  0  0  0  0  0  0  0  0
   28.9641   31.9163   49.5609 C   0  0  0  0  0  0  0  0  0  0  0  0
   33.2361   31.7096   51.8657 C   0  0  0  0  0  0  0  0  0  0  0  0
   36.1774   31.4492   49.5445 C   0  0  0  0  0  0  0  0  0  0  0  0
   29.8167   31.0507   50.5004 C   0  0  0  0  0  0  0  0  0  0  0  0
   31.8332   31.0702   51.7437 C   0  0  0  0  0  0  0  0  0  0  0  0
   35.3806   31.8799   50.7982 C   0  0  0  0  0  0  0  0  0  0  0  0
  1 12  1  0  0  0  0
  1 11  1  0  0  0  0
  2 13  1  0  0  0  0
  2  9  1  0  0  0  0
  3  4  1  6  0  0  0
  3  5  2  0  0  0  0
  3  6  1  0  0  0  0
  6  8  1  0  0  0  0
  7 10  1  0  0  0  0
  8 11  1  0  0  0  0
  9 12  1  0  0  0  0
 10 13  1  0  0  0  0
M  CHG  1   4  -1
M  END
>  <CHROM.1>
174.57755360,176.61848594,155.14760611,-175.77583574,57.49271054,-174.84027548
-68.27574091,-177.66736453,170.72353605,31.66245020,32.09023634,49.28077804
0.44776006,0.00492645,1.95395677

>  <Name>
ligand

>  <RI>
0

>  <Rbt.Current_Directory>
/home/itssahil/PROJECTS/Mol_Feturizer/New_Systems/rnas/3GS8

>  <Rbt.Executable>
rbdock ($Id: //depot/dev/client3/rdock/2013.1/src/exe/rbdock.cxx#4 $)

>  <Rbt.Library>
libRbt.so (2013.1, Build901 2013/11/27)

>  <Rbt.Parameter_File>
/export/apps/rDock/src/rDock_2013.1_src/data/scripts/dock_solv.prm

>  <Rbt.Receptor>
prm/pocket_docking_8.prm

>  <SCORE>
-14.9386

>  <SCORE.INTER>
0.966909

>  <SCORE.INTER.CONST>
1

>  <SCORE.INTER.POLAR>
0

>  <SCORE.INTER.ROT>
9

>  <SCORE.INTER.SOLV>
7.3846

>  <SCORE.INTER.VDW>
-11.4169

>  <SCORE.INTER.norm>
0.0743776

>  <SCORE.INTRA>
-15.9055

>  <SCORE.INTRA.DIHEDRAL>
-30.4936

>  <SCORE.INTRA.DIHEDRAL.0>
31.9578

>  <SCORE.INTRA.POLAR>
0

>  <SCORE.INTRA.POLAR.0>
0

>  <SCORE.INTRA.REPUL>
0

>  <SCORE.INTRA.REPUL.0>
0

>  <SCORE.INTRA.SOLV>
-1.70329

>  <SCORE.INTRA.SOLV.lig_0>
-48.4032

>  <SCORE.INTRA.VDW>
0.192904

>  <SCORE.INTRA.VDW.0>
-1.65238

>  <SCORE.INTRA.norm>
-1.2235

>  <SCORE.RESTR>
0

>  <SCORE.RESTR.CAVITY>
0

>  <SCORE.RESTR.norm>
0

>  <SCORE.SYSTEM>
0

>  <SCORE.SYSTEM.CONST>
0

>  <SCORE.SYSTEM.DIHEDRAL>
0

>  <SCORE.SYSTEM.SOLV>
0

>  <SCORE.SYSTEM.norm>
0

>  <SCORE.heavy>
13

>  <SCORE.norm>
-1.14912

>  <RMSD>
6.606

$$$$
ligand
 OpenBabel11021811473D
libRbt.so/2013.1/901 2013/11/27
 13 12  0  0  0  0  0  0  0  0999 V2000
   30.6770   34.2989   48.2777 O   0  0  0  0  0  0  0  0  0  0  0  0
   30.4382   33.6543   45.5212 O   0  0  0  0  0  0  0  0  0  0  0  0
   29.9700   39.1638   49.5325 P   0  0  1  0  0  0  0  0  0  0  0  0
   28.7744   40.0056   49.1819 O   0  5  0  0  0  0  0  0  0  0  0  0
   30.9741   39.3986   50.5472 O   0  0  0  0  0  0  0  0  0  0  0  0
   29.4901   37.6675   49.1667 O   0  0  0  0  0  0  0  0  0  0  0  0
   33.5262   32.2751   44.0180 O   0  0  0  0  0  0  0  0  0  0  0  0
   30.4343   36.6104   48.8897 C   0  0  0  0  0  0  0  0  0  0  0  0
   29.4421   33.1990   46.4574 C   0  0  0  0  0  0  0  0  0  0  0  0
   32.4915   33.2440   44.2634 C   0  0  0  0  0  0  0  0  0  0  0  0
   29.6989   35.3047   48.5533 C   0  0  0  0  0  0  0  0  0  0  0  0
   30.0559   33.0645   47.8705 C   0  0  0  0  0  0  0  0  0  0  0  0
   31.4696   32.6812   45.2790 C   0  0  0  0  0  0  0  0  0  0  0  0
  1 12  1  0  0  0  0
  1 11  1  0  0  0  0
  2 13  1  0  0  0  0
  2  9  1  0  0  0  0
  3  4  1  1  0  0  0
  3  5  2  0  0  0  0
  3  6  1  0  0  0  0
  6  8  1  0  0  0  0
  7 10  1  0  0  0  0
  8 11  1  0  0  0  0
  9 12  1  0  0  0  0
 10 13  1  0  0  0  0
M  CHG  1   4  -1
M  END
>  <CHROM.1>
70.90417649,179.79637656,157.48147975,-179.16095309,179.51471795,67.85735755
54.58211812,179.95626356,-176.35077704,30.52830134,35.77231599,47.68301762
1.25515654,-0.69067697,-2.72517485

>  <Name>
ligand

>  <RI>
0

>  <Rbt.Current_Directory>
/home/itssahil/PROJECTS/Mol_Feturizer/New_Systems/rnas/3GS8

>  <Rbt.Executable>
rbdock ($Id: //depot/dev/client3/rdock/2013.1/src/exe/rbdock.cxx#4 $)

>  <Rbt.Library>
libRbt.so (2013.1, Build901 2013/11/27)

>  <Rbt.Parameter_File>
/export/apps/rDock/src/rDock_2013.1_src/data/scripts/dock_solv.prm

>  <Rbt.Receptor>
prm/pocket_docking_3.prm

>  <SCORE>
-7.11835

>  <SCORE.INTER>
6.65789

>  <SCORE.INTER.CONST>
1

>  <SCORE.INTER.POLAR>
0

>  <SCORE.INTER.ROT>
9

>  <SCORE.INTER.SOLV>
6.46017

>  <SCORE.INTER.VDW>
-7.31479

>  <SCORE.INTER.norm>
0.512146

>  <SCORE.INTRA>
-13.7762

>  <SCORE.INTRA.DIHEDRAL>
-30.5994

>  <SCORE.INTRA.DIHEDRAL.0>
31.9578

>  <SCORE.INTRA.POLAR>
0

>  <SCORE.INTRA.POLAR.0>
0

>  <SCORE.INTRA.REPUL>
0

>  <SCORE.INTRA.REPUL.0>
0

>  <SCORE.INTRA.SOLV>
-1.64456

>  <SCORE.INTRA.SOLV.lig_0>
-48.4032

>  <SCORE.INTRA.VDW>
2.34575

>  <SCORE.INTRA.VDW.0>
-1.65238

>  <SCORE.INTRA.norm>
-1.05971

>  <SCORE.RESTR>
0

>  <SCORE.RESTR.CAVITY>
0

>  <SCORE.RESTR.norm>
0

>  <SCORE.SYSTEM>
0

>  <SCORE.SYSTEM.CONST>
0

>  <SCORE.SYSTEM.DIHEDRAL>
0

>  <SCORE.SYSTEM.SOLV>
0

>  <SCORE.SYSTEM.norm>
0

>  <SCORE.heavy>
13

>  <SCORE.norm>
-0.547565

>  <RMSD>
6.625

$$$$
ligand
 OpenBabel11021811473D
libRbt.so/2013.1/901 2013/11/27
 13 12  0  0  0  0  0  0  0  0999 V2000
   32.2322   32.5158   45.0506 O   0  0  0  0  0  0  0  0  0  0  0  0
   34.9721   31.8012   44.6254 O   0  0  0  0  0  0  0  0  0  0  0  0
   32.8058   33.8439   47.8113 P   0  0  1  0  0  0  0  0  0  0  0  0
   33.4418   35.2036   47.8991 O   0  5  0  0  0  0  0  0  0  0  0  0
   33.1377   32.6421   48.5451 O   0  0  0  0  0  0  0  0  0  0  0  0
   31.2811   34.1735   47.3993 O   0  0  0  0  0  0  0  0  0  0  0  0
   36.5493   31.1308   46.9559 O   0  0  0  0  0  0  0  0  0  0  0  0
   30.5171   33.2986   46.5411 C   0  0  0  0  0  0  0  0  0  0  0  0
   33.9680   31.4958   43.6382 C   0  0  0  0  0  0  0  0  0  0  0  0
   37.1331   31.3130   45.6538 C   0  0  0  0  0  0  0  0  0  0  0  0
   31.0639   33.3381   45.1065 C   0  0  0  0  0  0  0  0  0  0  0  0
   32.8024   32.5083   43.7276 C   0  0  0  0  0  0  0  0  0  0  0  0
   36.1125   30.9272   44.5575 C   0  0  0  0  0  0  0  0  0  0  0  0
  1 12  1  0  0  0  0
  1 11  1  0  0  0  0
  2 13  1  0  0  0  0
  2  9  1  0  0  0  0
  3  4  1  1  0  0  0
  3  5  2  0  0  0  0
  3  6  1  0  0  0  0
  6  8  1  0  0  0  0
  7 10  1  0  0  0  0
  8 11  1  0  0  0  0
  9 12  1  0  0  0  0
 10 13  1  0  0  0  0
M  CHG  1   4  -1
M  END
>  <CHROM.1>
-173.66376053,-179.50605027,145.95956985,-69.52852531,78.94858935,-177.56130850
-57.00747416,62.87372385,-179.88050860,33.48437386,32.74331434,46.15474809
2.54518414,-0.36955416,1.17141302

>  <Name>
ligand

>  <RI>
0

>  <Rbt.Current_Directory>
/home/itssahil/PROJECTS/Mol_Feturizer/New_Systems/rnas/3GS8

>  <Rbt.Executable>
rbdock ($Id: //depot/dev/client3/rdock/2013.1/src/exe/rbdock.cxx#4 $)

>  <Rbt.Library>
libRbt.so (2013.1, Build901 2013/11/27)

>  <Rbt.Parameter_File>
/export/apps/rDock/src/rDock_2013.1_src/data/scripts/dock_solv.prm

>  <Rbt.Receptor>
prm/pocket_docking_4.prm

>  <SCORE>
-9.27197

>  <SCORE.INTER>
4.92289

>  <SCORE.INTER.CONST>
1

>  <SCORE.INTER.POLAR>
0

>  <SCORE.INTER.ROT>
9

>  <SCORE.INTER.SOLV>
10.1324

>  <SCORE.INTER.VDW>
-9.69553

>  <SCORE.INTER.norm>
0.378684

>  <SCORE.INTRA>
-14.1949

>  <SCORE.INTRA.DIHEDRAL>
-29.492

>  <SCORE.INTRA.DIHEDRAL.0>
31.9578

>  <SCORE.INTRA.POLAR>
0

>  <SCORE.INTRA.POLAR.0>
0

>  <SCORE.INTRA.REPUL>
0

>  <SCORE.INTRA.REPUL.0>
0

>  <SCORE.INTRA.SOLV>
2.03196

>  <SCORE.INTRA.SOLV.lig_0>
-48.4032

>  <SCORE.INTRA.VDW>
-0.46483

>  <SCORE.INTRA.VDW.0>
-1.65238

>  <SCORE.INTRA.norm>
-1.09191

>  <SCORE.RESTR>
0

>  <SCORE.RESTR.CAVITY>
0

>  <SCORE.RESTR.norm>
0

>  <SCORE.SYSTEM>
0

>  <SCORE.SYSTEM.CONST>
0

>  <SCORE.SYSTEM.DIHEDRAL>
0

>  <SCORE.SYSTEM.SOLV>
0

>  <SCORE.SYSTEM.norm>
0

>  <SCORE.heavy>
13

>  <SCORE.norm>
-0.713229

>  <RMSD>
6.630

$$$$
ligand
 OpenBabel11021811473D
libRbt.so/2013.1/901 2013/11/27
 13 12  0  0  0  0  0  0  0  0999 V2000
   31.4646   33.0965   46.0820 O   0  0  0  0  0  0  0  0  0  0  0  0
   33.9913   32.5546   44.7641 O   0  0  0  0  0  0  0  0  0  0  0  0
   30.3592   33.4493   50.2568 P   0  0  1  0  0  0  0  0  0  0  0  0
   31.4561   32.4576   50.5291 O   0  5  0  0  0  0  0  0  0  0  0  0
   29.8990   34.5390   51.0897 O   0  0  0  0  0  0  0  0  0  0  0  0
   30.3646   33.5758   48.6483 O   0  0  0  0  0  0  0  0  0  0  0  0
   35.7815   30.4576   43.9658 O   0  0  0  0  0  0  0  0  0  0  0  0
   29.8875   32.5103   47.7982 C   0  0  0  0  0  0  0  0  0  0  0  0
   33.2143   33.7331   44.4753 C   0  0  0  0  0  0  0  0  0  0  0  0
   36.1653   31.4536   44.9303 C   0  0  0  0  0  0  0  0  0  0  0  0
   30.0716   32.8775   46.3183 C   0  0  0  0  0  0  0  0  0  0  0  0
   31.7110   33.4549   44.7086 C   0  0  0  0  0  0  0  0  0  0  0  0
   35.4088   32.7746   44.6566 C   0  0  0  0  0  0  0  0  0  0  0  0
  1 12  1  0  0  0  0
  1 11  1  0  0  0  0
  2 13  1  0  0  0  0
  2  9  1  0  0  0  0
  3  4  1  1  0  0  0
  3  5  2  0  0  0  0
  3  6  1  0  0  0  0
  6  8  1  0  0  0  0
  7 10  1  0  0  0  0
  8 11  1  0  0  0  0
  9 12  1  0  0  0  0
 10 13  1  0  0  0  0
M  CHG  1   4  -1
M  END
>  <CHROM.1>
178.19639529,-177.95196076,71.64493753,-177.33093689,59.79612093,-175.90625685
60.97935512,60.57943714,-179.63580278,32.12802660,32.88650692,47.10568787
0.82738766,0.38428768,-1.50493189

>  <Name>
ligand

>  <RI>
0

>  <Rbt.Current_Directory>
/home/itssahil/PROJECTS/Mol_Feturizer/New_Systems/rnas/3GS8

>  <Rbt.Executable>
rbdock ($Id: //depot/dev/client3/rdock/2013.1/src/exe/rbdock.cxx#4 $)

>  <Rbt.Library>
libRbt.so (2013.1, Build901 2013/11/27)

>  <Rbt.Parameter_File>
/export/apps/rDock/src/rDock_2013.1_src/data/scripts/dock_solv.prm

>  <Rbt.Receptor>
prm/pocket_docking_3.prm

>  <SCORE>
-9.4113

>  <SCORE.INTER>
6.67346

>  <SCORE.INTER.CONST>
1

>  <SCORE.INTER.POLAR>
0

>  <SCORE.INTER.ROT>
9

>  <SCORE.INTER.SOLV>
7.66042

>  <SCORE.INTER.VDW>
-7.7045

>  <SCORE.INTER.norm>
0.513343

>  <SCORE.INTRA>
-16.0848

>  <SCORE.INTRA.DIHEDRAL>
-31.0475

>  <SCORE.INTRA.DIHEDRAL.0>
31.9578

>  <SCORE.INTRA.POLAR>
0

>  <SCORE.INTRA.POLAR.0>
0

>  <SCORE.INTRA.REPUL>
0

>  <SCORE.INTRA.REPUL.0>
0

>  <SCORE.INTRA.SOLV>
-1.28412

>  <SCORE.INTRA.SOLV.lig_0>
-48.4032

>  <SCORE.INTRA.VDW>
0.081045

>  <SCORE.INTRA.VDW.0>
-1.65238

>  <SCORE.INTRA.norm>
-1.23729

>  <SCORE.RESTR>
0

>  <SCORE.RESTR.CAVITY>
0

>  <SCORE.RESTR.norm>
0

>  <SCORE.SYSTEM>
0

>  <SCORE.SYSTEM.CONST>
0

>  <SCORE.SYSTEM.DIHEDRAL>
0

>  <SCORE.SYSTEM.SOLV>
0

>  <SCORE.SYSTEM.norm>
0

>  <SCORE.heavy>
13

>  <SCORE.norm>
-0.723946

>  <RMSD>
6.634

$$$$
ligand
 OpenBabel11021811473D
libRbt.so/2013.1/901 2013/11/27
 13 12  0  0  0  0  0  0  0  0999 V2000
   29.8171   35.3339   46.6869 O   0  0  0  0  0  0  0  0  0  0  0  0
   31.4414   32.9745   46.1602 O   0  0  0  0  0  0  0  0  0  0  0  0
   29.6055   38.4550   49.7382 P   0  0  1  0  0  0  0  0  0  0  0  0
   30.8959   37.8831   50.2567 O   0  5  0  0  0  0  0  0  0  0  0  0
   29.1563   39.8301   49.7525 O   0  0  0  0  0  0  0  0  0  0  0  0
   29.2253   37.4677   48.5200 O   0  0  0  0  0  0  0  0  0  0  0  0
   33.9305   34.0894   45.3134 O   0  0  0  0  0  0  0  0  0  0  0  0
   29.7199   37.6840   47.1805 C   0  0  0  0  0  0  0  0  0  0  0  0
   30.0152   32.9055   46.3527 C   0  0  0  0  0  0  0  0  0  0  0  0
   33.3651   32.9419   44.6554 C   0  0  0  0  0  0  0  0  0  0  0  0
   29.2430   36.5656   46.2422 C   0  0  0  0  0  0  0  0  0  0  0  0
   29.3480   34.2242   45.8971 C   0  0  0  0  0  0  0  0  0  0  0  0
   31.8231   32.9705   44.7734 C   0  0  0  0  0  0  0  0  0  0  0  0
  1 12  1  0  0  0  0
  1 11  1  0  0  0  0
  2 13  1  0  0  0  0
  2  9  1  0  0  0  0
  3  4  1  6  0  0  0
  3  5  2  0  0  0  0
  3  6  1  0  0  0  0
  6  8  1  0  0  0  0
  7 10  1  0  0  0  0
  8 11  1  0  0  0  0
  9 12  1  0  0  0  0
 10 13  1  0  0  0  0
M  CHG  1   4  -1
M  END
>  <CHROM.1>
177.89538499,-175.87787650,-87.34059558,177.86434134,-64.00051434,-69.44975899
-62.19544836,-59.06301686,176.58523235,30.51408040,35.90124013,47.29877616
1.22084655,0.07011518,-2.45466038

>  <Name>
ligand

>  <RI>
0

>  <Rbt.Current_Directory>
/home/itssahil/PROJECTS/Mol_Feturizer/New_Systems/rnas/3GS8

>  <Rbt.Executable>
rbdock ($Id: //depot/dev/client3/rdock/2013.1/src/exe/rbdock.cxx#4 $)

>  <Rbt.Library>
libRbt.so (2013.1, Build901 2013/11/27)

>  <Rbt.Parameter_File>
/export/apps/rDock/src/rDock_2013.1_src/data/scripts/dock_solv.prm

>  <Rbt.Receptor>
prm/pocket_docking_3.prm

>  <SCORE>
-7.75592

>  <SCORE.INTER>
7.33511

>  <SCORE.INTER.CONST>
1

>  <SCORE.INTER.POLAR>
0

>  <SCORE.INTER.ROT>
9

>  <SCORE.INTER.SOLV>
6.37316

>  <SCORE.INTER.VDW>
-6.83432

>  <SCORE.INTER.norm>
0.564239

>  <SCORE.INTRA>
-15.091

>  <SCORE.INTRA.DIHEDRAL>
-30.8967

>  <SCORE.INTRA.DIHEDRAL.0>
31.9578

>  <SCORE.INTRA.POLAR>
0

>  <SCORE.INTRA.POLAR.0>
0

>  <SCORE.INTRA.REPUL>
0

>  <SCORE.INTRA.REPUL.0>
0

>  <SCORE.INTRA.SOLV>
-1.12112

>  <SCORE.INTRA.SOLV.lig_0>
-48.4032

>  <SCORE.INTRA.VDW>
0.917904

>  <SCORE.INTRA.VDW.0>
-1.65238

>  <SCORE.INTRA.norm>
-1.16085

>  <SCORE.RESTR>
0

>  <SCORE.RESTR.CAVITY>
0

>  <SCORE.RESTR.norm>
0

>  <SCORE.SYSTEM>
0

>  <SCORE.SYSTEM.CONST>
0

>  <SCORE.SYSTEM.DIHEDRAL>
0

>  <SCORE.SYSTEM.SOLV>
0

>  <SCORE.SYSTEM.norm>
0

>  <SCORE.heavy>
13

>  <SCORE.norm>
-0.596609

>  <RMSD>
6.647

$$$$
ligand
 OpenBabel11021811473D
libRbt.so/2013.1/901 2013/11/27
 13 12  0  0  0  0  0  0  0  0999 V2000
   36.6675   31.3808   48.0651 O   0  0  0  0  0  0  0  0  0  0  0  0
   35.3355   31.3594   50.5786 O   0  0  0  0  0  0  0  0  0  0  0  0
   36.2762   31.0360   43.0187 P   0  0  1  0  0  0  0  0  0  0  0  0
   37.3953   30.7111   42.0683 O   0  5  0  0  0  0  0  0  0  0  0  0
   34.8494   30.9873   42.7849 O   0  0  0  0  0  0  0  0  0  0  0  0
   36.8965   30.6671   44.4618 O   0  0  0  0  0  0  0  0  0  0  0  0
   32.6298   32.3073   50.4445 O   0  0  0  0  0  0  0  0  0  0  0  0
   36.3911   31.2530   45.6812 C   0  0  0  0  0  0  0  0  0  0  0  0
   36.7563   31.5900   50.5139 C   0  0  0  0  0  0  0  0  0  0  0  0
   33.1829   31.7678   51.6581 C   0  0  0  0  0  0  0  0  0  0  0  0
   37.2009   30.7636   46.8909 C   0  0  0  0  0  0  0  0  0  0  0  0
   37.3504   30.9266   49.2496 C   0  0  0  0  0  0  0  0  0  0  0  0
   34.7098   32.0113   51.6978 C   0  0  0  0  0  0  0  0  0  0  0  0
  1 12  1  0  0  0  0
  1 11  1  0  0  0  0
  2 13  1  0  0  0  0
  2  9  1  0  0  0  0
  3  4  1  6  0  0  0
  3  5  2  0  0  0  0
  3  6  1  0  0  0  0
  6  8  1  0  0  0  0
  7 10  1  0  0  0  0
  8 11  1  0  0  0  0
  9 12  1  0  0  0  0
 10 13  1  0  0  0  0
M  CHG  1   4  -1
M  END
>  <CHROM.1>
-179.45082741,177.44565124,156.92611697,-177.83051700,179.51836203,-176.95557814
54.98811095,-60.54111253,177.84301057,35.84468481,31.26596440,47.05298003
-1.80173700,0.18920253,-1.63722340

>  <Name>
ligand

>  <RI>
0

>  <Rbt.Current_Directory>
/home/itssahil/PROJECTS/Mol_Feturizer/New_Systems/rnas/3GS8

>  <Rbt.Executable>
rbdock ($Id: //depot/dev/client3/rdock/2013.1/src/exe/rbdock.cxx#4 $)

>  <Rbt.Library>
libRbt.so (2013.1, Build901 2013/11/27)

>  <Rbt.Parameter_File>
/export/apps/rDock/src/rDock_2013.1_src/data/scripts/dock_solv.prm

>  <Rbt.Receptor>
prm/pocket_docking_7.prm

>  <SCORE>
-15.6933

>  <SCORE.INTER>
0.597466

>  <SCORE.INTER.CONST>
1

>  <SCORE.INTER.POLAR>
0

>  <SCORE.INTER.ROT>
9

>  <SCORE.INTER.SOLV>
9.50177

>  <SCORE.INTER.VDW>
-12.3689

>  <SCORE.INTER.norm>
0.045959

>  <SCORE.INTRA>
-16.2908

>  <SCORE.INTRA.DIHEDRAL>
-31.4245

>  <SCORE.INTRA.DIHEDRAL.0>
31.9578

>  <SCORE.INTRA.POLAR>
0

>  <SCORE.INTRA.POLAR.0>
0

>  <SCORE.INTRA.REPUL>
0

>  <SCORE.INTRA.REPUL.0>
0

>  <SCORE.INTRA.SOLV>
-1.57619

>  <SCORE.INTRA.SOLV.lig_0>
-48.4032

>  <SCORE.INTRA.VDW>
0.20957

>  <SCORE.INTRA.VDW.0>
-1.65238

>  <SCORE.INTRA.norm>
-1.25314

>  <SCORE.RESTR>
0

>  <SCORE.RESTR.CAVITY>
0

>  <SCORE.RESTR.norm>
0

>  <SCORE.SYSTEM>
0

>  <SCORE.SYSTEM.CONST>
0

>  <SCORE.SYSTEM.DIHEDRAL>
0

>  <SCORE.SYSTEM.SOLV>
0

>  <SCORE.SYSTEM.norm>
0

>  <SCORE.heavy>
13

>  <SCORE.norm>
-1.20718

>  <RMSD>
6.652

$$$$
ligand
 OpenBabel11021811473D
libRbt.so/2013.1/901 2013/11/27
 13 12  0  0  0  0  0  0  0  0999 V2000
   30.1074   32.4833   47.6541 O   0  0  0  0  0  0  0  0  0  0  0  0
   31.6928   33.1028   44.3570 O   0  0  0  0  0  0  0  0  0  0  0  0
   29.8375   30.0735   51.2556 P   0  0  1  0  0  0  0  0  0  0  0  0
   30.9972   30.8853   51.7628 O   0  5  0  0  0  0  0  0  0  0  0  0
   28.7621   29.4656   52.0085 O   0  0  0  0  0  0  0  0  0  0  0  0
   29.5856   30.6700   49.7778 O   0  0  0  0  0  0  0  0  0  0  0  0
   34.3606   33.3225   41.8017 O   0  0  0  0  0  0  0  0  0  0  0  0
   28.7849   31.8518   49.5589 C   0  0  0  0  0  0  0  0  0  0  0  0
   31.6312   32.9933   45.7924 C   0  0  0  0  0  0  0  0  0  0  0  0
   33.0184   33.2166   42.3087 C   0  0  0  0  0  0  0  0  0  0  0  0
   28.7642   32.2209   48.0682 C   0  0  0  0  0  0  0  0  0  0  0  0
   30.1655   32.8210   46.2548 C   0  0  0  0  0  0  0  0  0  0  0  0
   33.0392   33.1623   43.8543 C   0  0  0  0  0  0  0  0  0  0  0  0
  1 12  1  0  0  0  0
  1 11  1  0  0  0  0
  2 13  1  0  0  0  0
  2  9  1  0  0  0  0
  3  4  1  1  0  0  0
  3  5  2  0  0  0  0
  3  6  1  0  0  0  0
  6  8  1  0  0  0  0
  7 10  1  0  0  0  0
  8 11  1  0  0  0  0
  9 12  1  0  0  0  0
 10 13  1  0  0  0  0
M  CHG  1   4  -1
M  END
>  <CHROM.1>
-175.53651455,177.55460252,-84.14333316,177.68210459,-60.60001993,-175.50573293
170.19302393,178.03485827,179.25775043,30.75237120,31.84388515,47.62119664
1.96945993,-0.26642034,2.02441134

>  <Name>
ligand

>  <RI>
0

>  <Rbt.Current_Directory>
/home/itssahil/PROJECTS/Mol_Feturizer/New_Systems/rnas/3GS8

>  <Rbt.Executable>
rbdock ($Id: //depot/dev/client3/rdock/2013.1/src/exe/rbdock.cxx#4 $)

>  <Rbt.Library>
libRbt.so (2013.1, Build901 2013/11/27)

>  <Rbt.Parameter_File>
/export/apps/rDock/src/rDock_2013.1_src/data/scripts/dock_solv.prm

>  <Rbt.Receptor>
prm/pocket_docking_8.prm

>  <SCORE>
-11.9853

>  <SCORE.INTER>
4.05949

>  <SCORE.INTER.CONST>
1

>  <SCORE.INTER.POLAR>
0

>  <SCORE.INTER.ROT>
9

>  <SCORE.INTER.SOLV>
11.2565

>  <SCORE.INTER.VDW>
-10.6458

>  <SCORE.INTER.norm>
0.312268

>  <SCORE.INTRA>
-16.0448

>  <SCORE.INTRA.DIHEDRAL>
-31.0082

>  <SCORE.INTRA.DIHEDRAL.0>
31.9578

>  <SCORE.INTRA.POLAR>
0

>  <SCORE.INTRA.POLAR.0>
0

>  <SCORE.INTRA.REPUL>
0

>  <SCORE.INTRA.REPUL.0>
0

>  <SCORE.INTRA.SOLV>
-1.59

>  <SCORE.INTRA.SOLV.lig_0>
-48.4032

>  <SCORE.INTRA.VDW>
0.254319

>  <SCORE.INTRA.VDW.0>
-1.65238

>  <SCORE.INTRA.norm>
-1.23421

>  <SCORE.RESTR>
0

>  <SCORE.RESTR.CAVITY>
0

>  <SCORE.RESTR.norm>
0

>  <SCORE.SYSTEM>
0

>  <SCORE.SYSTEM.CONST>
0

>  <SCORE.SYSTEM.DIHEDRAL>
0

>  <SCORE.SYSTEM.SOLV>
0

>  <SCORE.SYSTEM.norm>
0

>  <SCORE.heavy>
13

>  <SCORE.norm>
-0.921945

>  <RMSD>
6.653

$$$$
ligand
 OpenBabel11021811473D
libRbt.so/2013.1/901 2013/11/27
 13 12  0  0  0  0  0  0  0  0999 V2000
   32.5592   32.8726   48.0399 O   0  0  0  0  0  0  0  0  0  0  0  0
   35.1285   31.8839   48.8410 O   0  0  0  0  0  0  0  0  0  0  0  0
   28.2743   33.2808   46.6088 P   0  0  1  0  0  0  0  0  0  0  0  0
   28.1058   32.7225   47.9948 O   0  5  0  0  0  0  0  0  0  0  0  0
   27.9830   34.6146   46.1304 O   0  0  0  0  0  0  0  0  0  0  0  0
   29.5157   32.4368   46.0174 O   0  0  0  0  0  0  0  0  0  0  0  0
   36.9564   31.2450   46.6898 O   0  0  0  0  0  0  0  0  0  0  0  0
   30.8852   32.7833   46.3178 C   0  0  0  0  0  0  0  0  0  0  0  0
   34.4276   32.8575   49.6390 C   0  0  0  0  0  0  0  0  0  0  0  0
   37.2342   30.9206   48.0636 C   0  0  0  0  0  0  0  0  0  0  0  0
   31.1824   32.5642   47.8086 C   0  0  0  0  0  0  0  0  0  0  0  0
   32.9011   32.7225   49.4314 C   0  0  0  0  0  0  0  0  0  0  0  0
   36.5569   31.9504   48.9979 C   0  0  0  0  0  0  0  0  0  0  0  0
  1 12  1  0  0  0  0
  1 11  1  0  0  0  0
  2 13  1  0  0  0  0
  2  9  1  0  0  0  0
  3  4  1  1  0  0  0
  3  5  2  0  0  0  0
  3  6  1  0  0  0  0
  6  8  1  0  0  0  0
  7 10  1  0  0  0  0
  8 11  1  0  0  0  0
  9 12  1  0  0  0  0
 10 13  1  0  0  0  0
M  CHG  1   4  -1
M  END
>  <CHROM.1>
171.81279403,-177.45354473,-81.80745828,66.45085789,177.83721240,-179.53527717
-57.42492138,63.02110108,178.47030163,32.06395292,32.59348137,47.62108117
0.16393275,-0.24665245,1.38278937

>  <Name>
ligand

>  <RI>
0

>  <Rbt.Current_Directory>
/home/itssahil/PROJECTS/Mol_Feturizer/New_Systems/rnas/3GS8

>  <Rbt.Executable>
rbdock ($Id: //depot/dev/client3/rdock/2013.1/src/exe/rbdock.cxx#4 $)

>  <Rbt.Library>
libRbt.so (2013.1, Build901 2013/11/27)

>  <Rbt.Parameter_File>
/export/apps/rDock/src/rDock_2013.1_src/data/scripts/dock_solv.prm

>  <Rbt.Receptor>
prm/pocket_docking_4.prm

>  <SCORE>
-12.3919

>  <SCORE.INTER>
2.6389

>  <SCORE.INTER.CONST>
1

>  <SCORE.INTER.POLAR>
0

>  <SCORE.INTER.ROT>
9

>  <SCORE.INTER.SOLV>
8.49542

>  <SCORE.INTER.VDW>
-10.6725

>  <SCORE.INTER.norm>
0.202992

>  <SCORE.INTRA>
-15.0312

>  <SCORE.INTRA.DIHEDRAL>
-31.0059

>  <SCORE.INTRA.DIHEDRAL.0>
31.9578

>  <SCORE.INTRA.POLAR>
0

>  <SCORE.INTRA.POLAR.0>
0

>  <SCORE.INTRA.REPUL>
0

>  <SCORE.INTRA.REPUL.0>
0

>  <SCORE.INTRA.SOLV>
0.361011

>  <SCORE.INTRA.SOLV.lig_0>
-48.4032

>  <SCORE.INTRA.VDW>
0.291254

>  <SCORE.INTRA.VDW.0>
-1.65238

>  <SCORE.INTRA.norm>
-1.15625

>  <SCORE.RESTR>
0.000379011

>  <SCORE.RESTR.CAVITY>
0.000379011

>  <SCORE.RESTR.norm>
2.91547e-05

>  <SCORE.SYSTEM>
0

>  <SCORE.SYSTEM.CONST>
0

>  <SCORE.SYSTEM.DIHEDRAL>
0

>  <SCORE.SYSTEM.SOLV>
0

>  <SCORE.SYSTEM.norm>
0

>  <SCORE.heavy>
13

>  <SCORE.norm>
-0.953225

>  <RMSD>
6.685

$$$$
ligand
 OpenBabel11021811473D
libRbt.so/2013.1/901 2013/11/27
 13 12  0  0  0  0  0  0  0  0999 V2000
   32.6533   33.6604   48.7512 O   0  0  0  0  0  0  0  0  0  0  0  0
   35.0980   32.4586   47.8349 O   0  0  0  0  0  0  0  0  0  0  0  0
   30.4291   37.2673   47.6616 P   0  0  1  0  0  0  0  0  0  0  0  0
   30.8783   38.4039   48.5375 O   0  5  0  0  0  0  0  0  0  0  0  0
   30.2093   37.2607   46.2317 O   0  0  0  0  0  0  0  0  0  0  0  0
   31.0018   35.9645   48.4218 O   0  0  0  0  0  0  0  0  0  0  0  0
   36.0238   30.9248   45.5816 O   0  0  0  0  0  0  0  0  0  0  0  0
   30.5562   34.6312   48.0908 C   0  0  0  0  0  0  0  0  0  0  0  0
   34.8773   32.7278   49.2330 C   0  0  0  0  0  0  0  0  0  0  0  0
   36.6426   32.1655   45.9655 C   0  0  0  0  0  0  0  0  0  0  0  0
   31.2450   33.5936   48.9894 C   0  0  0  0  0  0  0  0  0  0  0  0
   33.3645   32.6976   49.5528 C   0  0  0  0  0  0  0  0  0  0  0  0
   36.4923   32.3825   47.4895 C   0  0  0  0  0  0  0  0  0  0  0  0
  1 12  1  0  0  0  0
  1 11  1  0  0  0  0
  2 13  1  0  0  0  0
  2  9  1  0  0  0  0
  3  4  1  6  0  0  0
  3  5  2  0  0  0  0
  3  6  1  0  0  0  0
  6  8  1  0  0  0  0
  7 10  1  0  0  0  0
  8 11  1  0  0  0  0
  9 12  1  0  0  0  0
 10 13  1  0  0  0  0
M  CHG  1   4  -1
M  END
>  <CHROM.1>
177.03566957,-177.06423270,166.06072007,-178.83531595,-61.91827929,-176.02860660
-58.17269325,-61.42903314,-179.28193082,32.80502120,34.44797698,47.83796719
0.33938476,-0.70965738,2.19506955

>  <Name>
ligand

>  <RI>
0

>  <Rbt.Current_Directory>
/home/itssahil/PROJECTS/Mol_Feturizer/New_Systems/rnas/3GS8

>  <Rbt.Executable>
rbdock ($Id: //depot/dev/client3/rdock/2013.1/src/exe/rbdock.cxx#4 $)

>  <Rbt.Library>
libRbt.so (2013.1, Build901 2013/11/27)

>  <Rbt.Parameter_File>
/export/apps/rDock/src/rDock_2013.1_src/data/scripts/dock_solv.prm

>  <Rbt.Receptor>
prm/pocket_docking_3.prm

>  <SCORE>
-7.74293

>  <SCORE.INTER>
8.64162

>  <SCORE.INTER.CONST>
1

>  <SCORE.INTER.POLAR>
0

>  <SCORE.INTER.ROT>
9

>  <SCORE.INTER.SOLV>
3.27363

>  <SCORE.INTER.VDW>
-4.93013

>  <SCORE.INTER.norm>
0.66474

>  <SCORE.INTRA>
-16.3845

>  <SCORE.INTRA.DIHEDRAL>
-31.465

>  <SCORE.INTRA.DIHEDRAL.0>
31.9578

>  <SCORE.INTRA.POLAR>
0

>  <SCORE.INTRA.POLAR.0>
0

>  <SCORE.INTRA.REPUL>
0

>  <SCORE.INTRA.REPUL.0>
0

>  <SCORE.INTRA.SOLV>
-1.45589

>  <SCORE.INTRA.SOLV.lig_0>
-48.4032

>  <SCORE.INTRA.VDW>
0.0759005

>  <SCORE.INTRA.VDW.0>
-1.65238

>  <SCORE.INTRA.norm>
-1.26035

>  <SCORE.RESTR>
0

>  <SCORE.RESTR.CAVITY>
0

>  <SCORE.RESTR.norm>
0

>  <SCORE.SYSTEM>
0

>  <SCORE.SYSTEM.CONST>
0

>  <SCORE.SYSTEM.DIHEDRAL>
0

>  <SCORE.SYSTEM.SOLV>
0

>  <SCORE.SYSTEM.norm>
0

>  <SCORE.heavy>
13

>  <SCORE.norm>
-0.59561

>  <RMSD>
6.704

$$$$
ligand
 OpenBabel11021811473D
libRbt.so/2013.1/901 2013/11/27
 13 12  0  0  0  0  0  0  0  0999 V2000
   32.1763   32.8877   45.6498 O   0  0  0  0  0  0  0  0  0  0  0  0
   34.7414   32.0259   44.7338 O   0  0  0  0  0  0  0  0  0  0  0  0
   30.9533   34.1292   49.6212 P   0  0  1  0  0  0  0  0  0  0  0  0
   31.5111   32.8586   50.2003 O   0  5  0  0  0  0  0  0  0  0  0  0
   30.9768   35.4635   50.1798 O   0  0  0  0  0  0  0  0  0  0  0  0
   31.0643   33.8912   48.0292 O   0  0  0  0  0  0  0  0  0  0  0  0
   36.5864   31.2767   46.8064 O   0  0  0  0  0  0  0  0  0  0  0  0
   30.5363   32.7049   47.3971 C   0  0  0  0  0  0  0  0  0  0  0  0
   33.9985   33.0215   44.0037 C   0  0  0  0  0  0  0  0  0  0  0  0
   36.8872   31.0776   45.4138 C   0  0  0  0  0  0  0  0  0  0  0  0
   30.7717   32.7516   45.8802 C   0  0  0  0  0  0  0  0  0  0  0  0
   32.4813   32.8408   44.2426 C   0  0  0  0  0  0  0  0  0  0  0  0
   36.1643   32.1443   44.5584 C   0  0  0  0  0  0  0  0  0  0  0  0
  1 12  1  0  0  0  0
  1 11  1  0  0  0  0
  2 13  1  0  0  0  0
  2  9  1  0  0  0  0
  3  4  1  1  0  0  0
  3  5  2  0  0  0  0
  3  6  1  0  0  0  0
  6  8  1  0  0  0  0
  7 10  1  0  0  0  0
  8 11  1  0  0  0  0
  9 12  1  0  0  0  0
 10 13  1  0  0  0  0
M  CHG  1   4  -1
M  END
>  <CHROM.1>
178.69398589,177.86206669,51.79060634,179.52135438,57.59666194,-179.70508261
56.31865615,-60.96788978,175.81326844,32.81686003,32.96642358,46.95943353
0.76149194,0.32611644,-1.70775105

>  <Name>
ligand

>  <RI>
0

>  <Rbt.Current_Directory>
/home/itssahil/PROJECTS/Mol_Feturizer/New_Systems/rnas/3GS8

>  <Rbt.Executable>
rbdock ($Id: //depot/dev/client3/rdock/2013.1/src/exe/rbdock.cxx#4 $)

>  <Rbt.Library>
libRbt.so (2013.1, Build901 2013/11/27)

>  <Rbt.Parameter_File>
/export/apps/rDock/src/rDock_2013.1_src/data/scripts/dock_solv.prm

>  <Rbt.Receptor>
prm/pocket_docking_3.prm

>  <SCORE>
-10.6136

>  <SCORE.INTER>
5.43017

>  <SCORE.INTER.CONST>
1

>  <SCORE.INTER.POLAR>
0

>  <SCORE.INTER.ROT>
9

>  <SCORE.INTER.SOLV>
5.82793

>  <SCORE.INTER.VDW>
-7.92253

>  <SCORE.INTER.norm>
0.417705

>  <SCORE.INTRA>
-16.0437

>  <SCORE.INTRA.DIHEDRAL>
-31.433

>  <SCORE.INTRA.DIHEDRAL.0>
31.9578

>  <SCORE.INTRA.POLAR>
0

>  <SCORE.INTRA.POLAR.0>
0

>  <SCORE.INTRA.REPUL>
0

>  <SCORE.INTRA.REPUL.0>
0

>  <SCORE.INTRA.SOLV>
-1.19522

>  <SCORE.INTRA.SOLV.lig_0>
-48.4032

>  <SCORE.INTRA.VDW>
0.270348

>  <SCORE.INTRA.VDW.0>
-1.65238

>  <SCORE.INTRA.norm>
-1.23413

>  <SCORE.RESTR>
0

>  <SCORE.RESTR.CAVITY>
0

>  <SCORE.RESTR.norm>
0

>  <SCORE.SYSTEM>
0

>  <SCORE.SYSTEM.CONST>
0

>  <SCORE.SYSTEM.DIHEDRAL>
0

>  <SCORE.SYSTEM.SOLV>
0

>  <SCORE.SYSTEM.norm>
0

>  <SCORE.heavy>
13

>  <SCORE.norm>
-0.816429

>  <RMSD>
6.706

$$$$
ligand
 OpenBabel11021811473D
libRbt.so/2013.1/901 2013/11/27
 13 12  0  0  0  0  0  0  0  0999 V2000
   36.5977   31.4012   47.8344 O   0  0  0  0  0  0  0  0  0  0  0  0
   36.2007   31.3800   51.5306 O   0  0  0  0  0  0  0  0  0  0  0  0
   35.0765   31.9073   43.9721 P   0  0  1  0  0  0  0  0  0  0  0  0
   35.6358   31.1238   42.8169 O   0  5  0  0  0  0  0  0  0  0  0  0
   33.8092   32.5987   44.0658 O   0  0  0  0  0  0  0  0  0  0  0  0
   35.7286   31.1861   45.2597 O   0  0  0  0  0  0  0  0  0  0  0  0
   34.8781   34.0264   53.7502 O   0  0  0  0  0  0  0  0  0  0  0  0
   37.1518   31.2038   45.5041 C   0  0  0  0  0  0  0  0  0  0  0  0
   35.9240   31.7683   50.1710 C   0  0  0  0  0  0  0  0  0  0  0  0
   35.6889   33.4589   52.7061 C   0  0  0  0  0  0  0  0  0  0  0  0
   37.4611   30.7127   46.9261 C   0  0  0  0  0  0  0  0  0  0  0  0
   36.8889   31.0481   49.2004 C   0  0  0  0  0  0  0  0  0  0  0  0
   35.3020   31.9785   52.4810 C   0  0  0  0  0  0  0  0  0  0  0  0
  1 12  1  0  0  0  0
  1 11  1  0  0  0  0
  2 13  1  0  0  0  0
  2  9  1  0  0  0  0
  3  4  1  6  0  0  0
  3  5  2  0  0  0  0
  3  6  1  0  0  0  0
  6  8  1  0  0  0  0
  7 10  1  0  0  0  0
  8 11  1  0  0  0  0
  9 12  1  0  0  0  0
 10 13  1  0  0  0  0
M  CHG  1   4  -1
M  END
>  <CHROM.1>
-178.43910776,-76.31036816,64.83770387,167.97570623,-48.31551431,-177.80038336
178.44165126,-174.40632408,-176.50768457,35.78638911,31.84333287,47.79845031
-1.60101210,-0.67237306,1.42364344

>  <Name>
ligand

>  <RI>
0

>  <Rbt.Current_Directory>
/home/itssahil/PROJECTS/Mol_Feturizer/New_Systems/rnas/3GS8

>  <Rbt.Executable>
rbdock ($Id: //depot/dev/client3/rdock/2013.1/src/exe/rbdock.cxx#4 $)

>  <Rbt.Library>
libRbt.so (2013.1, Build901 2013/11/27)

>  <Rbt.Parameter_File>
/export/apps/rDock/src/rDock_2013.1_src/data/scripts/dock_solv.prm

>  <Rbt.Receptor>
prm/pocket_docking_7.prm

>  <SCORE>
-12.7424

>  <SCORE.INTER>
1.2294

>  <SCORE.INTER.CONST>
1

>  <SCORE.INTER.POLAR>
0

>  <SCORE.INTER.ROT>
9

>  <SCORE.INTER.SOLV>
8.03273

>  <SCORE.INTER.VDW>
-11.458

>  <SCORE.INTER.norm>
0.0945691

>  <SCORE.INTRA>
-13.9718

>  <SCORE.INTRA.DIHEDRAL>
-28.7361

>  <SCORE.INTRA.DIHEDRAL.0>
31.9578

>  <SCORE.INTRA.POLAR>
0

>  <SCORE.INTRA.POLAR.0>
0

>  <SCORE.INTRA.REPUL>
0

>  <SCORE.INTRA.REPUL.0>
0

>  <SCORE.INTRA.SOLV>
-1.53026

>  <SCORE.INTRA.SOLV.lig_0>
-48.4032

>  <SCORE.INTRA.VDW>
1.16139

>  <SCORE.INTRA.VDW.0>
-1.65238

>  <SCORE.INTRA.norm>
-1.07475

>  <SCORE.RESTR>
0

>  <SCORE.RESTR.CAVITY>
0

>  <SCORE.RESTR.norm>
0

>  <SCORE.SYSTEM>
0

>  <SCORE.SYSTEM.CONST>
0

>  <SCORE.SYSTEM.DIHEDRAL>
0

>  <SCORE.SYSTEM.SOLV>
0

>  <SCORE.SYSTEM.norm>
0

>  <SCORE.heavy>
13

>  <SCORE.norm>
-0.980183

>  <RMSD>
6.712

$$$$
ligand
 OpenBabel11021811473D
libRbt.so/2013.1/901 2013/11/27
 13 12  0  0  0  0  0  0  0  0999 V2000
   32.1873   32.9060   45.6991 O   0  0  0  0  0  0  0  0  0  0  0  0
   34.7748   32.0656   44.7717 O   0  0  0  0  0  0  0  0  0  0  0  0
   30.8611   33.9643   49.6971 P   0  0  1  0  0  0  0  0  0  0  0  0
   31.1899   35.4117   49.9378 O   0  5  0  0  0  0  0  0  0  0  0  0
   30.0265   33.0841   50.4855 O   0  0  0  0  0  0  0  0  0  0  0  0
   30.9267   33.8313   48.0905 O   0  0  0  0  0  0  0  0  0  0  0  0
   36.5816   31.1658   46.8228 O   0  0  0  0  0  0  0  0  0  0  0  0
   30.5211   32.6248   47.4082 C   0  0  0  0  0  0  0  0  0  0  0  0
   34.0387   33.1011   44.0921 C   0  0  0  0  0  0  0  0  0  0  0  0
   36.9136   31.0835   45.4254 C   0  0  0  0  0  0  0  0  0  0  0  0
   30.7807   32.7452   45.8992 C   0  0  0  0  0  0  0  0  0  0  0  0
   32.5189   32.9016   44.2971 C   0  0  0  0  0  0  0  0  0  0  0  0
   36.2001   32.2121   44.6446 C   0  0  0  0  0  0  0  0  0  0  0  0
  1 12  1  0  0  0  0
  1 11  1  0  0  0  0
  2 13  1  0  0  0  0
  2  9  1  0  0  0  0
  3  4  1  6  0  0  0
  3  5  2  0  0  0  0
  3  6  1  0  0  0  0
  6  8  1  0  0  0  0
  7 10  1  0  0  0  0
  8 11  1  0  0  0  0
  9 12  1  0  0  0  0
 10 13  1  0  0  0  0
M  CHG  1   4  -1
M  END
>  <CHROM.1>
179.00411680,178.74777691,-172.69228531,-176.07094880,62.26081149,-178.67253558
58.18832599,-61.32208135,174.66117794,32.70844234,32.95530486,47.00433539
0.72405679,0.30302665,-1.67455124

>  <Name>
ligand

>  <RI>
0

>  <Rbt.Current_Directory>
/home/itssahil/PROJECTS/Mol_Feturizer/New_Systems/rnas/3GS8

>  <Rbt.Executable>
rbdock ($Id: //depot/dev/client3/rdock/2013.1/src/exe/rbdock.cxx#4 $)

>  <Rbt.Library>
libRbt.so (2013.1, Build901 2013/11/27)

>  <Rbt.Parameter_File>
/export/apps/rDock/src/rDock_2013.1_src/data/scripts/dock_solv.prm

>  <Rbt.Receptor>
prm/pocket_docking_3.prm

>  <SCORE>
-10.9644

>  <SCORE.INTER>
5.14062

>  <SCORE.INTER.CONST>
1

>  <SCORE.INTER.POLAR>
0

>  <SCORE.INTER.ROT>
9

>  <SCORE.INTER.SOLV>
5.19239

>  <SCORE.INTER.VDW>
-7.90371

>  <SCORE.INTER.norm>
0.395432

>  <SCORE.INTRA>
-16.105

>  <SCORE.INTRA.DIHEDRAL>
-31.0471

>  <SCORE.INTRA.DIHEDRAL.0>
31.9578

>  <SCORE.INTRA.POLAR>
0

>  <SCORE.INTRA.POLAR.0>
0

>  <SCORE.INTRA.REPUL>
0

>  <SCORE.INTRA.REPUL.0>
0

>  <SCORE.INTRA.SOLV>
-1.36239

>  <SCORE.INTRA.SOLV.lig_0>
-48.4032

>  <SCORE.INTRA.VDW>
0.0997054

>  <SCORE.INTRA.VDW.0>
-1.65238

>  <SCORE.INTRA.norm>
-1.23885

>  <SCORE.RESTR>
0

>  <SCORE.RESTR.CAVITY>
0

>  <SCORE.RESTR.norm>
0

>  <SCORE.SYSTEM>
0

>  <SCORE.SYSTEM.CONST>
0

>  <SCORE.SYSTEM.DIHEDRAL>
0

>  <SCORE.SYSTEM.SOLV>
0

>  <SCORE.SYSTEM.norm>
0

>  <SCORE.heavy>
13

>  <SCORE.norm>
-0.843415

>  <RMSD>
6.732

$$$$
ligand
 OpenBabel11021811473D
libRbt.so/2013.1/901 2013/11/27
 13 12  0  0  0  0  0  0  0  0999 V2000
   30.6211   32.9866   46.3861 O   0  0  0  0  0  0  0  0  0  0  0  0
   32.5221   32.2949   44.2948 O   0  0  0  0  0  0  0  0  0  0  0  0
   30.2797   32.7858   50.7540 P   0  0  1  0  0  0  0  0  0  0  0  0
   31.5575   33.4852   51.1269 O   0  5  0  0  0  0  0  0  0  0  0  0
   29.1362   32.4872   51.5884 O   0  0  0  0  0  0  0  0  0  0  0  0
   30.0983   33.1523   49.1932 O   0  0  0  0  0  0  0  0  0  0  0  0
   35.5867   30.6141   43.0782 O   0  0  0  0  0  0  0  0  0  0  0  0
   29.3280   32.3198   48.2991 C   0  0  0  0  0  0  0  0  0  0  0  0
   32.1079   33.6522   44.5437 C   0  0  0  0  0  0  0  0  0  0  0  0
   34.2476   30.7144   43.5941 C   0  0  0  0  0  0  0  0  0  0  0  0
   29.2850   32.9347   46.8924 C   0  0  0  0  0  0  0  0  0  0  0  0
   30.6743   33.6779   45.1233 C   0  0  0  0  0  0  0  0  0  0  0  0
   33.8607   32.2008   43.7766 C   0  0  0  0  0  0  0  0  0  0  0  0
  1 12  1  0  0  0  0
  1 11  1  0  0  0  0
  2 13  1  0  0  0  0
  2  9  1  0  0  0  0
  3  4  1  1  0  0  0
  3  5  2  0  0  0  0
  3  6  1  0  0  0  0
  6  8  1  0  0  0  0
  7 10  1  0  0  0  0
  8 11  1  0  0  0  0
  9 12  1  0  0  0  0
 10 13  1  0  0  0  0
M  CHG  1   4  -1
M  END
>  <CHROM.1>
-176.52070639,177.63357389,155.73953753,177.98600212,62.55484918,-178.91118620
61.89211207,-179.89099364,-174.12290071,31.39397389,32.57667119,47.17951634
1.01148440,0.42292706,-1.48936673

>  <Name>
ligand

>  <RI>
0

>  <Rbt.Current_Directory>
/home/itssahil/PROJECTS/Mol_Feturizer/New_Systems/rnas/3GS8

>  <Rbt.Executable>
rbdock ($Id: //depot/dev/client3/rdock/2013.1/src/exe/rbdock.cxx#4 $)

>  <Rbt.Library>
libRbt.so (2013.1, Build901 2013/11/27)

>  <Rbt.Parameter_File>
/export/apps/rDock/src/rDock_2013.1_src/data/scripts/dock_solv.prm

>  <Rbt.Receptor>
prm/pocket_docking_4.prm

>  <SCORE>
-12.2722

>  <SCORE.INTER>
4.11585

>  <SCORE.INTER.CONST>
1

>  <SCORE.INTER.POLAR>
0

>  <SCORE.INTER.ROT>
9

>  <SCORE.INTER.SOLV>
6.09169

>  <SCORE.INTER.VDW>
-8.88667

>  <SCORE.INTER.norm>
0.316604

>  <SCORE.INTRA>
-16.388

>  <SCORE.INTRA.DIHEDRAL>
-31.3142

>  <SCORE.INTRA.DIHEDRAL.0>
31.9578

>  <SCORE.INTRA.POLAR>
0

>  <SCORE.INTRA.POLAR.0>
0

>  <SCORE.INTRA.REPUL>
0

>  <SCORE.INTRA.REPUL.0>
0

>  <SCORE.INTRA.SOLV>
-1.74091

>  <SCORE.INTRA.SOLV.lig_0>
-48.4032

>  <SCORE.INTRA.VDW>
0.139546

>  <SCORE.INTRA.VDW.0>
-1.65238

>  <SCORE.INTRA.norm>
-1.26062

>  <SCORE.RESTR>
0

>  <SCORE.RESTR.CAVITY>
0

>  <SCORE.RESTR.norm>
0

>  <SCORE.SYSTEM>
0

>  <SCORE.SYSTEM.CONST>
0

>  <SCORE.SYSTEM.DIHEDRAL>
0

>  <SCORE.SYSTEM.SOLV>
0

>  <SCORE.SYSTEM.norm>
0

>  <SCORE.heavy>
13

>  <SCORE.norm>
-0.944013

>  <RMSD>
6.732

$$$$
ligand
 OpenBabel11021811473D
libRbt.so/2013.1/901 2013/11/27
 13 12  0  0  0  0  0  0  0  0999 V2000
   36.1445   31.6627   47.1774 O   0  0  0  0  0  0  0  0  0  0  0  0
   35.8307   32.7266   50.7094 O   0  0  0  0  0  0  0  0  0  0  0  0
   34.9225   30.6902   43.1228 P   0  0  1  0  0  0  0  0  0  0  0  0
   34.1841   31.9997   43.1566 O   0  5  0  0  0  0  0  0  0  0  0  0
   35.5594   30.0409   41.9978 O   0  0  0  0  0  0  0  0  0  0  0  0
   35.5383   30.5733   44.6095 O   0  0  0  0  0  0  0  0  0  0  0  0
   35.5235   32.8043   53.5895 O   0  0  0  0  0  0  0  0  0  0  0  0
   36.8356   31.1137   44.9420 C   0  0  0  0  0  0  0  0  0  0  0  0
   35.3645   32.4385   49.3769 C   0  0  0  0  0  0  0  0  0  0  0  0
   36.4713   31.9440   52.9328 C   0  0  0  0  0  0  0  0  0  0  0  0
   37.1277   30.9331   46.4390 C   0  0  0  0  0  0  0  0  0  0  0  0
   36.4446   31.6637   48.5865 C   0  0  0  0  0  0  0  0  0  0  0  0
   35.9476   31.5519   51.5313 C   0  0  0  0  0  0  0  0  0  0  0  0
  1 12  1  0  0  0  0
  1 11  1  0  0  0  0
  2 13  1  0  0  0  0
  2  9  1  0  0  0  0
  3  4  1  6  0  0  0
  3  5  2  0  0  0  0
  3  6  1  0  0  0  0
  6  8  1  0  0  0  0
  7 10  1  0  0  0  0
  8 11  1  0  0  0  0
  9 12  1  0  0  0  0
 10 13  1  0  0  0  0
M  CHG  1   4  -1
M  END
>  <CHROM.1>
-179.20678523,179.18007243,-89.22268233,176.61734087,-61.99084129,-68.97909919
-165.51328607,63.34227313,-173.44993924,35.74353876,31.48523655,47.15813999
-1.48439782,0.50651849,-1.78320286

>  <Name>
ligand

>  <RI>
0

>  <Rbt.Current_Directory>
/home/itssahil/PROJECTS/Mol_Feturizer/New_Systems/rnas/3GS8

>  <Rbt.Executable>
rbdock ($Id: //depot/dev/client3/rdock/2013.1/src/exe/rbdock.cxx#4 $)

>  <Rbt.Library>
libRbt.so (2013.1, Build901 2013/11/27)

>  <Rbt.Parameter_File>
/export/apps/rDock/src/rDock_2013.1_src/data/scripts/dock_solv.prm

>  <Rbt.Receptor>
prm/pocket_docking_7.prm

>  <SCORE>
-13.2293

>  <SCORE.INTER>
1.25962

>  <SCORE.INTER.CONST>
1

>  <SCORE.INTER.POLAR>
0

>  <SCORE.INTER.ROT>
9

>  <SCORE.INTER.SOLV>
11.2431

>  <SCORE.INTER.VDW>
-12.508

>  <SCORE.INTER.norm>
0.0968936

>  <SCORE.INTRA>
-14.4889

>  <SCORE.INTRA.DIHEDRAL>
-30.0893

>  <SCORE.INTRA.DIHEDRAL.0>
31.9578

>  <SCORE.INTRA.POLAR>
0

>  <SCORE.INTRA.POLAR.0>
0

>  <SCORE.INTRA.REPUL>
0

>  <SCORE.INTRA.REPUL.0>
0

>  <SCORE.INTRA.SOLV>
-1.31259

>  <SCORE.INTRA.SOLV.lig_0>
-48.4032

>  <SCORE.INTRA.VDW>
1.21203

>  <SCORE.INTRA.VDW.0>
-1.65238

>  <SCORE.INTRA.norm>
-1.11453

>  <SCORE.RESTR>
0

>  <SCORE.RESTR.CAVITY>
0

>  <SCORE.RESTR.norm>
0

>  <SCORE.SYSTEM>
0

>  <SCORE.SYSTEM.CONST>
0

>  <SCORE.SYSTEM.DIHEDRAL>
0

>  <SCORE.SYSTEM.SOLV>
0

>  <SCORE.SYSTEM.norm>
0

>  <SCORE.heavy>
13

>  <SCORE.norm>
-1.01764

>  <RMSD>
6.735

$$$$
ligand
 OpenBabel11021811473D
libRbt.so/2013.1/901 2013/11/27
 13 12  0  0  0  0  0  0  0  0999 V2000
   32.1061   33.4990   45.4645 O   0  0  0  0  0  0  0  0  0  0  0  0
   34.3731   32.1753   44.2575 O   0  0  0  0  0  0  0  0  0  0  0  0
   30.4473   35.2926   47.8771 P   0  0  1  0  0  0  0  0  0  0  0  0
   31.1375   35.3895   49.2094 O   0  5  0  0  0  0  0  0  0  0  0  0
   30.7065   36.0442   46.6684 O   0  0  0  0  0  0  0  0  0  0  0  0
   29.9781   33.7502   47.8138 O   0  0  0  0  0  0  0  0  0  0  0  0
   36.2971   31.2256   46.1087 O   0  0  0  0  0  0  0  0  0  0  0  0
   30.8624   32.7023   47.3604 C   0  0  0  0  0  0  0  0  0  0  0  0
   33.0885   32.2218   43.6066 C   0  0  0  0  0  0  0  0  0  0  0  0
   36.4704   31.0035   44.6979 C   0  0  0  0  0  0  0  0  0  0  0  0
   30.9693   32.7120   45.8283 C   0  0  0  0  0  0  0  0  0  0  0  0
   32.3136   33.4884   44.0389 C   0  0  0  0  0  0  0  0  0  0  0  0
   35.0928   30.9576   43.9962 C   0  0  0  0  0  0  0  0  0  0  0  0
  1 12  1  0  0  0  0
  1 11  1  0  0  0  0
  2 13  1  0  0  0  0
  2  9  1  0  0  0  0
  3  4  1  1  0  0  0
  3  5  2  0  0  0  0
  3  6  1  0  0  0  0
  6  8  1  0  0  0  0
  7 10  1  0  0  0  0
  8 11  1  0  0  0  0
  9 12  1  0  0  0  0
 10 13  1  0  0  0  0
M  CHG  1   4  -1
M  END
>  <CHROM.1>
-82.76023585,178.52511441,-84.62456130,-77.46705041,93.71156848,174.46111382
-59.77153354,56.75865151,176.65892495,32.42069545,33.31931596,46.11234058
0.64621195,0.49986858,-1.82700931

>  <Name>
ligand

>  <RI>
0

>  <Rbt.Current_Directory>
/home/itssahil/PROJECTS/Mol_Feturizer/New_Systems/rnas/3GS8

>  <Rbt.Executable>
rbdock ($Id: //depot/dev/client3/rdock/2013.1/src/exe/rbdock.cxx#4 $)

>  <Rbt.Library>
libRbt.so (2013.1, Build901 2013/11/27)

>  <Rbt.Parameter_File>
/export/apps/rDock/src/rDock_2013.1_src/data/scripts/dock_solv.prm

>  <Rbt.Receptor>
prm/pocket_docking_3.prm

>  <SCORE>
-6.86367

>  <SCORE.INTER>
4.16019

>  <SCORE.INTER.CONST>
1

>  <SCORE.INTER.POLAR>
0

>  <SCORE.INTER.ROT>
9

>  <SCORE.INTER.SOLV>
6.64017

>  <SCORE.INTER.VDW>
-9.03993

>  <SCORE.INTER.norm>
0.320014

>  <SCORE.INTRA>
-11.0239

>  <SCORE.INTRA.DIHEDRAL>
-24.4104

>  <SCORE.INTRA.DIHEDRAL.0>
31.9578

>  <SCORE.INTRA.POLAR>
0

>  <SCORE.INTRA.POLAR.0>
0

>  <SCORE.INTRA.REPUL>
0

>  <SCORE.INTRA.REPUL.0>
0

>  <SCORE.INTRA.SOLV>
2.10056

>  <SCORE.INTRA.SOLV.lig_0>
-48.4032

>  <SCORE.INTRA.VDW>
0.131075

>  <SCORE.INTRA.VDW.0>
-1.65238

>  <SCORE.INTRA.norm>
-0.847989

>  <SCORE.RESTR>
0

>  <SCORE.RESTR.CAVITY>
0

>  <SCORE.RESTR.norm>
0

>  <SCORE.SYSTEM>
0

>  <SCORE.SYSTEM.CONST>
0

>  <SCORE.SYSTEM.DIHEDRAL>
0

>  <SCORE.SYSTEM.SOLV>
0

>  <SCORE.SYSTEM.norm>
0

>  <SCORE.heavy>
13

>  <SCORE.norm>
-0.527975

>  <RMSD>
6.753

$$$$
ligand
 OpenBabel11021811473D
libRbt.so/2013.1/901 2013/11/27
 13 12  0  0  0  0  0  0  0  0999 V2000
   31.4019   31.9557   50.3510 O   0  0  0  0  0  0  0  0  0  0  0  0
   34.5238   31.6828   52.3456 O   0  0  0  0  0  0  0  0  0  0  0  0
   28.9523   32.8386   46.9139 P   0  0  1  0  0  0  0  0  0  0  0  0
   27.6695   32.0711   46.7518 O   0  5  0  0  0  0  0  0  0  0  0  0
   29.2052   34.2400   46.6591 O   0  0  0  0  0  0  0  0  0  0  0  0
   29.6992   32.0630   48.1155 O   0  0  0  0  0  0  0  0  0  0  0  0
   37.9221   32.4868   53.5708 O   0  0  0  0  0  0  0  0  0  0  0  0
   29.1719   32.0523   49.4600 C   0  0  0  0  0  0  0  0  0  0  0  0
   33.6843   32.1073   51.2543 C   0  0  0  0  0  0  0  0  0  0  0  0
   36.6303   31.8536   53.5701 C   0  0  0  0  0  0  0  0  0  0  0  0
   30.1267   31.3117   50.4080 C   0  0  0  0  0  0  0  0  0  0  0  0
   32.2975   31.4295   51.3493 C   0  0  0  0  0  0  0  0  0  0  0  0
   35.8273   32.2907   52.3226 C   0  0  0  0  0  0  0  0  0  0  0  0
  1 12  1  0  0  0  0
  1 11  1  0  0  0  0
  2 13  1  0  0  0  0
  2  9  1  0  0  0  0
  3  4  1  1  0  0  0
  3  5  2  0  0  0  0
  3  6  1  0  0  0  0
  6  8  1  0  0  0  0
  7 10  1  0  0  0  0
  8 11  1  0  0  0  0
  9 12  1  0  0  0  0
 10 13  1  0  0  0  0
M  CHG  1   4  -1
M  END
>  <CHROM.1>
178.53078501,176.44913817,-66.00101184,-176.66073299,57.65177693,-179.36963218
173.70214331,-178.47556009,172.13964849,31.81450641,32.24900754,49.93576286
2.59217806,-0.37639183,-0.92159102

>  <Name>
ligand

>  <RI>
0

>  <Rbt.Current_Directory>
/home/itssahil/PROJECTS/Mol_Feturizer/New_Systems/rnas/3GS8

>  <Rbt.Executable>
rbdock ($Id: //depot/dev/client3/rdock/2013.1/src/exe/rbdock.cxx#4 $)

>  <Rbt.Library>
libRbt.so (2013.1, Build901 2013/11/27)

>  <Rbt.Parameter_File>
/export/apps/rDock/src/rDock_2013.1_src/data/scripts/dock_solv.prm

>  <Rbt.Receptor>
prm/pocket_docking_8.prm

>  <SCORE>
-13.8083

>  <SCORE.INTER>
2.09349

>  <SCORE.INTER.CONST>
1

>  <SCORE.INTER.POLAR>
0

>  <SCORE.INTER.ROT>
9

>  <SCORE.INTER.SOLV>
9.58739

>  <SCORE.INTER.VDW>
-11.4001

>  <SCORE.INTER.norm>
0.161038

>  <SCORE.INTRA>
-15.9018

>  <SCORE.INTRA.DIHEDRAL>
-30.9912

>  <SCORE.INTRA.DIHEDRAL.0>
31.9578

>  <SCORE.INTRA.POLAR>
0

>  <SCORE.INTRA.POLAR.0>
0

>  <SCORE.INTRA.REPUL>
0

>  <SCORE.INTRA.REPUL.0>
0

>  <SCORE.INTRA.SOLV>
-1.5223

>  <SCORE.INTRA.SOLV.lig_0>
-48.4032

>  <SCORE.INTRA.VDW>
0.354937

>  <SCORE.INTRA.VDW.0>
-1.65238

>  <SCORE.INTRA.norm>
-1.22322

>  <SCORE.RESTR>
0

>  <SCORE.RESTR.CAVITY>
0

>  <SCORE.RESTR.norm>
0

>  <SCORE.SYSTEM>
0

>  <SCORE.SYSTEM.CONST>
0

>  <SCORE.SYSTEM.DIHEDRAL>
0

>  <SCORE.SYSTEM.SOLV>
0

>  <SCORE.SYSTEM.norm>
0

>  <SCORE.heavy>
13

>  <SCORE.norm>
-1.06218

>  <RMSD>
6.764

$$$$
ligand
 OpenBabel11021811473D
libRbt.so/2013.1/901 2013/11/27
 13 12  0  0  0  0  0  0  0  0999 V2000
   35.8138   30.8547   45.3061 O   0  0  0  0  0  0  0  0  0  0  0  0
   36.3269   31.5667   48.1224 O   0  0  0  0  0  0  0  0  0  0  0  0
   33.0857   33.0949   43.7522 P   0  0  1  0  0  0  0  0  0  0  0  0
   32.2172   33.5479   44.8930 O   0  5  0  0  0  0  0  0  0  0  0  0
   34.0624   33.8549   43.0030 O   0  0  0  0  0  0  0  0  0  0  0  0
   33.3058   31.5253   44.0543 O   0  0  0  0  0  0  0  0  0  0  0  0
   34.0798   32.0924   49.8125 O   0  0  0  0  0  0  0  0  0  0  0  0
   34.3462   30.7625   43.4051 C   0  0  0  0  0  0  0  0  0  0  0  0
   37.2112   30.7532   47.3273 C   0  0  0  0  0  0  0  0  0  0  0  0
   35.4273   32.1816   50.3084 C   0  0  0  0  0  0  0  0  0  0  0  0
   35.7289   31.1902   43.9188 C   0  0  0  0  0  0  0  0  0  0  0  0
   37.1180   31.1579   45.8376 C   0  0  0  0  0  0  0  0  0  0  0  0
   36.3466   31.2208   49.5185 C   0  0  0  0  0  0  0  0  0  0  0  0
  1 12  1  0  0  0  0
  1 11  1  0  0  0  0
  2 13  1  0  0  0  0
  2  9  1  0  0  0  0
  3  4  1  1  0  0  0
  3  5  2  0  0  0  0
  3  6  1  0  0  0  0
  6  8  1  0  0  0  0
  7 10  1  0  0  0  0
  8 11  1  0  0  0  0
  9 12  1  0  0  0  0
 10 13  1  0  0  0  0
M  CHG  1   4  -1
M  END
>  <CHROM.1>
-178.35438897,177.25102793,-164.09668804,70.08358495,64.75727589,178.81638194
-66.02928502,59.54212969,176.63889480,34.81179676,31.95539090,45.89568539
-1.07911576,0.57042378,-1.64730086

>  <Name>
ligand

>  <RI>
0

>  <Rbt.Current_Directory>
/home/itssahil/PROJECTS/Mol_Feturizer/New_Systems/rnas/3GS8

>  <Rbt.Executable>
rbdock ($Id: //depot/dev/client3/rdock/2013.1/src/exe/rbdock.cxx#4 $)

>  <Rbt.Library>
libRbt.so (2013.1, Build901 2013/11/27)

>  <Rbt.Parameter_File>
/export/apps/rDock/src/rDock_2013.1_src/data/scripts/dock_solv.prm

>  <Rbt.Receptor>
prm/pocket_docking_7.prm

>  <SCORE>
-14.3927

>  <SCORE.INTER>
0.337007

>  <SCORE.INTER.CONST>
1

>  <SCORE.INTER.POLAR>
0

>  <SCORE.INTER.ROT>
9

>  <SCORE.INTER.SOLV>
10.1642

>  <SCORE.INTER.VDW>
-12.7634

>  <SCORE.INTER.norm>
0.0259236

>  <SCORE.INTRA>
-14.7297

>  <SCORE.INTRA.DIHEDRAL>
-30.2663

>  <SCORE.INTRA.DIHEDRAL.0>
31.9578

>  <SCORE.INTRA.POLAR>
0

>  <SCORE.INTRA.POLAR.0>
0

>  <SCORE.INTRA.REPUL>
0

>  <SCORE.INTRA.REPUL.0>
0

>  <SCORE.INTRA.SOLV>
0.629133

>  <SCORE.INTRA.SOLV.lig_0>
-48.4032

>  <SCORE.INTRA.VDW>
0.0888806

>  <SCORE.INTRA.VDW.0>
-1.65238

>  <SCORE.INTRA.norm>
-1.13305

>  <SCORE.RESTR>
0

>  <SCORE.RESTR.CAVITY>
0

>  <SCORE.RESTR.norm>
0

>  <SCORE.SYSTEM>
0

>  <SCORE.SYSTEM.CONST>
0

>  <SCORE.SYSTEM.DIHEDRAL>
0

>  <SCORE.SYSTEM.SOLV>
0

>  <SCORE.SYSTEM.norm>
0

>  <SCORE.heavy>
13

>  <SCORE.norm>
-1.10713

>  <RMSD>
6.766

$$$$
ligand
 OpenBabel11021811473D
libRbt.so/2013.1/901 2013/11/27
 13 12  0  0  0  0  0  0  0  0999 V2000
   29.9080   33.1040   46.2122 O   0  0  0  0  0  0  0  0  0  0  0  0
   32.0831   32.6349   44.3691 O   0  0  0  0  0  0  0  0  0  0  0  0
   28.8166   31.6568   50.2137 P   0  0  1  0  0  0  0  0  0  0  0  0
   29.9866   32.1222   51.0356 O   0  5  0  0  0  0  0  0  0  0  0  0
   27.5307   31.1721   50.6656 O   0  0  0  0  0  0  0  0  0  0  0  0
   28.9514   32.5178   48.8558 O   0  0  0  0  0  0  0  0  0  0  0  0
   35.1097   30.8976   43.1368 O   0  0  0  0  0  0  0  0  0  0  0  0
   28.2306   32.1655   47.6550 C   0  0  0  0  0  0  0  0  0  0  0  0
   31.7597   33.9584   44.8377 C   0  0  0  0  0  0  0  0  0  0  0  0
   33.7296   31.0457   43.5150 C   0  0  0  0  0  0  0  0  0  0  0  0
   28.5175   33.1785   46.5368 C   0  0  0  0  0  0  0  0  0  0  0  0
   30.2556   34.0521   45.1846 C   0  0  0  0  0  0  0  0  0  0  0  0
   33.4655   32.4909   43.9986 C   0  0  0  0  0  0  0  0  0  0  0  0
  1 12  1  0  0  0  0
  1 11  1  0  0  0  0
  2 13  1  0  0  0  0
  2  9  1  0  0  0  0
  3  4  1  1  0  0  0
  3  5  2  0  0  0  0
  3  6  1  0  0  0  0
  6  8  1  0  0  0  0
  7 10  1  0  0  0  0
  8 11  1  0  0  0  0
  9 12  1  0  0  0  0
 10 13  1  0  0  0  0
M  CHG  1   4  -1
M  END
>  <CHROM.1>
-179.76402361,179.74059784,164.63686108,178.37487072,63.72403891,178.60991618
59.77561902,179.72114159,-178.78338356,30.49276373,32.30859897,46.96141420
0.78199259,0.52742338,-1.07079508

>  <Name>
ligand

>  <RI>
0

>  <Rbt.Current_Directory>
/home/itssahil/PROJECTS/Mol_Feturizer/New_Systems/rnas/3GS8

>  <Rbt.Executable>
rbdock ($Id: //depot/dev/client3/rdock/2013.1/src/exe/rbdock.cxx#4 $)

>  <Rbt.Library>
libRbt.so (2013.1, Build901 2013/11/27)

>  <Rbt.Parameter_File>
/export/apps/rDock/src/rDock_2013.1_src/data/scripts/dock_solv.prm

>  <Rbt.Receptor>
prm/pocket_docking_5.prm

>  <SCORE>
-13.391

>  <SCORE.INTER>
3.10753

>  <SCORE.INTER.CONST>
1

>  <SCORE.INTER.POLAR>
0

>  <SCORE.INTER.ROT>
9

>  <SCORE.INTER.SOLV>
8.04584

>  <SCORE.INTER.VDW>
-10.2103

>  <SCORE.INTER.norm>
0.239041

>  <SCORE.INTRA>
-16.5004

>  <SCORE.INTRA.DIHEDRAL>
-31.5923

>  <SCORE.INTRA.DIHEDRAL.0>
31.9578

>  <SCORE.INTRA.POLAR>
0

>  <SCORE.INTRA.POLAR.0>
0

>  <SCORE.INTRA.REPUL>
0

>  <SCORE.INTRA.REPUL.0>
0

>  <SCORE.INTRA.SOLV>
-1.71765

>  <SCORE.INTRA.SOLV.lig_0>
-48.4032

>  <SCORE.INTRA.VDW>
0.154544

>  <SCORE.INTRA.VDW.0>
-1.65238

>  <SCORE.INTRA.norm>
-1.26926

>  <SCORE.RESTR>
0.00194741

>  <SCORE.RESTR.CAVITY>
0.00194741

>  <SCORE.RESTR.norm>
0.000149801

>  <SCORE.SYSTEM>
0

>  <SCORE.SYSTEM.CONST>
0

>  <SCORE.SYSTEM.DIHEDRAL>
0

>  <SCORE.SYSTEM.SOLV>
0

>  <SCORE.SYSTEM.norm>
0

>  <SCORE.heavy>
13

>  <SCORE.norm>
-1.03007

>  <RMSD>
6.771

$$$$
ligand
 OpenBabel11021811473D
libRbt.so/2013.1/901 2013/11/27
 13 12  0  0  0  0  0  0  0  0999 V2000
   36.6189   30.9932   47.1191 O   0  0  0  0  0  0  0  0  0  0  0  0
   35.8890   31.7421   49.7225 O   0  0  0  0  0  0  0  0  0  0  0  0
   35.2181   30.6679   42.2574 P   0  0  1  0  0  0  0  0  0  0  0  0
   34.1999   31.7707   42.3474 O   0  5  0  0  0  0  0  0  0  0  0  0
   35.6579   29.9374   41.0888 O   0  0  0  0  0  0  0  0  0  0  0  0
   36.2384   31.0062   43.4606 O   0  0  0  0  0  0  0  0  0  0  0  0
   33.8979   33.5088   50.7611 O   0  0  0  0  0  0  0  0  0  0  0  0
   35.8432   30.9067   44.8461 C   0  0  0  0  0  0  0  0  0  0  0  0
   37.1837   31.1475   49.5077 C   0  0  0  0  0  0  0  0  0  0  0  0
   33.9821   32.1402   51.1961 C   0  0  0  0  0  0  0  0  0  0  0  0
   37.0278   31.2277   45.7693 C   0  0  0  0  0  0  0  0  0  0  0  0
   37.6466   31.3820   48.0509 C   0  0  0  0  0  0  0  0  0  0  0  0
   35.4410   31.6385   51.0855 C   0  0  0  0  0  0  0  0  0  0  0  0
  1 12  1  0  0  0  0
  1 11  1  0  0  0  0
  2 13  1  0  0  0  0
  2  9  1  0  0  0  0
  3  4  1  6  0  0  0
  3  5  2  0  0  0  0
  3  6  1  0  0  0  0
  6  8  1  0  0  0  0
  7 10  1  0  0  0  0
  8 11  1  0  0  0  0
  9 12  1  0  0  0  0
 10 13  1  0  0  0  0
M  CHG  1   4  -1
M  END
>  <CHROM.1>
178.98572858,-173.09931747,67.71257387,177.57947848,-174.64403745,-175.99790002
-50.62740818,-59.21909101,-175.14286187,35.69492124,31.33774281,46.29762061
-1.57978404,0.38094792,-1.73204816

>  <Name>
ligand

>  <RI>
0

>  <Rbt.Current_Directory>
/home/itssahil/PROJECTS/Mol_Feturizer/New_Systems/rnas/3GS8

>  <Rbt.Executable>
rbdock ($Id: //depot/dev/client3/rdock/2013.1/src/exe/rbdock.cxx#4 $)

>  <Rbt.Library>
libRbt.so (2013.1, Build901 2013/11/27)

>  <Rbt.Parameter_File>
/export/apps/rDock/src/rDock_2013.1_src/data/scripts/dock_solv.prm

>  <Rbt.Receptor>
prm/pocket_docking_6.prm

>  <SCORE>
-13.6744

>  <SCORE.INTER>
1.94734

>  <SCORE.INTER.CONST>
1

>  <SCORE.INTER.POLAR>
0

>  <SCORE.INTER.ROT>
9

>  <SCORE.INTER.SOLV>
7.93524

>  <SCORE.INTER.VDW>
-10.9469

>  <SCORE.INTER.norm>
0.149795

>  <SCORE.INTRA>
-15.6217

>  <SCORE.INTRA.DIHEDRAL>
-30.4151

>  <SCORE.INTRA.DIHEDRAL.0>
31.9578

>  <SCORE.INTRA.POLAR>
0

>  <SCORE.INTRA.POLAR.0>
0

>  <SCORE.INTRA.REPUL>
0

>  <SCORE.INTRA.REPUL.0>
0

>  <SCORE.INTRA.SOLV>
-1.40914

>  <SCORE.INTRA.SOLV.lig_0>
-48.4032

>  <SCORE.INTRA.VDW>
0.29041

>  <SCORE.INTRA.VDW.0>
-1.65238

>  <SCORE.INTRA.norm>
-1.20167

>  <SCORE.RESTR>
0

>  <SCORE.RESTR.CAVITY>
0

>  <SCORE.RESTR.norm>
0

>  <SCORE.SYSTEM>
0

>  <SCORE.SYSTEM.CONST>
0

>  <SCORE.SYSTEM.DIHEDRAL>
0

>  <SCORE.SYSTEM.SOLV>
0

>  <SCORE.SYSTEM.norm>
0

>  <SCORE.heavy>
13

>  <SCORE.norm>
-1.05188

>  <RMSD>
6.779

$$$$
ligand
 OpenBabel11021811473D
libRbt.so/2013.1/901 2013/11/27
 13 12  0  0  0  0  0  0  0  0999 V2000
   32.1668   33.1558   45.4147 O   0  0  0  0  0  0  0  0  0  0  0  0
   34.8656   32.3063   45.0888 O   0  0  0  0  0  0  0  0  0  0  0  0
   30.5399   35.9747   48.2707 P   0  0  1  0  0  0  0  0  0  0  0  0
   31.2077   35.2110   49.3805 O   0  5  0  0  0  0  0  0  0  0  0  0
   30.3865   37.4057   48.1235 O   0  0  0  0  0  0  0  0  0  0  0  0
   30.7543   35.0238   46.9850 O   0  0  0  0  0  0  0  0  0  0  0  0
   36.7491   30.8210   46.6091 O   0  0  0  0  0  0  0  0  0  0  0  0
   30.4352   33.6157   47.0165 C   0  0  0  0  0  0  0  0  0  0  0  0
   34.0847   32.7008   43.9440 C   0  0  0  0  0  0  0  0  0  0  0  0
   37.0294   32.1756   46.2142 C   0  0  0  0  0  0  0  0  0  0  0  0
   30.7747   32.9554   45.6721 C   0  0  0  0  0  0  0  0  0  0  0  0
   32.5798   32.4712   44.2162 C   0  0  0  0  0  0  0  0  0  0  0  0
   36.2774   32.5117   44.9051 C   0  0  0  0  0  0  0  0  0  0  0  0
  1 12  1  0  0  0  0
  1 11  1  0  0  0  0
  2 13  1  0  0  0  0
  2  9  1  0  0  0  0
  3  4  1  1  0  0  0
  3  5  2  0  0  0  0
  3  6  1  0  0  0  0
  6  8  1  0  0  0  0
  7 10  1  0  0  0  0
  8 11  1  0  0  0  0
  9 12  1  0  0  0  0
 10 13  1  0  0  0  0
M  CHG  1   4  -1
M  END
>  <CHROM.1>
179.70963643,175.34281808,49.70733652,-178.43792784,58.43643795,-179.25787510
55.34900766,57.39740527,175.50240849,32.70874490,33.78101308,46.48972849
0.66801596,0.32550401,-2.14755288

>  <Name>
ligand

>  <RI>
0

>  <Rbt.Current_Directory>
/home/itssahil/PROJECTS/Mol_Feturizer/New_Systems/rnas/3GS8

>  <Rbt.Executable>
rbdock ($Id: //depot/dev/client3/rdock/2013.1/src/exe/rbdock.cxx#4 $)

>  <Rbt.Library>
libRbt.so (2013.1, Build901 2013/11/27)

>  <Rbt.Parameter_File>
/export/apps/rDock/src/rDock_2013.1_src/data/scripts/dock_solv.prm

>  <Rbt.Receptor>
prm/pocket_docking_3.prm

>  <SCORE>
-9.55433

>  <SCORE.INTER>
6.37231

>  <SCORE.INTER.CONST>
1

>  <SCORE.INTER.POLAR>
0

>  <SCORE.INTER.ROT>
9

>  <SCORE.INTER.SOLV>
5.45229

>  <SCORE.INTER.VDW>
-7.16922

>  <SCORE.INTER.norm>
0.490177

>  <SCORE.INTRA>
-15.9354

>  <SCORE.INTRA.DIHEDRAL>
-31.3118

>  <SCORE.INTRA.DIHEDRAL.0>
31.9578

>  <SCORE.INTRA.POLAR>
0

>  <SCORE.INTRA.POLAR.0>
0

>  <SCORE.INTRA.REPUL>
0

>  <SCORE.INTRA.REPUL.0>
0

>  <SCORE.INTRA.SOLV>
-1.16562

>  <SCORE.INTRA.SOLV.lig_0>
-48.4032

>  <SCORE.INTRA.VDW>
0.303328

>  <SCORE.INTRA.VDW.0>
-1.65238

>  <SCORE.INTRA.norm>
-1.2258

>  <SCORE.RESTR>
0.00876217

>  <SCORE.RESTR.CAVITY>
0.00876217

>  <SCORE.RESTR.norm>
0.000674013

>  <SCORE.SYSTEM>
0

>  <SCORE.SYSTEM.CONST>
0

>  <SCORE.SYSTEM.DIHEDRAL>
0

>  <SCORE.SYSTEM.SOLV>
0

>  <SCORE.SYSTEM.norm>
0

>  <SCORE.heavy>
13

>  <SCORE.norm>
-0.734949

>  <RMSD>
6.801

$$$$
ligand
 OpenBabel11021811473D
libRbt.so/2013.1/901 2013/11/27
 13 12  0  0  0  0  0  0  0  0999 V2000
   32.5997   32.8517   45.2455 O   0  0  0  0  0  0  0  0  0  0  0  0
   35.1983   31.6321   44.9858 O   0  0  0  0  0  0  0  0  0  0  0  0
   31.1322   32.7805   49.3479 P   0  0  1  0  0  0  0  0  0  0  0  0
   32.1108   33.8839   49.6412 O   0  5  0  0  0  0  0  0  0  0  0  0
   29.8518   32.5196   49.9686 O   0  0  0  0  0  0  0  0  0  0  0  0
   31.3762   32.4750   47.7825 O   0  0  0  0  0  0  0  0  0  0  0  0
   36.6493   31.4254   47.4357 O   0  0  0  0  0  0  0  0  0  0  0  0
   30.7711   33.2778   46.7457 C   0  0  0  0  0  0  0  0  0  0  0  0
   34.6027   32.3712   43.9019 C   0  0  0  0  0  0  0  0  0  0  0  0
   37.1910   30.9168   46.2038 C   0  0  0  0  0  0  0  0  0  0  0  0
   31.1772   32.7614   45.3575 C   0  0  0  0  0  0  0  0  0  0  0  0
   33.0602   32.3080   43.9933 C   0  0  0  0  0  0  0  0  0  0  0  0
   36.6337   31.7235   45.0076 C   0  0  0  0  0  0  0  0  0  0  0  0
  1 12  1  0  0  0  0
  1 11  1  0  0  0  0
  2 13  1  0  0  0  0
  2  9  1  0  0  0  0
  3  4  1  6  0  0  0
  3  5  2  0  0  0  0
  3  6  1  0  0  0  0
  6  8  1  0  0  0  0
  7 10  1  0  0  0  0
  8 11  1  0  0  0  0
  9 12  1  0  0  0  0
 10 13  1  0  0  0  0
M  CHG  1   4  -1
M  END
>  <CHROM.1>
-178.25981356,179.47605934,-81.89689152,179.92190281,-60.69083277,-176.22364576
59.03714507,-58.96455555,176.56861696,33.07092773,32.41601708,46.85941735
0.62571584,0.25778724,-1.55692968

>  <Name>
ligand

>  <RI>
0

>  <Rbt.Current_Directory>
/home/itssahil/PROJECTS/Mol_Feturizer/New_Systems/rnas/3GS8

>  <Rbt.Executable>
rbdock ($Id: //depot/dev/client3/rdock/2013.1/src/exe/rbdock.cxx#4 $)

>  <Rbt.Library>
libRbt.so (2013.1, Build901 2013/11/27)

>  <Rbt.Parameter_File>
/export/apps/rDock/src/rDock_2013.1_src/data/scripts/dock_solv.prm

>  <Rbt.Receptor>
prm/pocket_docking_3.prm

>  <SCORE>
-12.0171

>  <SCORE.INTER>
4.29889

>  <SCORE.INTER.CONST>
1

>  <SCORE.INTER.POLAR>
0

>  <SCORE.INTER.ROT>
9

>  <SCORE.INTER.SOLV>
7.42487

>  <SCORE.INTER.VDW>
-9.20903

>  <SCORE.INTER.norm>
0.330684

>  <SCORE.INTRA>
-16.3159

>  <SCORE.INTRA.DIHEDRAL>
-31.5024

>  <SCORE.INTRA.DIHEDRAL.0>
31.9578

>  <SCORE.INTRA.POLAR>
0

>  <SCORE.INTRA.POLAR.0>
0

>  <SCORE.INTRA.REPUL>
0

>  <SCORE.INTRA.REPUL.0>
0

>  <SCORE.INTRA.SOLV>
-1.16442

>  <SCORE.INTRA.SOLV.lig_0>
-48.4032

>  <SCORE.INTRA.VDW>
0.0174622

>  <SCORE.INTRA.VDW.0>
-1.65238

>  <SCORE.INTRA.norm>
-1.25507

>  <SCORE.RESTR>
0

>  <SCORE.RESTR.CAVITY>
0

>  <SCORE.RESTR.norm>
0

>  <SCORE.SYSTEM>
0

>  <SCORE.SYSTEM.CONST>
0

>  <SCORE.SYSTEM.DIHEDRAL>
0

>  <SCORE.SYSTEM.SOLV>
0

>  <SCORE.SYSTEM.norm>
0

>  <SCORE.heavy>
13

>  <SCORE.norm>
-0.924389

>  <RMSD>
6.802

$$$$
ligand
 OpenBabel11021811473D
libRbt.so/2013.1/901 2013/11/27
 13 12  0  0  0  0  0  0  0  0999 V2000
   31.8474   33.1137   45.8091 O   0  0  0  0  0  0  0  0  0  0  0  0
   34.5745   32.4748   45.3755 O   0  0  0  0  0  0  0  0  0  0  0  0
   29.9118   35.6915   47.3897 P   0  0  1  0  0  0  0  0  0  0  0  0
   28.4551   35.4506   47.1049 O   0  5  0  0  0  0  0  0  0  0  0  0
   30.5625   36.9186   47.7943 O   0  0  0  0  0  0  0  0  0  0  0  0
   30.4262   34.2600   47.9275 O   0  0  0  0  0  0  0  0  0  0  0  0
   36.1215   30.5615   44.0141 O   0  0  0  0  0  0  0  0  0  0  0  0
   29.9893   33.0196   47.3306 C   0  0  0  0  0  0  0  0  0  0  0  0
   33.8578   33.2560   44.3998 C   0  0  0  0  0  0  0  0  0  0  0  0
   36.5386   31.9382   44.0264 C   0  0  0  0  0  0  0  0  0  0  0  0
   30.4286   32.9440   45.8609 C   0  0  0  0  0  0  0  0  0  0  0  0
   32.3449   32.9425   44.4680 C   0  0  0  0  0  0  0  0  0  0  0  0
   36.0007   32.6429   45.2938 C   0  0  0  0  0  0  0  0  0  0  0  0
  1 12  1  0  0  0  0
  1 11  1  0  0  0  0
  2 13  1  0  0  0  0
  2  9  1  0  0  0  0
  3  4  1  1  0  0  0
  3  5  2  0  0  0  0
  3  6  1  0  0  0  0
  6  8  1  0  0  0  0
  7 10  1  0  0  0  0
  8 11  1  0  0  0  0
  9 12  1  0  0  0  0
 10 13  1  0  0  0  0
M  CHG  1   4  -1
M  END
>  <CHROM.1>
174.77309238,-72.02710522,40.31744589,62.30855513,56.02845842,175.46417861
53.85371810,-54.41515510,175.17830687,32.16835718,33.67352347,46.05037824
0.62941442,-0.21481624,-2.72026242

>  <Name>
ligand

>  <RI>
0

>  <Rbt.Current_Directory>
/home/itssahil/PROJECTS/Mol_Feturizer/New_Systems/rnas/3GS8

>  <Rbt.Executable>
rbdock ($Id: //depot/dev/client3/rdock/2013.1/src/exe/rbdock.cxx#4 $)

>  <Rbt.Library>
libRbt.so (2013.1, Build901 2013/11/27)

>  <Rbt.Parameter_File>
/export/apps/rDock/src/rDock_2013.1_src/data/scripts/dock_solv.prm

>  <Rbt.Receptor>
prm/pocket_docking_3.prm

>  <SCORE>
-5.82452

>  <SCORE.INTER>
7.36194

>  <SCORE.INTER.CONST>
1

>  <SCORE.INTER.POLAR>
0

>  <SCORE.INTER.ROT>
9

>  <SCORE.INTER.SOLV>
7.90873

>  <SCORE.INTER.VDW>
-7.32828

>  <SCORE.INTER.norm>
0.566303

>  <SCORE.INTRA>
-13.19

>  <SCORE.INTRA.DIHEDRAL>
-30.2852

>  <SCORE.INTRA.DIHEDRAL.0>
31.9578

>  <SCORE.INTRA.POLAR>
0

>  <SCORE.INTRA.POLAR.0>
0

>  <SCORE.INTRA.REPUL>
0

>  <SCORE.INTRA.REPUL.0>
0

>  <SCORE.INTRA.SOLV>
1.11121

>  <SCORE.INTRA.SOLV.lig_0>
-48.4032

>  <SCORE.INTRA.VDW>
1.39696

>  <SCORE.INTRA.VDW.0>
-1.65238

>  <SCORE.INTRA.norm>
-1.01462

>  <SCORE.RESTR>
0.00356857

>  <SCORE.RESTR.CAVITY>
0.00356857

>  <SCORE.RESTR.norm>
0.000274506

>  <SCORE.SYSTEM>
0

>  <SCORE.SYSTEM.CONST>
0

>  <SCORE.SYSTEM.DIHEDRAL>
0

>  <SCORE.SYSTEM.SOLV>
0

>  <SCORE.SYSTEM.norm>
0

>  <SCORE.heavy>
13

>  <SCORE.norm>
-0.44804

>  <RMSD>
6.808

$$$$
ligand
 OpenBabel11021811473D
libRbt.so/2013.1/901 2013/11/27
 13 12  0  0  0  0  0  0  0  0999 V2000
   32.6213   32.8353   45.2607 O   0  0  0  0  0  0  0  0  0  0  0  0
   35.2152   31.6189   44.9937 O   0  0  0  0  0  0  0  0  0  0  0  0
   31.1111   32.7726   49.3730 P   0  0  1  0  0  0  0  0  0  0  0  0
   32.1534   33.8117   49.6810 O   0  5  0  0  0  0  0  0  0  0  0  0
   29.8096   32.5913   49.9779 O   0  0  0  0  0  0  0  0  0  0  0  0
   31.3541   32.4557   47.8098 O   0  0  0  0  0  0  0  0  0  0  0  0
   36.7068   31.4797   47.4180 O   0  0  0  0  0  0  0  0  0  0  0  0
   30.8061   33.2926   46.7681 C   0  0  0  0  0  0  0  0  0  0  0  0
   34.6103   32.3390   43.9021 C   0  0  0  0  0  0  0  0  0  0  0  0
   37.2195   30.9139   46.1987 C   0  0  0  0  0  0  0  0  0  0  0  0
   31.1989   32.7570   45.3833 C   0  0  0  0  0  0  0  0  0  0  0  0
   33.0686   32.2794   44.0092 C   0  0  0  0  0  0  0  0  0  0  0  0
   36.6524   31.6798   44.9804 C   0  0  0  0  0  0  0  0  0  0  0  0
  1 12  1  0  0  0  0
  1 11  1  0  0  0  0
  2 13  1  0  0  0  0
  2  9  1  0  0  0  0
  3  4  1  6  0  0  0
  3  5  2  0  0  0  0
  3  6  1  0  0  0  0
  6  8  1  0  0  0  0
  7 10  1  0  0  0  0
  8 11  1  0  0  0  0
  9 12  1  0  0  0  0
 10 13  1  0  0  0  0
M  CHG  1   4  -1
M  END
>  <CHROM.1>
-178.66173023,178.63976479,-82.27850221,179.83727905,-63.72669212,-177.75372346
58.51840543,-58.43706743,176.84434594,33.08142011,32.40879298,46.87142822
0.62715407,0.25255100,-1.56475991

>  <Name>
ligand

>  <RI>
0

>  <Rbt.Current_Directory>
/home/itssahil/PROJECTS/Mol_Feturizer/New_Systems/rnas/3GS8

>  <Rbt.Executable>
rbdock ($Id: //depot/dev/client3/rdock/2013.1/src/exe/rbdock.cxx#4 $)

>  <Rbt.Library>
libRbt.so (2013.1, Build901 2013/11/27)

>  <Rbt.Parameter_File>
/export/apps/rDock/src/rDock_2013.1_src/data/scripts/dock_solv.prm

>  <Rbt.Receptor>
prm/pocket_docking_3.prm

>  <SCORE>
-12.029

>  <SCORE.INTER>
4.2928

>  <SCORE.INTER.CONST>
1

>  <SCORE.INTER.POLAR>
0

>  <SCORE.INTER.ROT>
9

>  <SCORE.INTER.SOLV>
7.31708

>  <SCORE.INTER.VDW>
-9.17716

>  <SCORE.INTER.norm>
0.330215

>  <SCORE.INTRA>
-16.3218

>  <SCORE.INTRA.DIHEDRAL>
-31.4913

>  <SCORE.INTRA.DIHEDRAL.0>
31.9578

>  <SCORE.INTRA.POLAR>
0

>  <SCORE.INTRA.POLAR.0>
0

>  <SCORE.INTRA.REPUL>
0

>  <SCORE.INTRA.REPUL.0>
0

>  <SCORE.INTRA.SOLV>
-1.18139

>  <SCORE.INTRA.SOLV.lig_0>
-48.4032

>  <SCORE.INTRA.VDW>
0.0145346

>  <SCORE.INTRA.VDW.0>
-1.65238

>  <SCORE.INTRA.norm>
-1.25552

>  <SCORE.RESTR>
0

>  <SCORE.RESTR.CAVITY>
0

>  <SCORE.RESTR.norm>
0

>  <SCORE.SYSTEM>
0

>  <SCORE.SYSTEM.CONST>
0

>  <SCORE.SYSTEM.DIHEDRAL>
0

>  <SCORE.SYSTEM.SOLV>
0

>  <SCORE.SYSTEM.norm>
0

>  <SCORE.heavy>
13

>  <SCORE.norm>
-0.925308

>  <RMSD>
6.823

$$$$
ligand
 OpenBabel11021811473D
libRbt.so/2013.1/901 2013/11/27
 13 12  0  0  0  0  0  0  0  0999 V2000
   36.6133   31.2895   47.4530 O   0  0  0  0  0  0  0  0  0  0  0  0
   35.9196   32.0883   51.0168 O   0  0  0  0  0  0  0  0  0  0  0  0
   34.9797   31.6632   43.2465 P   0  0  1  0  0  0  0  0  0  0  0  0
   34.8181   30.3292   42.5719 O   0  5  0  0  0  0  0  0  0  0  0  0
   33.9747   32.4730   43.9000 O   0  0  0  0  0  0  0  0  0  0  0  0
   36.4984   31.6224   43.7898 O   0  0  0  0  0  0  0  0  0  0  0  0
   35.8684   33.8253   53.3221 O   0  0  0  0  0  0  0  0  0  0  0  0
   36.8343   31.0490   45.0720 C   0  0  0  0  0  0  0  0  0  0  0  0
   36.5452   31.4133   49.9083 C   0  0  0  0  0  0  0  0  0  0  0  0
   35.6802   32.4030   53.4271 C   0  0  0  0  0  0  0  0  0  0  0  0
   36.2092   31.8692   46.2101 C   0  0  0  0  0  0  0  0  0  0  0  0
   36.0226   31.9832   48.5690 C   0  0  0  0  0  0  0  0  0  0  0  0
   36.4458   31.6827   52.2926 C   0  0  0  0  0  0  0  0  0  0  0  0
  1 12  1  0  0  0  0
  1 11  1  0  0  0  0
  2 13  1  0  0  0  0
  2  9  1  0  0  0  0
  3  4  1  1  0  0  0
  3  5  2  0  0  0  0
  3  6  1  0  0  0  0
  6  8  1  0  0  0  0
  7 10  1  0  0  0  0
  8 11  1  0  0  0  0
  9 12  1  0  0  0  0
 10 13  1  0  0  0  0
M  CHG  1   4  -1
M  END
>  <CHROM.1>
-175.94193285,-177.44946587,-86.51406613,-65.28052874,-177.85508206,-175.05960568
-178.36515918,-62.27405533,-177.97033099,35.79087593,31.81611395,47.34892126
-1.45870426,0.63360747,-1.75614080

>  <Name>
ligand

>  <RI>
0

>  <Rbt.Current_Directory>
/home/itssahil/PROJECTS/Mol_Feturizer/New_Systems/rnas/3GS8

>  <Rbt.Executable>
rbdock ($Id: //depot/dev/client3/rdock/2013.1/src/exe/rbdock.cxx#4 $)

>  <Rbt.Library>
libRbt.so (2013.1, Build901 2013/11/27)

>  <Rbt.Parameter_File>
/export/apps/rDock/src/rDock_2013.1_src/data/scripts/dock_solv.prm

>  <Rbt.Receptor>
prm/pocket_docking_7.prm

>  <SCORE>
-12.5671

>  <SCORE.INTER>
2.55646

>  <SCORE.INTER.CONST>
1

>  <SCORE.INTER.POLAR>
0

>  <SCORE.INTER.ROT>
9

>  <SCORE.INTER.SOLV>
8.24434

>  <SCORE.INTER.VDW>
-10.6438

>  <SCORE.INTER.norm>
0.19665

>  <SCORE.INTRA>
-15.1236

>  <SCORE.INTRA.DIHEDRAL>
-31.1704

>  <SCORE.INTRA.DIHEDRAL.0>
31.9578

>  <SCORE.INTRA.POLAR>
0

>  <SCORE.INTRA.POLAR.0>
0

>  <SCORE.INTRA.REPUL>
0

>  <SCORE.INTRA.REPUL.0>
0

>  <SCORE.INTRA.SOLV>
0.0683255

>  <SCORE.INTRA.SOLV.lig_0>
-48.4032

>  <SCORE.INTRA.VDW>
0.427459

>  <SCORE.INTRA.VDW.0>
-1.65238

>  <SCORE.INTRA.norm>
-1.16335

>  <SCORE.RESTR>
0

>  <SCORE.RESTR.CAVITY>
0

>  <SCORE.RESTR.norm>
0

>  <SCORE.SYSTEM>
0

>  <SCORE.SYSTEM.CONST>
0

>  <SCORE.SYSTEM.DIHEDRAL>
0

>  <SCORE.SYSTEM.SOLV>
0

>  <SCORE.SYSTEM.norm>
0

>  <SCORE.heavy>
13

>  <SCORE.norm>
-0.9667

>  <RMSD>
6.831

$$$$
ligand
 OpenBabel11021811473D
libRbt.so/2013.1/901 2013/11/27
 13 12  0  0  0  0  0  0  0  0999 V2000
   36.3611   30.7988   45.6599 O   0  0  0  0  0  0  0  0  0  0  0  0
   36.3366   31.5341   48.5023 O   0  0  0  0  0  0  0  0  0  0  0  0
   32.9790   32.7847   44.1415 P   0  0  1  0  0  0  0  0  0  0  0  0
   32.4784   33.3037   45.4610 O   0  5  0  0  0  0  0  0  0  0  0  0
   32.5341   33.1273   42.8083 O   0  0  0  0  0  0  0  0  0  0  0  0
   34.5275   32.4438   44.4405 O   0  0  0  0  0  0  0  0  0  0  0  0
   34.7534   32.1100   51.7976 O   0  0  0  0  0  0  0  0  0  0  0  0
   35.2693   31.5005   43.6371 C   0  0  0  0  0  0  0  0  0  0  0  0
   37.2538   30.5753   47.9405 C   0  0  0  0  0  0  0  0  0  0  0  0
   35.0590   32.3584   50.4139 C   0  0  0  0  0  0  0  0  0  0  0  0
   36.6131   31.1658   44.3011 C   0  0  0  0  0  0  0  0  0  0  0  0
   37.5513   30.9199   46.4625 C   0  0  0  0  0  0  0  0  0  0  0  0
   36.0451   31.2885   49.8893 C   0  0  0  0  0  0  0  0  0  0  0  0
  1 12  1  0  0  0  0
  1 11  1  0  0  0  0
  2 13  1  0  0  0  0
  2  9  1  0  0  0  0
  3  4  1  1  0  0  0
  3  5  2  0  0  0  0
  3  6  1  0  0  0  0
  6  8  1  0  0  0  0
  7 10  1  0  0  0  0
  8 11  1  0  0  0  0
  9 12  1  0  0  0  0
 10 13  1  0  0  0  0
M  CHG  1   4  -1
M  END
>  <CHROM.1>
177.72364262,179.93218269,157.43487473,-168.94651232,50.86637549,-178.49677366
-64.62718779,179.43521338,-160.04109519,34.99313546,31.93649858,46.37109173
-1.98090564,-0.48723146,1.53323433

>  <Name>
ligand

>  <RI>
0

>  <Rbt.Current_Directory>
/home/itssahil/PROJECTS/Mol_Feturizer/New_Systems/rnas/3GS8

>  <Rbt.Executable>
rbdock ($Id: //depot/dev/client3/rdock/2013.1/src/exe/rbdock.cxx#4 $)

>  <Rbt.Library>
libRbt.so (2013.1, Build901 2013/11/27)

>  <Rbt.Parameter_File>
/export/apps/rDock/src/rDock_2013.1_src/data/scripts/dock_solv.prm

>  <Rbt.Receptor>
prm/pocket_docking_7.prm

>  <SCORE>
-13.3271

>  <SCORE.INTER>
1.78199

>  <SCORE.INTER.CONST>
1

>  <SCORE.INTER.POLAR>
0

>  <SCORE.INTER.ROT>
9

>  <SCORE.INTER.SOLV>
13.2745

>  <SCORE.INTER.VDW>
-12.8368

>  <SCORE.INTER.norm>
0.137076

>  <SCORE.INTRA>
-15.1091

>  <SCORE.INTRA.DIHEDRAL>
-28.8431

>  <SCORE.INTRA.DIHEDRAL.0>
31.9578

>  <SCORE.INTRA.POLAR>
0

>  <SCORE.INTRA.POLAR.0>
0

>  <SCORE.INTRA.REPUL>
0

>  <SCORE.INTRA.REPUL.0>
0

>  <SCORE.INTRA.SOLV>
-1.61987

>  <SCORE.INTRA.SOLV.lig_0>
-48.4032

>  <SCORE.INTRA.VDW>
0.122412

>  <SCORE.INTRA.VDW.0>
-1.65238

>  <SCORE.INTRA.norm>
-1.16224

>  <SCORE.RESTR>
0

>  <SCORE.RESTR.CAVITY>
0

>  <SCORE.RESTR.norm>
0

>  <SCORE.SYSTEM>
0

>  <SCORE.SYSTEM.CONST>
0

>  <SCORE.SYSTEM.DIHEDRAL>
0

>  <SCORE.SYSTEM.SOLV>
0

>  <SCORE.SYSTEM.norm>
0

>  <SCORE.heavy>
13

>  <SCORE.norm>
-1.02516

>  <RMSD>
6.871

$$$$
ligand
 OpenBabel11021811473D
libRbt.so/2013.1/901 2013/11/27
 13 12  0  0  0  0  0  0  0  0999 V2000
   36.5165   30.9556   46.7046 O   0  0  0  0  0  0  0  0  0  0  0  0
   35.9878   31.8018   49.4097 O   0  0  0  0  0  0  0  0  0  0  0  0
   35.0312   30.9008   41.8537 P   0  0  1  0  0  0  0  0  0  0  0  0
   35.0762   29.4169   41.6149 O   0  5  0  0  0  0  0  0  0  0  0  0
   33.9259   31.8139   41.6608 O   0  0  0  0  0  0  0  0  0  0  0  0
   36.0890   31.1156   43.0529 O   0  0  0  0  0  0  0  0  0  0  0  0
   33.2372   32.2264   50.0531 O   0  0  0  0  0  0  0  0  0  0  0  0
   35.7220   30.9244   44.4366 C   0  0  0  0  0  0  0  0  0  0  0  0
   37.1295   30.9846   49.0861 C   0  0  0  0  0  0  0  0  0  0  0  0
   34.2773   32.4935   51.0103 C   0  0  0  0  0  0  0  0  0  0  0  0
   36.9171   31.2141   45.3566 C   0  0  0  0  0  0  0  0  0  0  0  0
   37.5813   31.2465   47.6304 C   0  0  0  0  0  0  0  0  0  0  0  0
   35.4927   31.5755   50.7412 C   0  0  0  0  0  0  0  0  0  0  0  0
  1 12  1  0  0  0  0
  1 11  1  0  0  0  0
  2 13  1  0  0  0  0
  2  9  1  0  0  0  0
  3  4  1  1  0  0  0
  3  5  2  0  0  0  0
  3  6  1  0  0  0  0
  6  8  1  0  0  0  0
  7 10  1  0  0  0  0
  8 11  1  0  0  0  0
  9 12  1  0  0  0  0
 10 13  1  0  0  0  0
M  CHG  1   4  -1
M  END
>  <CHROM.1>
179.10454238,179.68134790,-83.59700099,-179.27838076,-177.57830342,178.25825967
-59.13616656,59.13976276,-178.25202934,35.54067781,31.24825607,45.94078381
-1.54059011,0.27488635,-1.70912015

>  <Name>
ligand

>  <RI>
0

>  <Rbt.Current_Directory>
/home/itssahil/PROJECTS/Mol_Feturizer/New_Systems/rnas/3GS8

>  <Rbt.Executable>
rbdock ($Id: //depot/dev/client3/rdock/2013.1/src/exe/rbdock.cxx#4 $)

>  <Rbt.Library>
libRbt.so (2013.1, Build901 2013/11/27)

>  <Rbt.Parameter_File>
/export/apps/rDock/src/rDock_2013.1_src/data/scripts/dock_solv.prm

>  <Rbt.Receptor>
prm/pocket_docking_8.prm

>  <SCORE>
-13.6289

>  <SCORE.INTER>
2.62452

>  <SCORE.INTER.CONST>
1

>  <SCORE.INTER.POLAR>
0

>  <SCORE.INTER.ROT>
9

>  <SCORE.INTER.SOLV>
9.0397

>  <SCORE.INTER.VDW>
-10.8636

>  <SCORE.INTER.norm>
0.201886

>  <SCORE.INTRA>
-16.2534

>  <SCORE.INTRA.DIHEDRAL>
-31.5766

>  <SCORE.INTRA.DIHEDRAL.0>
31.9578

>  <SCORE.INTRA.POLAR>
0

>  <SCORE.INTRA.POLAR.0>
0

>  <SCORE.INTRA.REPUL>
0

>  <SCORE.INTRA.REPUL.0>
0

>  <SCORE.INTRA.SOLV>
-1.29475

>  <SCORE.INTRA.SOLV.lig_0>
-48.4032

>  <SCORE.INTRA.VDW>
0.182256

>  <SCORE.INTRA.VDW.0>
-1.65238

>  <SCORE.INTRA.norm>
-1.25026

>  <SCORE.RESTR>
0

>  <SCORE.RESTR.CAVITY>
0

>  <SCORE.RESTR.norm>
0

>  <SCORE.SYSTEM>
0

>  <SCORE.SYSTEM.CONST>
0

>  <SCORE.SYSTEM.DIHEDRAL>
0

>  <SCORE.SYSTEM.SOLV>
0

>  <SCORE.SYSTEM.norm>
0

>  <SCORE.heavy>
13

>  <SCORE.norm>
-1.04838

>  <RMSD>
6.886

$$$$
ligand
 OpenBabel11021811473D
libRbt.so/2013.1/901 2013/11/27
 13 12  0  0  0  0  0  0  0  0999 V2000
   31.3134   32.6223   48.8821 O   0  0  0  0  0  0  0  0  0  0  0  0
   34.2969   32.1120   51.0356 O   0  0  0  0  0  0  0  0  0  0  0  0
   26.7648   32.7824   46.6400 P   0  0  1  0  0  0  0  0  0  0  0  0
   25.4750   32.1758   47.1189 O   0  5  0  0  0  0  0  0  0  0  0  0
   26.9593   33.8956   45.7369 O   0  0  0  0  0  0  0  0  0  0  0  0
   27.7764   32.5214   47.8697 O   0  0  0  0  0  0  0  0  0  0  0  0
   37.8579   31.8228   52.0016 O   0  0  0  0  0  0  0  0  0  0  0  0
   29.2020   32.7104   47.7374 C   0  0  0  0  0  0  0  0  0  0  0  0
   33.5653   32.5277   49.8661 C   0  0  0  0  0  0  0  0  0  0  0  0
   36.4309   31.7382   52.1636 C   0  0  0  0  0  0  0  0  0  0  0  0
   29.9125   32.4008   49.0633 C   0  0  0  0  0  0  0  0  0  0  0  0
   32.0459   32.3482   50.0920 C   0  0  0  0  0  0  0  0  0  0  0  0
   35.7230   32.1982   50.8677 C   0  0  0  0  0  0  0  0  0  0  0  0
  1 12  1  0  0  0  0
  1 11  1  0  0  0  0
  2 13  1  0  0  0  0
  2  9  1  0  0  0  0
  3  4  1  1  0  0  0
  3  5  2  0  0  0  0
  3  6  1  0  0  0  0
  6  8  1  0  0  0  0
  7 10  1  0  0  0  0
  8 11  1  0  0  0  0
  9 12  1  0  0  0  0
 10 13  1  0  0  0  0
M  CHG  1   4  -1
M  END
>  <CHROM.1>
177.38012817,179.90886359,167.64549402,179.55522160,-179.15611983,177.38471220
-173.76561159,-179.98222642,-179.93039632,30.92558912,32.48127838,48.93573471
-0.43113909,-0.19726873,-0.99099183

>  <Name>
ligand

>  <RI>
0

>  <Rbt.Current_Directory>
/home/itssahil/PROJECTS/Mol_Feturizer/New_Systems/rnas/3GS8

>  <Rbt.Executable>
rbdock ($Id: //depot/dev/client3/rdock/2013.1/src/exe/rbdock.cxx#4 $)

>  <Rbt.Library>
libRbt.so (2013.1, Build901 2013/11/27)

>  <Rbt.Parameter_File>
/export/apps/rDock/src/rDock_2013.1_src/data/scripts/dock_solv.prm

>  <Rbt.Receptor>
prm/pocket_docking_7.prm

>  <SCORE>
-13.1588

>  <SCORE.INTER>
3.09615

>  <SCORE.INTER.CONST>
1

>  <SCORE.INTER.POLAR>
0

>  <SCORE.INTER.ROT>
9

>  <SCORE.INTER.SOLV>
5.72834

>  <SCORE.INTER.VDW>
-9.44535

>  <SCORE.INTER.norm>
0.238165

>  <SCORE.INTRA>
-16.255

>  <SCORE.INTRA.DIHEDRAL>
-31.4472

>  <SCORE.INTRA.DIHEDRAL.0>
31.9578

>  <SCORE.INTRA.POLAR>
0

>  <SCORE.INTRA.POLAR.0>
0

>  <SCORE.INTRA.REPUL>
0

>  <SCORE.INTRA.REPUL.0>
0

>  <SCORE.INTRA.SOLV>
-1.98904

>  <SCORE.INTRA.SOLV.lig_0>
-48.4032

>  <SCORE.INTRA.VDW>
0.463144

>  <SCORE.INTRA.VDW.0>
-1.65238

>  <SCORE.INTRA.norm>
-1.25038

>  <SCORE.RESTR>
0

>  <SCORE.RESTR.CAVITY>
0

>  <SCORE.RESTR.norm>
0

>  <SCORE.SYSTEM>
0

>  <SCORE.SYSTEM.CONST>
0

>  <SCORE.SYSTEM.DIHEDRAL>
0

>  <SCORE.SYSTEM.SOLV>
0

>  <SCORE.SYSTEM.norm>
0

>  <SCORE.heavy>
13

>  <SCORE.norm>
-1.01222

>  <RMSD>
6.895

$$$$
ligand
 OpenBabel11021811473D
libRbt.so/2013.1/901 2013/11/27
 13 12  0  0  0  0  0  0  0  0999 V2000
   32.1774   32.4333   45.0147 O   0  0  0  0  0  0  0  0  0  0  0  0
   35.0355   31.8281   44.7423 O   0  0  0  0  0  0  0  0  0  0  0  0
   30.4961   33.3753   49.0095 P   0  0  1  0  0  0  0  0  0  0  0  0
   29.9984   31.9634   49.1506 O   0  5  0  0  0  0  0  0  0  0  0  0
   30.9961   34.2640   50.0357 O   0  0  0  0  0  0  0  0  0  0  0  0
   31.0996   33.4080   47.5135 O   0  0  0  0  0  0  0  0  0  0  0  0
   36.5617   31.2068   47.1049 O   0  0  0  0  0  0  0  0  0  0  0  0
   30.2945   33.0836   46.3593 C   0  0  0  0  0  0  0  0  0  0  0  0
   34.0654   31.5391   43.7170 C   0  0  0  0  0  0  0  0  0  0  0  0
   37.1776   31.3454   45.8122 C   0  0  0  0  0  0  0  0  0  0  0  0
   31.0776   33.3457   45.0644 C   0  0  0  0  0  0  0  0  0  0  0  0
   32.9029   32.5573   43.7763 C   0  0  0  0  0  0  0  0  0  0  0  0
   36.1746   30.9505   44.7030 C   0  0  0  0  0  0  0  0  0  0  0  0
  1 12  1  0  0  0  0
  1 11  1  0  0  0  0
  2 13  1  0  0  0  0
  2  9  1  0  0  0  0
  3  4  1  1  0  0  0
  3  5  2  0  0  0  0
  3  6  1  0  0  0  0
  6  8  1  0  0  0  0
  7 10  1  0  0  0  0
  8 11  1  0  0  0  0
  9 12  1  0  0  0  0
 10 13  1  0  0  0  0
M  CHG  1   4  -1
M  END
>  <CHROM.1>
-178.41770019,178.80090040,57.69851081,173.78288338,65.58980826,-177.40601533
-64.43044198,61.60929950,175.83426257,32.71647676,32.49154167,46.57818209
0.60992621,0.30133728,-1.63561462

>  <Name>
ligand

>  <RI>
0

>  <Rbt.Current_Directory>
/home/itssahil/PROJECTS/Mol_Feturizer/New_Systems/rnas/3GS8

>  <Rbt.Executable>
rbdock ($Id: //depot/dev/client3/rdock/2013.1/src/exe/rbdock.cxx#4 $)

>  <Rbt.Library>
libRbt.so (2013.1, Build901 2013/11/27)

>  <Rbt.Parameter_File>
/export/apps/rDock/src/rDock_2013.1_src/data/scripts/dock_solv.prm

>  <Rbt.Receptor>
prm/pocket_docking_3.prm

>  <SCORE>
-12.4202

>  <SCORE.INTER>
3.50654

>  <SCORE.INTER.CONST>
1

>  <SCORE.INTER.POLAR>
0

>  <SCORE.INTER.ROT>
9

>  <SCORE.INTER.SOLV>
8.48784

>  <SCORE.INTER.VDW>
-10.0916

>  <SCORE.INTER.norm>
0.269734

>  <SCORE.INTRA>
-15.9267

>  <SCORE.INTRA.DIHEDRAL>
-31.0111

>  <SCORE.INTRA.DIHEDRAL.0>
31.9578

>  <SCORE.INTRA.POLAR>
0

>  <SCORE.INTRA.POLAR.0>
0

>  <SCORE.INTRA.REPUL>
0

>  <SCORE.INTRA.REPUL.0>
0

>  <SCORE.INTRA.SOLV>
-1.34293

>  <SCORE.INTRA.SOLV.lig_0>
-48.4032

>  <SCORE.INTRA.VDW>
0.250311

>  <SCORE.INTRA.VDW.0>
-1.65238

>  <SCORE.INTRA.norm>
-1.22513

>  <SCORE.RESTR>
0

>  <SCORE.RESTR.CAVITY>
0

>  <SCORE.RESTR.norm>
0

>  <SCORE.SYSTEM>
0

>  <SCORE.SYSTEM.CONST>
0

>  <SCORE.SYSTEM.DIHEDRAL>
0

>  <SCORE.SYSTEM.SOLV>
0

>  <SCORE.SYSTEM.norm>
0

>  <SCORE.heavy>
13

>  <SCORE.norm>
-0.955398

>  <RMSD>
6.903

$$$$
ligand
 OpenBabel11021811473D
libRbt.so/2013.1/901 2013/11/27
 13 12  0  0  0  0  0  0  0  0999 V2000
   34.0272   32.5035   44.8248 O   0  0  0  0  0  0  0  0  0  0  0  0
   36.1845   30.8503   46.0538 O   0  0  0  0  0  0  0  0  0  0  0  0
   30.2249   32.9440   46.9238 P   0  0  1  0  0  0  0  0  0  0  0  0
   29.0863   33.3921   46.0499 O   0  5  0  0  0  0  0  0  0  0  0  0
   30.1754   32.3939   48.2609 O   0  0  0  0  0  0  0  0  0  0  0  0
   31.3361   32.4528   45.8621 O   0  0  0  0  0  0  0  0  0  0  0  0
   35.9092   31.8593   48.7476 O   0  0  0  0  0  0  0  0  0  0  0  0
   31.7550   33.2836   44.7576 C   0  0  0  0  0  0  0  0  0  0  0  0
   36.3911   31.8641   45.0511 C   0  0  0  0  0  0  0  0  0  0  0  0
   37.1407   31.9567   48.0103 C   0  0  0  0  0  0  0  0  0  0  0  0
   32.8854   32.6046   43.9702 C   0  0  0  0  0  0  0  0  0  0  0  0
   35.1593   31.9573   44.1208 C   0  0  0  0  0  0  0  0  0  0  0  0
   37.2547   30.7804   47.0125 C   0  0  0  0  0  0  0  0  0  0  0  0
  1 12  1  0  0  0  0
  1 11  1  0  0  0  0
  2 13  1  0  0  0  0
  2  9  1  0  0  0  0
  3  4  1  6  0  0  0
  3  5  2  0  0  0  0
  3  6  1  0  0  0  0
  6  8  1  0  0  0  0
  7 10  1  0  0  0  0
  8 11  1  0  0  0  0
  9 12  1  0  0  0  0
 10 13  1  0  0  0  0
M  CHG  1   4  -1
M  END
>  <CHROM.1>
179.50931375,76.10467257,51.22511254,176.17435101,-64.99143191,-175.71781417
69.36616969,62.54785562,-176.03637219,33.33196336,32.27817761,46.21895618
-0.03947573,0.22405171,-1.47664700

>  <Name>
ligand

>  <RI>
0

>  <Rbt.Current_Directory>
/home/itssahil/PROJECTS/Mol_Feturizer/New_Systems/rnas/3GS8

>  <Rbt.Executable>
rbdock ($Id: //depot/dev/client3/rdock/2013.1/src/exe/rbdock.cxx#4 $)

>  <Rbt.Library>
libRbt.so (2013.1, Build901 2013/11/27)

>  <Rbt.Parameter_File>
/export/apps/rDock/src/rDock_2013.1_src/data/scripts/dock_solv.prm

>  <Rbt.Receptor>
prm/pocket_docking_4.prm

>  <SCORE>
-11.5082

>  <SCORE.INTER>
2.98952

>  <SCORE.INTER.CONST>
1

>  <SCORE.INTER.POLAR>
0

>  <SCORE.INTER.ROT>
9

>  <SCORE.INTER.SOLV>
11.4278

>  <SCORE.INTER.VDW>
-11.4162

>  <SCORE.INTER.norm>
0.229963

>  <SCORE.INTRA>
-14.4977

>  <SCORE.INTRA.DIHEDRAL>
-29.7445

>  <SCORE.INTRA.DIHEDRAL.0>
31.9578

>  <SCORE.INTRA.POLAR>
0

>  <SCORE.INTRA.POLAR.0>
0

>  <SCORE.INTRA.REPUL>
0

>  <SCORE.INTRA.REPUL.0>
0

>  <SCORE.INTRA.SOLV>
-1.14422

>  <SCORE.INTRA.SOLV.lig_0>
-48.4032

>  <SCORE.INTRA.VDW>
0.94667

>  <SCORE.INTRA.VDW.0>
-1.65238

>  <SCORE.INTRA.norm>
-1.11521

>  <SCORE.RESTR>
0

>  <SCORE.RESTR.CAVITY>
0

>  <SCORE.RESTR.norm>
0

>  <SCORE.SYSTEM>
0

>  <SCORE.SYSTEM.CONST>
0

>  <SCORE.SYSTEM.DIHEDRAL>
0

>  <SCORE.SYSTEM.SOLV>
0

>  <SCORE.SYSTEM.norm>
0

>  <SCORE.heavy>
13

>  <SCORE.norm>
-0.885243

>  <RMSD>
6.922

$$$$
ligand
 OpenBabel11021811473D
libRbt.so/2013.1/901 2013/11/27
 13 12  0  0  0  0  0  0  0  0999 V2000
   32.1726   32.1280   49.7751 O   0  0  0  0  0  0  0  0  0  0  0  0
   35.0012   31.9533   49.7136 O   0  0  0  0  0  0  0  0  0  0  0  0
   27.9425   32.8493   47.0706 P   0  0  1  0  0  0  0  0  0  0  0  0
   28.4784   33.8549   46.0894 O   0  5  0  0  0  0  0  0  0  0  0  0
   27.2902   31.5859   46.8042 O   0  0  0  0  0  0  0  0  0  0  0  0
   28.9014   33.0368   48.3546 O   0  0  0  0  0  0  0  0  0  0  0  0
   38.1119   30.6226   48.2144 O   0  0  0  0  0  0  0  0  0  0  0  0
   30.1758   32.3654   48.4588 C   0  0  0  0  0  0  0  0  0  0  0  0
   34.3003   31.7937   50.9623 C   0  0  0  0  0  0  0  0  0  0  0  0
   36.8773   31.3592   48.2668 C   0  0  0  0  0  0  0  0  0  0  0  0
   30.9043   32.7873   49.7434 C   0  0  0  0  0  0  0  0  0  0  0  0
   32.9472   32.5413   50.9173 C   0  0  0  0  0  0  0  0  0  0  0  0
   36.2583   31.2549   49.6804 C   0  0  0  0  0  0  0  0  0  0  0  0
  1 12  1  0  0  0  0
  1 11  1  0  0  0  0
  2 13  1  0  0  0  0
  2  9  1  0  0  0  0
  3  4  1  6  0  0  0
  3  5  2  0  0  0  0
  3  6  1  0  0  0  0
  6  8  1  0  0  0  0
  7 10  1  0  0  0  0
  8 11  1  0  0  0  0
  9 12  1  0  0  0  0
 10 13  1  0  0  0  0
M  CHG  1   4  -1
M  END
>  <CHROM.1>
178.45973537,174.39479904,-84.59940453,176.84709531,-178.21557492,-178.71692511
53.88605653,-177.96885154,176.50985870,31.87852697,32.22089260,48.60203215
0.22873968,-0.20442546,1.44683819

>  <Name>
ligand

>  <RI>
0

>  <Rbt.Current_Directory>
/home/itssahil/PROJECTS/Mol_Feturizer/New_Systems/rnas/3GS8

>  <Rbt.Executable>
rbdock ($Id: //depot/dev/client3/rdock/2013.1/src/exe/rbdock.cxx#4 $)

>  <Rbt.Library>
libRbt.so (2013.1, Build901 2013/11/27)

>  <Rbt.Parameter_File>
/export/apps/rDock/src/rDock_2013.1_src/data/scripts/dock_solv.prm

>  <Rbt.Receptor>
prm/pocket_docking_8.prm

>  <SCORE>
-13.7914

>  <SCORE.INTER>
2.29393

>  <SCORE.INTER.CONST>
1

>  <SCORE.INTER.POLAR>
0

>  <SCORE.INTER.ROT>
9

>  <SCORE.INTER.SOLV>
10.4373

>  <SCORE.INTER.VDW>
-11.5498

>  <SCORE.INTER.norm>
0.176456

>  <SCORE.INTRA>
-16.0853

>  <SCORE.INTRA.DIHEDRAL>
-31.1804

>  <SCORE.INTRA.DIHEDRAL.0>
31.9578

>  <SCORE.INTRA.POLAR>
0

>  <SCORE.INTRA.POLAR.0>
0

>  <SCORE.INTRA.REPUL>
0

>  <SCORE.INTRA.REPUL.0>
0

>  <SCORE.INTRA.SOLV>
-1.52998

>  <SCORE.INTRA.SOLV.lig_0>
-48.4032

>  <SCORE.INTRA.VDW>
0.269858

>  <SCORE.INTRA.VDW.0>
-1.65238

>  <SCORE.INTRA.norm>
-1.23733

>  <SCORE.RESTR>
0

>  <SCORE.RESTR.CAVITY>
0

>  <SCORE.RESTR.norm>
0

>  <SCORE.SYSTEM>
0

>  <SCORE.SYSTEM.CONST>
0

>  <SCORE.SYSTEM.DIHEDRAL>
0

>  <SCORE.SYSTEM.SOLV>
0

>  <SCORE.SYSTEM.norm>
0

>  <SCORE.heavy>
13

>  <SCORE.norm>
-1.06088

>  <RMSD>
6.922

$$$$
ligand
 OpenBabel11021811473D
libRbt.so/2013.1/901 2013/11/27
 13 12  0  0  0  0  0  0  0  0999 V2000
   31.2860   33.8812   46.9309 O   0  0  0  0  0  0  0  0  0  0  0  0
   33.2250   33.1345   44.9564 O   0  0  0  0  0  0  0  0  0  0  0  0
   30.5354   36.4693   51.2280 P   0  0  1  0  0  0  0  0  0  0  0  0
   30.2644   37.9484   51.2369 O   0  5  0  0  0  0  0  0  0  0  0  0
   30.4114   35.5215   52.3139 O   0  0  0  0  0  0  0  0  0  0  0  0
   30.2063   36.0412   49.7076 O   0  0  0  0  0  0  0  0  0  0  0  0
   36.5121   31.7997   43.9054 O   0  0  0  0  0  0  0  0  0  0  0  0
   30.9602   35.0165   49.0240 C   0  0  0  0  0  0  0  0  0  0  0  0
   31.8514   32.7151   44.8408 C   0  0  0  0  0  0  0  0  0  0  0  0
   35.5940   32.7002   44.5502 C   0  0  0  0  0  0  0  0  0  0  0  0
   30.4642   34.8550   47.5795 C   0  0  0  0  0  0  0  0  0  0  0  0
   30.9200   33.7284   45.5459 C   0  0  0  0  0  0  0  0  0  0  0  0
   34.1374   32.2748   44.2510 C   0  0  0  0  0  0  0  0  0  0  0  0
  1 12  1  0  0  0  0
  1 11  1  0  0  0  0
  2 13  1  0  0  0  0
  2  9  1  0  0  0  0
  3  4  1  1  0  0  0
  3  5  2  0  0  0  0
  3  6  1  0  0  0  0
  6  8  1  0  0  0  0
  7 10  1  0  0  0  0
  8 11  1  0  0  0  0
  9 12  1  0  0  0  0
 10 13  1  0  0  0  0
M  CHG  1   4  -1
M  END
>  <CHROM.1>
177.73039573,-173.85918169,144.55895515,-177.90175947,177.08275082,-176.49396013
-57.33726219,176.90527551,-177.01568632,31.90599177,34.51007433,47.74211992
1.08063833,0.14816678,-2.03127089

>  <Name>
ligand

>  <RI>
0

>  <Rbt.Current_Directory>
/home/itssahil/PROJECTS/Mol_Feturizer/New_Systems/rnas/3GS8

>  <Rbt.Executable>
rbdock ($Id: //depot/dev/client3/rdock/2013.1/src/exe/rbdock.cxx#4 $)

>  <Rbt.Library>
libRbt.so (2013.1, Build901 2013/11/27)

>  <Rbt.Parameter_File>
/export/apps/rDock/src/rDock_2013.1_src/data/scripts/dock_solv.prm

>  <Rbt.Receptor>
prm/pocket_docking_3.prm

>  <SCORE>
-7.71543

>  <SCORE.INTER>
8.43615

>  <SCORE.INTER.CONST>
1

>  <SCORE.INTER.POLAR>
0

>  <SCORE.INTER.ROT>
9

>  <SCORE.INTER.SOLV>
5.33812

>  <SCORE.INTER.VDW>
-5.75527

>  <SCORE.INTER.norm>
0.648935

>  <SCORE.INTRA>
-16.157

>  <SCORE.INTRA.DIHEDRAL>
-31.0113

>  <SCORE.INTRA.DIHEDRAL.0>
31.9578

>  <SCORE.INTRA.POLAR>
0

>  <SCORE.INTRA.POLAR.0>
0

>  <SCORE.INTRA.REPUL>
0

>  <SCORE.INTRA.REPUL.0>
0

>  <SCORE.INTRA.SOLV>
-1.87105

>  <SCORE.INTRA.SOLV.lig_0>
-48.4032

>  <SCORE.INTRA.VDW>
0.284195

>  <SCORE.INTRA.VDW.0>
-1.65238

>  <SCORE.INTRA.norm>
-1.24284

>  <SCORE.RESTR>
0.00538875

>  <SCORE.RESTR.CAVITY>
0.00538875

>  <SCORE.RESTR.norm>
0.00041452

>  <SCORE.SYSTEM>
0

>  <SCORE.SYSTEM.CONST>
0

>  <SCORE.SYSTEM.DIHEDRAL>
0

>  <SCORE.SYSTEM.SOLV>
0

>  <SCORE.SYSTEM.norm>
0

>  <SCORE.heavy>
13

>  <SCORE.norm>
-0.593495

>  <RMSD>
6.925

$$$$
ligand
 OpenBabel11021811473D
libRbt.so/2013.1/901 2013/11/27
 13 12  0  0  0  0  0  0  0  0999 V2000
   32.6553   32.8673   45.1857 O   0  0  0  0  0  0  0  0  0  0  0  0
   35.2227   31.5806   45.1053 O   0  0  0  0  0  0  0  0  0  0  0  0
   30.9105   35.9895   47.7034 P   0  0  1  0  0  0  0  0  0  0  0  0
   29.7212   36.7301   47.1573 O   0  5  0  0  0  0  0  0  0  0  0  0
   31.2427   35.7053   49.0824 O   0  0  0  0  0  0  0  0  0  0  0  0
   31.2672   34.9429   46.5284 O   0  0  0  0  0  0  0  0  0  0  0  0
   36.6803   31.6037   47.5618 O   0  0  0  0  0  0  0  0  0  0  0  0
   30.8194   33.5705   46.5681 C   0  0  0  0  0  0  0  0  0  0  0  0
   34.6578   32.1906   43.9286 C   0  0  0  0  0  0  0  0  0  0  0  0
   37.1853   30.9205   46.4009 C   0  0  0  0  0  0  0  0  0  0  0  0
   31.2294   32.8320   45.2855 C   0  0  0  0  0  0  0  0  0  0  0  0
   33.1133   32.1778   44.0066 C   0  0  0  0  0  0  0  0  0  0  0  0
   36.6609   31.6025   45.1155 C   0  0  0  0  0  0  0  0  0  0  0  0
  1 12  1  0  0  0  0
  1 11  1  0  0  0  0
  2 13  1  0  0  0  0
  2  9  1  0  0  0  0
  3  4  1  1  0  0  0
  3  5  2  0  0  0  0
  3  6  1  0  0  0  0
  6  8  1  0  0  0  0
  7 10  1  0  0  0  0
  8 11  1  0  0  0  0
  9 12  1  0  0  0  0
 10 13  1  0  0  0  0
M  CHG  1   4  -1
M  END
>  <CHROM.1>
-178.52135843,-179.51471795,-97.75082708,176.52268704,60.01986003,-177.98261478
58.03591069,-59.13283904,179.41534379,32.97814392,33.53739164,46.28816025
0.56213965,0.46852560,-2.09076362

>  <Name>
ligand

>  <RI>
0

>  <Rbt.Current_Directory>
/home/itssahil/PROJECTS/Mol_Feturizer/New_Systems/rnas/3GS8

>  <Rbt.Executable>
rbdock ($Id: //depot/dev/client3/rdock/2013.1/src/exe/rbdock.cxx#4 $)

>  <Rbt.Library>
libRbt.so (2013.1, Build901 2013/11/27)

>  <Rbt.Parameter_File>
/export/apps/rDock/src/rDock_2013.1_src/data/scripts/dock_solv.prm

>  <Rbt.Receptor>
prm/pocket_docking_3.prm

>  <SCORE>
-10.801

>  <SCORE.INTER>
5.40204

>  <SCORE.INTER.CONST>
1

>  <SCORE.INTER.POLAR>
0

>  <SCORE.INTER.ROT>
9

>  <SCORE.INTER.SOLV>
5.71431

>  <SCORE.INTER.VDW>
-7.90341

>  <SCORE.INTER.norm>
0.415541

>  <SCORE.INTRA>
-16.2031

>  <SCORE.INTRA.DIHEDRAL>
-31.2773

>  <SCORE.INTRA.DIHEDRAL.0>
31.9578

>  <SCORE.INTRA.POLAR>
0

>  <SCORE.INTRA.POLAR.0>
0

>  <SCORE.INTRA.REPUL>
0

>  <SCORE.INTRA.REPUL.0>
0

>  <SCORE.INTRA.SOLV>
-1.20261

>  <SCORE.INTRA.SOLV.lig_0>
-48.4032

>  <SCORE.INTRA.VDW>
0.0368767

>  <SCORE.INTRA.VDW.0>
-1.65238

>  <SCORE.INTRA.norm>
-1.24639

>  <SCORE.RESTR>
0

>  <SCORE.RESTR.CAVITY>
0

>  <SCORE.RESTR.norm>
0

>  <SCORE.SYSTEM>
0

>  <SCORE.SYSTEM.CONST>
0

>  <SCORE.SYSTEM.DIHEDRAL>
0

>  <SCORE.SYSTEM.SOLV>
0

>  <SCORE.SYSTEM.norm>
0

>  <SCORE.heavy>
13

>  <SCORE.norm>
-0.830848

>  <RMSD>
6.934

$$$$
ligand
 OpenBabel11021811473D
libRbt.so/2013.1/901 2013/11/27
 13 12  0  0  0  0  0  0  0  0999 V2000
   32.0110   32.3852   45.0033 O   0  0  0  0  0  0  0  0  0  0  0  0
   34.9003   31.7927   44.5947 O   0  0  0  0  0  0  0  0  0  0  0  0
   30.5886   32.8232   49.1320 P   0  0  1  0  0  0  0  0  0  0  0  0
   30.3571   34.2308   49.6073 O   0  5  0  0  0  0  0  0  0  0  0  0
   29.8986   31.6129   49.5217 O   0  0  0  0  0  0  0  0  0  0  0  0
   31.1294   33.0248   47.6253 O   0  0  0  0  0  0  0  0  0  0  0  0
   36.5211   31.0802   46.8437 O   0  0  0  0  0  0  0  0  0  0  0  0
   30.2372   33.0333   46.4897 C   0  0  0  0  0  0  0  0  0  0  0  0
   33.8704   31.5793   43.6099 C   0  0  0  0  0  0  0  0  0  0  0  0
   37.0808   31.2029   45.5241 C   0  0  0  0  0  0  0  0  0  0  0  0
   31.0032   33.3793   45.2044 C   0  0  0  0  0  0  0  0  0  0  0  0
   32.7394   32.6198   43.7826 C   0  0  0  0  0  0  0  0  0  0  0  0
   36.0048   30.8808   44.4608 C   0  0  0  0  0  0  0  0  0  0  0  0
  1 12  1  0  0  0  0
  1 11  1  0  0  0  0
  2 13  1  0  0  0  0
  2  9  1  0  0  0  0
  3  4  1  6  0  0  0
  3  5  2  0  0  0  0
  3  6  1  0  0  0  0
  6  8  1  0  0  0  0
  7 10  1  0  0  0  0
  8 11  1  0  0  0  0
  9 12  1  0  0  0  0
 10 13  1  0  0  0  0
M  CHG  1   4  -1
M  END
>  <CHROM.1>
177.26498546,178.32777932,-91.84060161,174.45480424,60.43645745,-178.15895601
-68.83627594,59.73470710,177.83279762,32.60011036,32.32811788,46.54447135
0.60810163,0.33330811,-1.51555724

>  <Name>
ligand

>  <RI>
0

>  <Rbt.Current_Directory>
/home/itssahil/PROJECTS/Mol_Feturizer/New_Systems/rnas/3GS8

>  <Rbt.Executable>
rbdock ($Id: //depot/dev/client3/rdock/2013.1/src/exe/rbdock.cxx#4 $)

>  <Rbt.Library>
libRbt.so (2013.1, Build901 2013/11/27)

>  <Rbt.Parameter_File>
/export/apps/rDock/src/rDock_2013.1_src/data/scripts/dock_solv.prm

>  <Rbt.Receptor>
prm/pocket_docking_5.prm

>  <SCORE>
-12.5431

>  <SCORE.INTER>
3.49355

>  <SCORE.INTER.CONST>
1

>  <SCORE.INTER.POLAR>
0

>  <SCORE.INTER.ROT>
9

>  <SCORE.INTER.SOLV>
10.9319

>  <SCORE.INTER.VDW>
-10.9149

>  <SCORE.INTER.norm>
0.268735

>  <SCORE.INTRA>
-16.0367

>  <SCORE.INTRA.DIHEDRAL>
-30.9862

>  <SCORE.INTRA.DIHEDRAL.0>
31.9578

>  <SCORE.INTRA.POLAR>
0

>  <SCORE.INTRA.POLAR.0>
0

>  <SCORE.INTRA.REPUL>
0

>  <SCORE.INTRA.REPUL.0>
0

>  <SCORE.INTRA.SOLV>
-1.22804

>  <SCORE.INTRA.SOLV.lig_0>
-48.4032

>  <SCORE.INTRA.VDW>
0.0704447

>  <SCORE.INTRA.VDW.0>
-1.65238

>  <SCORE.INTRA.norm>
-1.23359

>  <SCORE.RESTR>
0

>  <SCORE.RESTR.CAVITY>
0

>  <SCORE.RESTR.norm>
0

>  <SCORE.SYSTEM>
0

>  <SCORE.SYSTEM.CONST>
0

>  <SCORE.SYSTEM.DIHEDRAL>
0

>  <SCORE.SYSTEM.SOLV>
0

>  <SCORE.SYSTEM.norm>
0

>  <SCORE.heavy>
13

>  <SCORE.norm>
-0.964856

>  <RMSD>
6.935

$$$$
ligand
 OpenBabel11021811473D
libRbt.so/2013.1/901 2013/11/27
 13 12  0  0  0  0  0  0  0  0999 V2000
   36.4286   31.4140   47.8322 O   0  0  0  0  0  0  0  0  0  0  0  0
   36.0188   31.5492   51.5223 O   0  0  0  0  0  0  0  0  0  0  0  0
   35.1085   31.5039   43.7221 P   0  0  1  0  0  0  0  0  0  0  0  0
   35.4703   30.3786   42.7927 O   0  5  0  0  0  0  0  0  0  0  0  0
   33.9868   32.4142   43.6451 O   0  0  0  0  0  0  0  0  0  0  0  0
   35.6814   31.0073   45.1463 O   0  0  0  0  0  0  0  0  0  0  0  0
   36.9824   32.5284   54.0064 O   0  0  0  0  0  0  0  0  0  0  0  0
   37.0616   31.2037   45.5233 C   0  0  0  0  0  0  0  0  0  0  0  0
   35.6785   31.7927   50.1436 C   0  0  0  0  0  0  0  0  0  0  0  0
   35.6445   32.0124   53.8911 C   0  0  0  0  0  0  0  0  0  0  0  0
   37.3062   30.7038   46.9548 C   0  0  0  0  0  0  0  0  0  0  0  0
   36.6762   31.0695   49.2091 C   0  0  0  0  0  0  0  0  0  0  0  0
   35.1278   32.1997   52.4454 C   0  0  0  0  0  0  0  0  0  0  0  0
  1 12  1  0  0  0  0
  1 11  1  0  0  0  0
  2 13  1  0  0  0  0
  2  9  1  0  0  0  0
  3  4  1  6  0  0  0
  3  5  2  0  0  0  0
  3  6  1  0  0  0  0
  6  8  1  0  0  0  0
  7 10  1  0  0  0  0
  8 11  1  0  0  0  0
  9 12  1  0  0  0  0
 10 13  1  0  0  0  0
M  CHG  1   4  -1
M  END
>  <CHROM.1>
-177.35827157,-174.12353279,83.87721207,176.90850927,-58.20280410,179.84589273
-174.19951171,57.26451585,-175.52602938,35.86002230,31.52146512,47.81638442
-1.47388689,0.45733789,-1.69701603

>  <Name>
ligand

>  <RI>
0

>  <Rbt.Current_Directory>
/home/itssahil/PROJECTS/Mol_Feturizer/New_Systems/rnas/3GS8

>  <Rbt.Executable>
rbdock ($Id: //depot/dev/client3/rdock/2013.1/src/exe/rbdock.cxx#4 $)

>  <Rbt.Library>
libRbt.so (2013.1, Build901 2013/11/27)

>  <Rbt.Parameter_File>
/export/apps/rDock/src/rDock_2013.1_src/data/scripts/dock_solv.prm

>  <Rbt.Receptor>
prm/pocket_docking_8.prm

>  <SCORE>
-16.3788

>  <SCORE.INTER>
-0.675663

>  <SCORE.INTER.CONST>
1

>  <SCORE.INTER.POLAR>
0

>  <SCORE.INTER.ROT>
9

>  <SCORE.INTER.SOLV>
11.3579

>  <SCORE.INTER.VDW>
-13.8364

>  <SCORE.INTER.norm>
-0.051974

>  <SCORE.INTRA>
-15.7031

>  <SCORE.INTRA.DIHEDRAL>
-30.3733

>  <SCORE.INTRA.DIHEDRAL.0>
31.9578

>  <SCORE.INTRA.POLAR>
0

>  <SCORE.INTRA.POLAR.0>
0

>  <SCORE.INTRA.REPUL>
0

>  <SCORE.INTRA.REPUL.0>
0

>  <SCORE.INTRA.SOLV>
-1.50693

>  <SCORE.INTRA.SOLV.lig_0>
-48.4032

>  <SCORE.INTRA.VDW>
0.236978

>  <SCORE.INTRA.VDW.0>
-1.65238

>  <SCORE.INTRA.norm>
-1.20793

>  <SCORE.RESTR>
0

>  <SCORE.RESTR.CAVITY>
0

>  <SCORE.RESTR.norm>
0

>  <SCORE.SYSTEM>
0

>  <SCORE.SYSTEM.CONST>
0

>  <SCORE.SYSTEM.DIHEDRAL>
0

>  <SCORE.SYSTEM.SOLV>
0

>  <SCORE.SYSTEM.norm>
0

>  <SCORE.heavy>
13

>  <SCORE.norm>
-1.25991

>  <RMSD>
6.988

$$$$
ligand
 OpenBabel11021811473D
libRbt.so/2013.1/901 2013/11/27
 13 12  0  0  0  0  0  0  0  0999 V2000
   32.0981   32.4106   44.9389 O   0  0  0  0  0  0  0  0  0  0  0  0
   34.9933   31.8133   44.6233 O   0  0  0  0  0  0  0  0  0  0  0  0
   30.3044   32.5064   48.9491 P   0  0  1  0  0  0  0  0  0  0  0  0
   31.4874   32.3619   49.8660 O   0  5  0  0  0  0  0  0  0  0  0  0
   28.9603   32.9353   49.2690 O   0  0  0  0  0  0  0  0  0  0  0  0
   30.9783   32.8694   47.5287 O   0  0  0  0  0  0  0  0  0  0  0  0
   36.4642   30.9981   46.9132 O   0  0  0  0  0  0  0  0  0  0  0  0
   30.2013   32.9468   46.3138 C   0  0  0  0  0  0  0  0  0  0  0  0
   34.0070   31.6542   43.5851 C   0  0  0  0  0  0  0  0  0  0  0  0
   37.1122   31.1437   45.6371 C   0  0  0  0  0  0  0  0  0  0  0  0
   31.0816   33.3961   45.1382 C   0  0  0  0  0  0  0  0  0  0  0  0
   32.8739   32.6925   43.7581 C   0  0  0  0  0  0  0  0  0  0  0  0
   36.0964   30.8988   44.4967 C   0  0  0  0  0  0  0  0  0  0  0  0
  1 12  1  0  0  0  0
  1 11  1  0  0  0  0
  2 13  1  0  0  0  0
  2  9  1  0  0  0  0
  3  4  1  1  0  0  0
  3  5  2  0  0  0  0
  3  6  1  0  0  0  0
  6  8  1  0  0  0  0
  7 10  1  0  0  0  0
  8 11  1  0  0  0  0
  9 12  1  0  0  0  0
 10 13  1  0  0  0  0
M  CHG  1   4  -1
M  END
>  <CHROM.1>
177.63315115,179.45980198,172.80197063,176.38677079,62.40475082,-178.35223575
-68.35791518,57.51598083,173.68703070,32.59985714,32.22815344,46.50387050
0.55391453,0.31207781,-1.45423107

>  <Name>
ligand

>  <RI>
0

>  <Rbt.Current_Directory>
/home/itssahil/PROJECTS/Mol_Feturizer/New_Systems/rnas/3GS8

>  <Rbt.Executable>
rbdock ($Id: //depot/dev/client3/rdock/2013.1/src/exe/rbdock.cxx#4 $)

>  <Rbt.Library>
libRbt.so (2013.1, Build901 2013/11/27)

>  <Rbt.Parameter_File>
/export/apps/rDock/src/rDock_2013.1_src/data/scripts/dock_solv.prm

>  <Rbt.Receptor>
prm/pocket_docking_3.prm

>  <SCORE>
-12.8194

>  <SCORE.INTER>
3.28068

>  <SCORE.INTER.CONST>
1

>  <SCORE.INTER.POLAR>
0

>  <SCORE.INTER.ROT>
9

>  <SCORE.INTER.SOLV>
12.0019

>  <SCORE.INTER.VDW>
-11.4135

>  <SCORE.INTER.norm>
0.25236

>  <SCORE.INTRA>
-16.1001

>  <SCORE.INTRA.DIHEDRAL>
-31.0091

>  <SCORE.INTRA.DIHEDRAL.0>
31.9578

>  <SCORE.INTRA.POLAR>
0

>  <SCORE.INTRA.POLAR.0>
0

>  <SCORE.INTRA.REPUL>
0

>  <SCORE.INTRA.REPUL.0>
0

>  <SCORE.INTRA.SOLV>
-1.44819

>  <SCORE.INTRA.SOLV.lig_0>
-48.4032

>  <SCORE.INTRA.VDW>
0.128512

>  <SCORE.INTRA.VDW.0>
-1.65238

>  <SCORE.INTRA.norm>
-1.23847

>  <SCORE.RESTR>
0

>  <SCORE.RESTR.CAVITY>
0

>  <SCORE.RESTR.norm>
0

>  <SCORE.SYSTEM>
0

>  <SCORE.SYSTEM.CONST>
0

>  <SCORE.SYSTEM.DIHEDRAL>
0

>  <SCORE.SYSTEM.SOLV>
0

>  <SCORE.SYSTEM.norm>
0

>  <SCORE.heavy>
13

>  <SCORE.norm>
-0.98611

>  <RMSD>
6.989

$$$$
ligand
 OpenBabel11021811473D
libRbt.so/2013.1/901 2013/11/27
 13 12  0  0  0  0  0  0  0  0999 V2000
   35.3000   31.5978   44.9638 O   0  0  0  0  0  0  0  0  0  0  0  0
   36.5090   31.0842   47.4721 O   0  0  0  0  0  0  0  0  0  0  0  0
   31.9670   34.2167   44.2080 P   0  0  1  0  0  0  0  0  0  0  0  0
   31.8832   34.4888   45.6845 O   0  5  0  0  0  0  0  0  0  0  0  0
   31.5133   35.0420   43.1100 O   0  0  0  0  0  0  0  0  0  0  0  0
   33.2927   33.3070   44.0733 O   0  0  0  0  0  0  0  0  0  0  0  0
   34.9337   32.1394   49.6324 O   0  0  0  0  0  0  0  0  0  0  0  0
   33.2211   31.8918   43.7943 C   0  0  0  0  0  0  0  0  0  0  0  0
   37.3348   31.3666   46.3257 C   0  0  0  0  0  0  0  0  0  0  0  0
   36.0937   31.3216   49.8673 C   0  0  0  0  0  0  0  0  0  0  0  0
   34.6290   31.2804   43.7418 C   0  0  0  0  0  0  0  0  0  0  0  0
   36.5976   30.9747   45.0239 C   0  0  0  0  0  0  0  0  0  0  0  0
   37.1079   31.4975   48.7129 C   0  0  0  0  0  0  0  0  0  0  0  0
  1 12  1  0  0  0  0
  1 11  1  0  0  0  0
  2 13  1  0  0  0  0
  2  9  1  0  0  0  0
  3  4  1  1  0  0  0
  3  5  2  0  0  0  0
  3  6  1  0  0  0  0
  6  8  1  0  0  0  0
  7 10  1  0  0  0  0
  8 11  1  0  0  0  0
  9 12  1  0  0  0  0
 10 13  1  0  0  0  0
M  CHG  1   4  -1
M  END
>  <CHROM.1>
177.92076471,173.04318050,107.09371562,-179.16954716,54.55800775,-176.66265802
53.52354462,-60.98371740,175.95181476,34.38844461,32.51038824,45.75387292
-0.61701304,0.64883677,-1.70880976

>  <Name>
ligand

>  <RI>
0

>  <Rbt.Current_Directory>
/home/itssahil/PROJECTS/Mol_Feturizer/New_Systems/rnas/3GS8

>  <Rbt.Executable>
rbdock ($Id: //depot/dev/client3/rdock/2013.1/src/exe/rbdock.cxx#4 $)

>  <Rbt.Library>
libRbt.so (2013.1, Build901 2013/11/27)

>  <Rbt.Parameter_File>
/export/apps/rDock/src/rDock_2013.1_src/data/scripts/dock_solv.prm

>  <Rbt.Receptor>
prm/pocket_docking_5.prm

>  <SCORE>
-13.6779

>  <SCORE.INTER>
1.95795

>  <SCORE.INTER.CONST>
1

>  <SCORE.INTER.POLAR>
0

>  <SCORE.INTER.ROT>
9

>  <SCORE.INTER.SOLV>
9.20905

>  <SCORE.INTER.VDW>
-11.3644

>  <SCORE.INTER.norm>
0.150612

>  <SCORE.INTRA>
-15.6358

>  <SCORE.INTRA.DIHEDRAL>
-29.98

>  <SCORE.INTRA.DIHEDRAL.0>
31.9578

>  <SCORE.INTRA.POLAR>
0

>  <SCORE.INTRA.POLAR.0>
0

>  <SCORE.INTRA.REPUL>
0

>  <SCORE.INTRA.REPUL.0>
0

>  <SCORE.INTRA.SOLV>
-1.38833

>  <SCORE.INTRA.SOLV.lig_0>
-48.4032

>  <SCORE.INTRA.VDW>
0.0483356

>  <SCORE.INTRA.VDW.0>
-1.65238

>  <SCORE.INTRA.norm>
-1.20276

>  <SCORE.RESTR>
0

>  <SCORE.RESTR.CAVITY>
0

>  <SCORE.RESTR.norm>
0

>  <SCORE.SYSTEM>
0

>  <SCORE.SYSTEM.CONST>
0

>  <SCORE.SYSTEM.DIHEDRAL>
0

>  <SCORE.SYSTEM.SOLV>
0

>  <SCORE.SYSTEM.norm>
0

>  <SCORE.heavy>
13

>  <SCORE.norm>
-1.05215

>  <RMSD>
6.989

$$$$
ligand
 OpenBabel11021811473D
libRbt.so/2013.1/901 2013/11/27
 13 12  0  0  0  0  0  0  0  0999 V2000
   34.9475   31.8444   44.5904 O   0  0  0  0  0  0  0  0  0  0  0  0
   36.3663   31.4511   47.0461 O   0  0  0  0  0  0  0  0  0  0  0  0
   31.0559   33.6850   45.2278 P   0  0  1  0  0  0  0  0  0  0  0  0
   30.5318   33.2442   46.5665 O   0  5  0  0  0  0  0  0  0  0  0  0
   31.1025   35.0192   44.6704 O   0  0  0  0  0  0  0  0  0  0  0  0
   32.2165   32.6097   44.9117 O   0  0  0  0  0  0  0  0  0  0  0  0
   35.7396   30.8951   49.7755 O   0  0  0  0  0  0  0  0  0  0  0  0
   32.8615   32.5412   43.6213 C   0  0  0  0  0  0  0  0  0  0  0  0
   37.0147   31.2389   45.7770 C   0  0  0  0  0  0  0  0  0  0  0  0
   36.5085   32.0543   49.4087 C   0  0  0  0  0  0  0  0  0  0  0  0
   33.9620   31.4700   43.6245 C   0  0  0  0  0  0  0  0  0  0  0  0
   35.9752   30.8411   44.7034 C   0  0  0  0  0  0  0  0  0  0  0  0
   37.2874   31.7805   48.1007 C   0  0  0  0  0  0  0  0  0  0  0  0
  1 12  1  0  0  0  0
  1 11  1  0  0  0  0
  2 13  1  0  0  0  0
  2  9  1  0  0  0  0
  3  4  1  1  0  0  0
  3  5  2  0  0  0  0
  3  6  1  0  0  0  0
  6  8  1  0  0  0  0
  7 10  1  0  0  0  0
  8 11  1  0  0  0  0
  9 12  1  0  0  0  0
 10 13  1  0  0  0  0
M  CHG  1   4  -1
M  END
>  <CHROM.1>
-178.50034399,177.44700480,170.77794243,177.59746310,-61.96499571,178.01286641
57.00347063,58.99639644,176.63104801,33.97190390,32.34157312,45.95419007
-0.43033525,0.44481353,-1.67141724

>  <Name>
ligand

>  <RI>
0

>  <Rbt.Current_Directory>
/home/itssahil/PROJECTS/Mol_Feturizer/New_Systems/rnas/3GS8

>  <Rbt.Executable>
rbdock ($Id: //depot/dev/client3/rdock/2013.1/src/exe/rbdock.cxx#4 $)

>  <Rbt.Library>
libRbt.so (2013.1, Build901 2013/11/27)

>  <Rbt.Parameter_File>
/export/apps/rDock/src/rDock_2013.1_src/data/scripts/dock_solv.prm

>  <Rbt.Receptor>
prm/pocket_docking_7.prm

>  <SCORE>
-14.0011

>  <SCORE.INTER>
2.33877

>  <SCORE.INTER.CONST>
1

>  <SCORE.INTER.POLAR>
0

>  <SCORE.INTER.ROT>
9

>  <SCORE.INTER.SOLV>
12.3879

>  <SCORE.INTER.VDW>
-12.1701

>  <SCORE.INTER.norm>
0.179906

>  <SCORE.INTRA>
-16.3399

>  <SCORE.INTRA.DIHEDRAL>
-31.4398

>  <SCORE.INTRA.DIHEDRAL.0>
31.9578

>  <SCORE.INTRA.POLAR>
0

>  <SCORE.INTRA.POLAR.0>
0

>  <SCORE.INTRA.REPUL>
0

>  <SCORE.INTRA.REPUL.0>
0

>  <SCORE.INTRA.SOLV>
-1.40569

>  <SCORE.INTRA.SOLV.lig_0>
-48.4032

>  <SCORE.INTRA.VDW>
0.082816

>  <SCORE.INTRA.VDW.0>
-1.65238

>  <SCORE.INTRA.norm>
-1.25692

>  <SCORE.RESTR>
0

>  <SCORE.RESTR.CAVITY>
0

>  <SCORE.RESTR.norm>
0

>  <SCORE.SYSTEM>
0

>  <SCORE.SYSTEM.CONST>
0

>  <SCORE.SYSTEM.DIHEDRAL>
0

>  <SCORE.SYSTEM.SOLV>
0

>  <SCORE.SYSTEM.norm>
0

>  <SCORE.heavy>
13

>  <SCORE.norm>
-1.07701

>  <RMSD>
6.992

$$$$
ligand
 OpenBabel11021811473D
libRbt.so/2013.1/901 2013/11/27
 13 12  0  0  0  0  0  0  0  0999 V2000
   34.0922   32.0849   49.5875 O   0  0  0  0  0  0  0  0  0  0  0  0
   36.5920   31.5013   48.4063 O   0  0  0  0  0  0  0  0  0  0  0  0
   31.1130   33.4778   46.6970 P   0  0  1  0  0  0  0  0  0  0  0  0
   29.9167   34.1128   47.3501 O   0  5  0  0  0  0  0  0  0  0  0  0
   31.5392   33.5604   45.3170 O   0  0  0  0  0  0  0  0  0  0  0  0
   32.1885   33.3920   47.8967 O   0  0  0  0  0  0  0  0  0  0  0  0
   36.4538   30.8590   45.6271 O   0  0  0  0  0  0  0  0  0  0  0  0
   31.8472   32.8448   49.1889 C   0  0  0  0  0  0  0  0  0  0  0  0
   36.3898   31.2361   49.8080 C   0  0  0  0  0  0  0  0  0  0  0  0
   37.7181   30.9761   46.3035 C   0  0  0  0  0  0  0  0  0  0  0  0
   33.0552   32.9028   50.1354 C   0  0  0  0  0  0  0  0  0  0  0  0
   35.2941   32.1672   50.3775 C   0  0  0  0  0  0  0  0  0  0  0  0
   37.5530   30.6197   47.7995 C   0  0  0  0  0  0  0  0  0  0  0  0
  1 12  1  0  0  0  0
  1 11  1  0  0  0  0
  2 13  1  0  0  0  0
  2  9  1  0  0  0  0
  3  4  1  1  0  0  0
  3  5  2  0  0  0  0
  3  6  1  0  0  0  0
  6  8  1  0  0  0  0
  7 10  1  0  0  0  0
  8 11  1  0  0  0  0
  9 12  1  0  0  0  0
 10 13  1  0  0  0  0
M  CHG  1   4  -1
M  END
>  <CHROM.1>
177.75336520,-179.60921482,49.39780619,-179.39537104,-62.74548392,-177.02228027
52.90450929,-59.06127214,175.91701807,33.85466356,32.39956289,47.89262375
0.11057174,-0.40709085,1.54753079

>  <Name>
ligand

>  <RI>
0

>  <Rbt.Current_Directory>
/home/itssahil/PROJECTS/Mol_Feturizer/New_Systems/rnas/3GS8

>  <Rbt.Executable>
rbdock ($Id: //depot/dev/client3/rdock/2013.1/src/exe/rbdock.cxx#4 $)

>  <Rbt.Library>
libRbt.so (2013.1, Build901 2013/11/27)

>  <Rbt.Parameter_File>
/export/apps/rDock/src/rDock_2013.1_src/data/scripts/dock_solv.prm

>  <Rbt.Receptor>
prm/pocket_docking_8.prm

>  <SCORE>
-13.4595

>  <SCORE.INTER>
2.48872

>  <SCORE.INTER.CONST>
1

>  <SCORE.INTER.POLAR>
0

>  <SCORE.INTER.ROT>
9

>  <SCORE.INTER.SOLV>
8.22045

>  <SCORE.INTER.VDW>
-10.681

>  <SCORE.INTER.norm>
0.19144

>  <SCORE.INTRA>
-15.9482

>  <SCORE.INTRA.DIHEDRAL>
-31.2786

>  <SCORE.INTRA.DIHEDRAL.0>
31.9578

>  <SCORE.INTRA.POLAR>
0

>  <SCORE.INTRA.POLAR.0>
0

>  <SCORE.INTRA.REPUL>
0

>  <SCORE.INTRA.REPUL.0>
0

>  <SCORE.INTRA.SOLV>
-1.20409

>  <SCORE.INTRA.SOLV.lig_0>
-48.4032

>  <SCORE.INTRA.VDW>
0.293176

>  <SCORE.INTRA.VDW.0>
-1.65238

>  <SCORE.INTRA.norm>
-1.22678

>  <SCORE.RESTR>
0

>  <SCORE.RESTR.CAVITY>
0

>  <SCORE.RESTR.norm>
0

>  <SCORE.SYSTEM>
0

>  <SCORE.SYSTEM.CONST>
0

>  <SCORE.SYSTEM.DIHEDRAL>
0

>  <SCORE.SYSTEM.SOLV>
0

>  <SCORE.SYSTEM.norm>
0

>  <SCORE.heavy>
13

>  <SCORE.norm>
-1.03534

>  <RMSD>
6.994

$$$$
ligand
 OpenBabel11021811473D
libRbt.so/2013.1/901 2013/11/27
 13 12  0  0  0  0  0  0  0  0999 V2000
   34.0648   32.2357   49.5570 O   0  0  0  0  0  0  0  0  0  0  0  0
   36.5239   31.4967   48.2875 O   0  0  0  0  0  0  0  0  0  0  0  0
   30.9992   33.5004   46.7191 P   0  0  1  0  0  0  0  0  0  0  0  0
   29.9985   32.4659   47.1543 O   0  5  0  0  0  0  0  0  0  0  0  0
   30.7656   34.7471   46.0235 O   0  0  0  0  0  0  0  0  0  0  0  0
   32.1716   33.3682   47.8197 O   0  0  0  0  0  0  0  0  0  0  0  0
   36.3564   30.9185   45.4836 O   0  0  0  0  0  0  0  0  0  0  0  0
   31.8830   33.1866   49.2230 C   0  0  0  0  0  0  0  0  0  0  0  0
   36.2972   31.2113   49.6814 C   0  0  0  0  0  0  0  0  0  0  0  0
   37.6179   30.9448   46.1746 C   0  0  0  0  0  0  0  0  0  0  0  0
   33.1755   33.2404   50.0509 C   0  0  0  0  0  0  0  0  0  0  0  0
   35.3082   32.2358   50.2848 C   0  0  0  0  0  0  0  0  0  0  0  0
   37.4164   30.5599   47.6590 C   0  0  0  0  0  0  0  0  0  0  0  0
  1 12  1  0  0  0  0
  1 11  1  0  0  0  0
  2 13  1  0  0  0  0
  2  9  1  0  0  0  0
  3  4  1  1  0  0  0
  3  5  2  0  0  0  0
  3  6  1  0  0  0  0
  6  8  1  0  0  0  0
  7 10  1  0  0  0  0
  8 11  1  0  0  0  0
  9 12  1  0  0  0  0
 10 13  1  0  0  0  0
M  CHG  1   4  -1
M  END
>  <CHROM.1>
-176.18867204,-179.38366779,-41.18574704,-174.05139134,-57.22544679,-178.79149769
57.12702071,-60.30391500,179.55988949,33.75905930,32.42376537,47.87072072
0.06987376,-0.40100890,1.49971908

>  <Name>
ligand

>  <RI>
0

>  <Rbt.Current_Directory>
/home/itssahil/PROJECTS/Mol_Feturizer/New_Systems/rnas/3GS8

>  <Rbt.Executable>
rbdock ($Id: //depot/dev/client3/rdock/2013.1/src/exe/rbdock.cxx#4 $)

>  <Rbt.Library>
libRbt.so (2013.1, Build901 2013/11/27)

>  <Rbt.Parameter_File>
/export/apps/rDock/src/rDock_2013.1_src/data/scripts/dock_solv.prm

>  <Rbt.Receptor>
prm/pocket_docking_5.prm

>  <SCORE>
-12.9409

>  <SCORE.INTER>
2.54841

>  <SCORE.INTER.CONST>
1

>  <SCORE.INTER.POLAR>
0

>  <SCORE.INTER.ROT>
9

>  <SCORE.INTER.SOLV>
7.99719

>  <SCORE.INTER.VDW>
-10.5668

>  <SCORE.INTER.norm>
0.196032

>  <SCORE.INTRA>
-15.4893

>  <SCORE.INTRA.DIHEDRAL>
-30.6994

>  <SCORE.INTRA.DIHEDRAL.0>
31.9578

>  <SCORE.INTRA.POLAR>
0

>  <SCORE.INTRA.POLAR.0>
0

>  <SCORE.INTRA.REPUL>
0

>  <SCORE.INTRA.REPUL.0>
0

>  <SCORE.INTRA.SOLV>
-1.0628

>  <SCORE.INTRA.SOLV.lig_0>
-48.4032

>  <SCORE.INTRA.VDW>
0.391816

>  <SCORE.INTRA.VDW.0>
-1.65238

>  <SCORE.INTRA.norm>
-1.19148

>  <SCORE.RESTR>
0

>  <SCORE.RESTR.CAVITY>
0

>  <SCORE.RESTR.norm>
0

>  <SCORE.SYSTEM>
0

>  <SCORE.SYSTEM.CONST>
0

>  <SCORE.SYSTEM.DIHEDRAL>
0

>  <SCORE.SYSTEM.SOLV>
0

>  <SCORE.SYSTEM.norm>
0

>  <SCORE.heavy>
13

>  <SCORE.norm>
-0.995451

>  <RMSD>
7.008

$$$$
ligand
 OpenBabel11021811473D
libRbt.so/2013.1/901 2013/11/27
 13 12  0  0  0  0  0  0  0  0999 V2000
   36.0985   30.9161   45.6616 O   0  0  0  0  0  0  0  0  0  0  0  0
   36.5578   31.4010   48.3879 O   0  0  0  0  0  0  0  0  0  0  0  0
   32.5787   33.0957   44.1806 P   0  0  1  0  0  0  0  0  0  0  0  0
   32.6194   33.5165   42.7376 O   0  5  0  0  0  0  0  0  0  0  0  0
   31.4602   32.5816   44.9407 O   0  0  0  0  0  0  0  0  0  0  0  0
   34.0818   32.5795   44.4588 O   0  0  0  0  0  0  0  0  0  0  0  0
   35.4073   31.6965   51.8930 O   0  0  0  0  0  0  0  0  0  0  0  0
   34.6049   31.3851   43.8380 C   0  0  0  0  0  0  0  0  0  0  0  0
   37.4790   30.5609   47.6656 C   0  0  0  0  0  0  0  0  0  0  0  0
   35.4305   31.9653   50.4799 C   0  0  0  0  0  0  0  0  0  0  0  0
   36.0661   31.1573   44.2526 C   0  0  0  0  0  0  0  0  0  0  0  0
   37.4508   30.9059   46.1584 C   0  0  0  0  0  0  0  0  0  0  0  0
   36.5536   31.1449   49.8034 C   0  0  0  0  0  0  0  0  0  0  0  0
  1 12  1  0  0  0  0
  1 11  1  0  0  0  0
  2 13  1  0  0  0  0
  2  9  1  0  0  0  0
  3  4  1  6  0  0  0
  3  5  2  0  0  0  0
  3  6  1  0  0  0  0
  6  8  1  0  0  0  0
  7 10  1  0  0  0  0
  8 11  1  0  0  0  0
  9 12  1  0  0  0  0
 10 13  1  0  0  0  0
M  CHG  1   4  -1
M  END
>  <CHROM.1>
-176.62365436,-173.50480512,-67.81134241,178.47845938,64.30200522,-178.98594981
-50.78406898,179.06645220,-170.76950258,34.86262436,31.88887574,46.30244483
-1.01290144,0.44143981,-1.59444528

>  <Name>
ligand

>  <RI>
0

>  <Rbt.Current_Directory>
/home/itssahil/PROJECTS/Mol_Feturizer/New_Systems/rnas/3GS8

>  <Rbt.Executable>
rbdock ($Id: //depot/dev/client3/rdock/2013.1/src/exe/rbdock.cxx#4 $)

>  <Rbt.Library>
libRbt.so (2013.1, Build901 2013/11/27)

>  <Rbt.Parameter_File>
/export/apps/rDock/src/rDock_2013.1_src/data/scripts/dock_solv.prm

>  <Rbt.Receptor>
prm/pocket_docking_6.prm

>  <SCORE>
-14.4114

>  <SCORE.INTER>
1.37252

>  <SCORE.INTER.CONST>
1

>  <SCORE.INTER.POLAR>
0

>  <SCORE.INTER.ROT>
9

>  <SCORE.INTER.SOLV>
16.7012

>  <SCORE.INTER.VDW>
-14.2521

>  <SCORE.INTER.norm>
0.105578

>  <SCORE.INTRA>
-15.7839

>  <SCORE.INTRA.DIHEDRAL>
-30.5442

>  <SCORE.INTRA.DIHEDRAL.0>
31.9578

>  <SCORE.INTRA.POLAR>
0

>  <SCORE.INTRA.POLAR.0>
0

>  <SCORE.INTRA.REPUL>
0

>  <SCORE.INTRA.REPUL.0>
0

>  <SCORE.INTRA.SOLV>
-1.38695

>  <SCORE.INTRA.SOLV.lig_0>
-48.4032

>  <SCORE.INTRA.VDW>
0.181673

>  <SCORE.INTRA.VDW.0>
-1.65238

>  <SCORE.INTRA.norm>
-1.21414

>  <SCORE.RESTR>
0

>  <SCORE.RESTR.CAVITY>
0

>  <SCORE.RESTR.norm>
0

>  <SCORE.SYSTEM>
0

>  <SCORE.SYSTEM.CONST>
0

>  <SCORE.SYSTEM.DIHEDRAL>
0

>  <SCORE.SYSTEM.SOLV>
0

>  <SCORE.SYSTEM.norm>
0

>  <SCORE.heavy>
13

>  <SCORE.norm>
-1.10857

>  <RMSD>
7.014

$$$$
ligand
 OpenBabel11021811473D
libRbt.so/2013.1/901 2013/11/27
 13 12  0  0  0  0  0  0  0  0999 V2000
   31.9956   32.3598   44.9561 O   0  0  0  0  0  0  0  0  0  0  0  0
   34.9068   31.7608   44.6262 O   0  0  0  0  0  0  0  0  0  0  0  0
   30.2341   32.3731   48.9465 P   0  0  1  0  0  0  0  0  0  0  0  0
   31.2778   32.7829   49.9484 O   0  5  0  0  0  0  0  0  0  0  0  0
   28.7976   32.3186   49.1090 O   0  0  0  0  0  0  0  0  0  0  0  0
   30.8971   32.7800   47.5329 O   0  0  0  0  0  0  0  0  0  0  0  0
   36.6033   30.9156   46.8370 O   0  0  0  0  0  0  0  0  0  0  0  0
   30.1068   32.9202   46.3324 C   0  0  0  0  0  0  0  0  0  0  0  0
   33.9018   31.5855   43.6088 C   0  0  0  0  0  0  0  0  0  0  0  0
   37.1107   31.2092   45.5232 C   0  0  0  0  0  0  0  0  0  0  0  0
   30.9893   33.3561   45.1534 C   0  0  0  0  0  0  0  0  0  0  0  0
   32.7783   32.6347   43.7782 C   0  0  0  0  0  0  0  0  0  0  0  0
   36.0373   30.8874   44.4572 C   0  0  0  0  0  0  0  0  0  0  0  0
  1 12  1  0  0  0  0
  1 11  1  0  0  0  0
  2 13  1  0  0  0  0
  2  9  1  0  0  0  0
  3  4  1  1  0  0  0
  3  5  2  0  0  0  0
  3  6  1  0  0  0  0
  6  8  1  0  0  0  0
  7 10  1  0  0  0  0
  8 11  1  0  0  0  0
  9 12  1  0  0  0  0
 10 13  1  0  0  0  0
M  CHG  1   4  -1
M  END
>  <CHROM.1>
177.54861919,175.87138233,-161.97296967,178.20651778,59.76024867,-175.07177998
-70.11616470,64.81916239,174.10964476,32.52161998,32.16367831,46.48865270
0.55112299,0.27948426,-1.46877907

>  <Name>
ligand

>  <RI>
0

>  <Rbt.Current_Directory>
/home/itssahil/PROJECTS/Mol_Feturizer/New_Systems/rnas/3GS8

>  <Rbt.Executable>
rbdock ($Id: //depot/dev/client3/rdock/2013.1/src/exe/rbdock.cxx#4 $)

>  <Rbt.Library>
libRbt.so (2013.1, Build901 2013/11/27)

>  <Rbt.Parameter_File>
/export/apps/rDock/src/rDock_2013.1_src/data/scripts/dock_solv.prm

>  <Rbt.Receptor>
prm/pocket_docking_5.prm

>  <SCORE>
-12.8483

>  <SCORE.INTER>
2.75746

>  <SCORE.INTER.CONST>
1

>  <SCORE.INTER.POLAR>
0

>  <SCORE.INTER.ROT>
9

>  <SCORE.INTER.SOLV>
11.8372

>  <SCORE.INTER.VDW>
-11.7074

>  <SCORE.INTER.norm>
0.212112

>  <SCORE.INTRA>
-15.6057

>  <SCORE.INTRA.DIHEDRAL>
-30.1512

>  <SCORE.INTRA.DIHEDRAL.0>
31.9578

>  <SCORE.INTRA.POLAR>
0

>  <SCORE.INTRA.POLAR.0>
0

>  <SCORE.INTRA.REPUL>
0

>  <SCORE.INTRA.REPUL.0>
0

>  <SCORE.INTRA.SOLV>
-1.39585

>  <SCORE.INTRA.SOLV.lig_0>
-48.4032

>  <SCORE.INTRA.VDW>
0.167792

>  <SCORE.INTRA.VDW.0>
-1.65238

>  <SCORE.INTRA.norm>
-1.20044

>  <SCORE.RESTR>
0

>  <SCORE.RESTR.CAVITY>
0

>  <SCORE.RESTR.norm>
0

>  <SCORE.SYSTEM>
0

>  <SCORE.SYSTEM.CONST>
0

>  <SCORE.SYSTEM.DIHEDRAL>
0

>  <SCORE.SYSTEM.SOLV>
0

>  <SCORE.SYSTEM.norm>
0

>  <SCORE.heavy>
13

>  <SCORE.norm>
-0.988328

>  <RMSD>
7.020

$$$$
ligand
 OpenBabel11021811473D
libRbt.so/2013.1/901 2013/11/27
 13 12  0  0  0  0  0  0  0  0999 V2000
   33.2964   32.3021   50.1310 O   0  0  0  0  0  0  0  0  0  0  0  0
   35.8135   31.1696   49.3024 O   0  0  0  0  0  0  0  0  0  0  0  0
   30.3996   32.9016   46.9431 P   0  0  1  0  0  0  0  0  0  0  0  0
   28.9481   32.7205   47.2919 O   0  5  0  0  0  0  0  0  0  0  0  0
   31.0090   33.9150   46.1099 O   0  0  0  0  0  0  0  0  0  0  0  0
   31.1674   32.3131   48.2343 O   0  0  0  0  0  0  0  0  0  0  0  0
   38.5894   30.6434   46.9120 O   0  0  0  0  0  0  0  0  0  0  0  0
   31.0542   32.9297   49.5353 C   0  0  0  0  0  0  0  0  0  0  0  0
   35.6554   31.7851   50.5955 C   0  0  0  0  0  0  0  0  0  0  0  0
   37.2404   30.5845   47.4084 C   0  0  0  0  0  0  0  0  0  0  0  0
   31.9358   32.1976   50.5579 C   0  0  0  0  0  0  0  0  0  0  0  0
   34.1878   31.6690   51.0691 C   0  0  0  0  0  0  0  0  0  0  0  0
   37.1665   31.2199   48.8166 C   0  0  0  0  0  0  0  0  0  0  0  0
  1 12  1  0  0  0  0
  1 11  1  0  0  0  0
  2 13  1  0  0  0  0
  2  9  1  0  0  0  0
  3  4  1  1  0  0  0
  3  5  2  0  0  0  0
  3  6  1  0  0  0  0
  6  8  1  0  0  0  0
  7 10  1  0  0  0  0
  8 11  1  0  0  0  0
  9 12  1  0  0  0  0
 10 13  1  0  0  0  0
M  CHG  1   4  -1
M  END
>  <CHROM.1>
179.85422536,-178.05845262,-64.59899994,-177.53234698,61.66428416,-178.79817969
-58.98474137,179.46235578,178.26047959,33.29480798,32.10562749,48.50677270
0.15524704,-0.27150463,1.61962498

>  <Name>
ligand

>  <RI>
0

>  <Rbt.Current_Directory>
/home/itssahil/PROJECTS/Mol_Feturizer/New_Systems/rnas/3GS8

>  <Rbt.Executable>
rbdock ($Id: //depot/dev/client3/rdock/2013.1/src/exe/rbdock.cxx#4 $)

>  <Rbt.Library>
libRbt.so (2013.1, Build901 2013/11/27)

>  <Rbt.Parameter_File>
/export/apps/rDock/src/rDock_2013.1_src/data/scripts/dock_solv.prm

>  <Rbt.Receptor>
prm/pocket_docking_6.prm

>  <SCORE>
-15.6099

>  <SCORE.INTER>
0.623444

>  <SCORE.INTER.CONST>
1

>  <SCORE.INTER.POLAR>
0

>  <SCORE.INTER.ROT>
9

>  <SCORE.INTER.SOLV>
8.81427

>  <SCORE.INTER.VDW>
-12.1225

>  <SCORE.INTER.norm>
0.0479572

>  <SCORE.INTRA>
-16.2334

>  <SCORE.INTRA.DIHEDRAL>
-31.4924

>  <SCORE.INTRA.DIHEDRAL.0>
31.9578

>  <SCORE.INTRA.POLAR>
0

>  <SCORE.INTRA.POLAR.0>
0

>  <SCORE.INTRA.REPUL>
0

>  <SCORE.INTRA.REPUL.0>
0

>  <SCORE.INTRA.SOLV>
-1.36502

>  <SCORE.INTRA.SOLV.lig_0>
-48.4032

>  <SCORE.INTRA.VDW>
0.195354

>  <SCORE.INTRA.VDW.0>
-1.65238

>  <SCORE.INTRA.norm>
-1.24872

>  <SCORE.RESTR>
0

>  <SCORE.RESTR.CAVITY>
0

>  <SCORE.RESTR.norm>
0

>  <SCORE.SYSTEM>
0

>  <SCORE.SYSTEM.CONST>
0

>  <SCORE.SYSTEM.DIHEDRAL>
0

>  <SCORE.SYSTEM.SOLV>
0

>  <SCORE.SYSTEM.norm>
0

>  <SCORE.heavy>
13

>  <SCORE.norm>
-1.20076

>  <RMSD>
7.020

$$$$
ligand
 OpenBabel11021811473D
libRbt.so/2013.1/901 2013/11/27
 13 12  0  0  0  0  0  0  0  0999 V2000
   32.5501   32.5608   44.7061 O   0  0  0  0  0  0  0  0  0  0  0  0
   35.4980   31.8753   45.0586 O   0  0  0  0  0  0  0  0  0  0  0  0
   29.9382   32.9590   48.2309 P   0  0  1  0  0  0  0  0  0  0  0  0
   30.7110   33.4609   49.4191 O   0  5  0  0  0  0  0  0  0  0  0  0
   28.5060   32.9383   48.0277 O   0  0  0  0  0  0  0  0  0  0  0  0
   30.9503   33.2061   46.9989 O   0  0  0  0  0  0  0  0  0  0  0  0
   36.6320   31.3602   47.5786 O   0  0  0  0  0  0  0  0  0  0  0  0
   30.4789   33.3434   45.6408 C   0  0  0  0  0  0  0  0  0  0  0  0
   34.6805   31.6365   43.8964 C   0  0  0  0  0  0  0  0  0  0  0  0
   37.4604   31.3211   46.4031 C   0  0  0  0  0  0  0  0  0  0  0  0
   31.6450   33.6676   44.6952 C   0  0  0  0  0  0  0  0  0  0  0  0
   33.6144   32.7476   43.7531 C   0  0  0  0  0  0  0  0  0  0  0  0
   36.6055   30.9635   45.1648 C   0  0  0  0  0  0  0  0  0  0  0  0
  1 12  1  0  0  0  0
  1 11  1  0  0  0  0
  2 13  1  0  0  0  0
  2  9  1  0  0  0  0
  3  4  1  1  0  0  0
  3  5  2  0  0  0  0
  3  6  1  0  0  0  0
  6  8  1  0  0  0  0
  7 10  1  0  0  0  0
  8 11  1  0  0  0  0
  9 12  1  0  0  0  0
 10 13  1  0  0  0  0
M  CHG  1   4  -1
M  END
>  <CHROM.1>
172.88049229,177.80136860,-156.46490446,176.00470231,63.47484950,-173.32540831
-75.74188179,54.30620553,175.14309678,32.74272299,32.51005358,46.33769433
0.33033291,0.28357394,-1.49190947

>  <Name>
ligand

>  <RI>
0

>  <Rbt.Current_Directory>
/home/itssahil/PROJECTS/Mol_Feturizer/New_Systems/rnas/3GS8

>  <Rbt.Executable>
rbdock ($Id: //depot/dev/client3/rdock/2013.1/src/exe/rbdock.cxx#4 $)

>  <Rbt.Library>
libRbt.so (2013.1, Build901 2013/11/27)

>  <Rbt.Parameter_File>
/export/apps/rDock/src/rDock_2013.1_src/data/scripts/dock_solv.prm

>  <Rbt.Receptor>
prm/pocket_docking_3.prm

>  <SCORE>
-11.6772

>  <SCORE.INTER>
3.42741

>  <SCORE.INTER.CONST>
1

>  <SCORE.INTER.POLAR>
0

>  <SCORE.INTER.ROT>
9

>  <SCORE.INTER.SOLV>
8.2436

>  <SCORE.INTER.VDW>
-10.0629

>  <SCORE.INTER.norm>
0.263647

>  <SCORE.INTRA>
-15.1081

>  <SCORE.INTRA.DIHEDRAL>
-29.1611

>  <SCORE.INTRA.DIHEDRAL.0>
31.9578

>  <SCORE.INTRA.POLAR>
0

>  <SCORE.INTRA.POLAR.0>
0

>  <SCORE.INTRA.REPUL>
0

>  <SCORE.INTRA.REPUL.0>
0

>  <SCORE.INTRA.SOLV>
-1.39334

>  <SCORE.INTRA.SOLV.lig_0>
-48.4032

>  <SCORE.INTRA.VDW>
0.169083

>  <SCORE.INTRA.VDW.0>
-1.65238

>  <SCORE.INTRA.norm>
-1.16217

>  <SCORE.RESTR>
0.00356011

>  <SCORE.RESTR.CAVITY>
0.00356011

>  <SCORE.RESTR.norm>
0.000273854

>  <SCORE.SYSTEM>
0

>  <SCORE.SYSTEM.CONST>
0

>  <SCORE.SYSTEM.DIHEDRAL>
0

>  <SCORE.SYSTEM.SOLV>
0

>  <SCORE.SYSTEM.norm>
0

>  <SCORE.heavy>
13

>  <SCORE.norm>
-0.898245

>  <RMSD>
7.033

$$$$
ligand
 OpenBabel11021811473D
libRbt.so/2013.1/901 2013/11/27
 13 12  0  0  0  0  0  0  0  0999 V2000
   33.0074   32.1457   50.0593 O   0  0  0  0  0  0  0  0  0  0  0  0
   35.6856   31.2151   49.4426 O   0  0  0  0  0  0  0  0  0  0  0  0
   29.9464   33.9165   47.4834 P   0  0  1  0  0  0  0  0  0  0  0  0
   30.3057   35.3669   47.3153 O   0  5  0  0  0  0  0  0  0  0  0  0
   29.5111   32.9712   46.4786 O   0  0  0  0  0  0  0  0  0  0  0  0
   30.8649   33.4484   48.7246 O   0  0  0  0  0  0  0  0  0  0  0  0
   38.5640   30.6500   47.1860 O   0  0  0  0  0  0  0  0  0  0  0  0
   30.7155   32.1485   49.3358 C   0  0  0  0  0  0  0  0  0  0  0  0
   35.4072   32.0443   50.5875 C   0  0  0  0  0  0  0  0  0  0  0  0
   37.2281   30.4869   47.6944 C   0  0  0  0  0  0  0  0  0  0  0  0
   31.6660   32.0031   50.5334 C   0  0  0  0  0  0  0  0  0  0  0  0
   33.9619   31.8061   51.0836 C   0  0  0  0  0  0  0  0  0  0  0  0
   37.0269   31.3716   48.9470 C   0  0  0  0  0  0  0  0  0  0  0  0
  1 12  1  0  0  0  0
  1 11  1  0  0  0  0
  2 13  1  0  0  0  0
  2  9  1  0  0  0  0
  3  4  1  6  0  0  0
  3  5  2  0  0  0  0
  3  6  1  0  0  0  0
  6  8  1  0  0  0  0
  7 10  1  0  0  0  0
  8 11  1  0  0  0  0
  9 12  1  0  0  0  0
 10 13  1  0  0  0  0
M  CHG  1   4  -1
M  END
>  <CHROM.1>
-176.62753575,-178.08872095,172.18434573,-177.11010007,-60.57673009,-178.89741748
-61.05919719,179.40632859,-170.60738177,33.07924659,32.42677676,48.69207489
0.19418675,-0.34545124,1.76986316

>  <Name>
ligand

>  <RI>
0

>  <Rbt.Current_Directory>
/home/itssahil/PROJECTS/Mol_Feturizer/New_Systems/rnas/3GS8

>  <Rbt.Executable>
rbdock ($Id: //depot/dev/client3/rdock/2013.1/src/exe/rbdock.cxx#4 $)

>  <Rbt.Library>
libRbt.so (2013.1, Build901 2013/11/27)

>  <Rbt.Parameter_File>
/export/apps/rDock/src/rDock_2013.1_src/data/scripts/dock_solv.prm

>  <Rbt.Receptor>
prm/pocket_docking_5.prm

>  <SCORE>
-13.6052

>  <SCORE.INTER>
2.59841

>  <SCORE.INTER.CONST>
1

>  <SCORE.INTER.POLAR>
0

>  <SCORE.INTER.ROT>
9

>  <SCORE.INTER.SOLV>
6.07071

>  <SCORE.INTER.VDW>
-9.8913

>  <SCORE.INTER.norm>
0.199877

>  <SCORE.INTRA>
-16.2036

>  <SCORE.INTRA.DIHEDRAL>
-31.0689

>  <SCORE.INTRA.DIHEDRAL.0>
31.9578

>  <SCORE.INTRA.POLAR>
0

>  <SCORE.INTRA.POLAR.0>
0

>  <SCORE.INTRA.REPUL>
0

>  <SCORE.INTRA.REPUL.0>
0

>  <SCORE.INTRA.SOLV>
-1.69051

>  <SCORE.INTRA.SOLV.lig_0>
-48.4032

>  <SCORE.INTRA.VDW>
0.176103

>  <SCORE.INTRA.VDW.0>
-1.65238

>  <SCORE.INTRA.norm>
-1.24643

>  <SCORE.RESTR>
0

>  <SCORE.RESTR.CAVITY>
0

>  <SCORE.RESTR.norm>
0

>  <SCORE.SYSTEM>
0

>  <SCORE.SYSTEM.CONST>
0

>  <SCORE.SYSTEM.DIHEDRAL>
0

>  <SCORE.SYSTEM.SOLV>
0

>  <SCORE.SYSTEM.norm>
0

>  <SCORE.heavy>
13

>  <SCORE.norm>
-1.04655

>  <RMSD>
7.036

$$$$
ligand
 OpenBabel11021811473D
libRbt.so/2013.1/901 2013/11/27
 13 12  0  0  0  0  0  0  0  0999 V2000
   31.8641   32.4830   45.0065 O   0  0  0  0  0  0  0  0  0  0  0  0
   34.7651   32.0106   44.7521 O   0  0  0  0  0  0  0  0  0  0  0  0
   30.0627   32.6765   49.0214 P   0  0  1  0  0  0  0  0  0  0  0  0
   29.4265   31.3288   48.8220 O   0  5  0  0  0  0  0  0  0  0  0  0
   30.6091   33.2474   50.2332 O   0  0  0  0  0  0  0  0  0  0  0  0
   30.7196   32.9931   47.5822 O   0  0  0  0  0  0  0  0  0  0  0  0
   37.9697   30.5109   45.8355 O   0  0  0  0  0  0  0  0  0  0  0  0
   29.9415   32.9640   46.3659 C   0  0  0  0  0  0  0  0  0  0  0  0
   33.8208   31.7933   43.6859 C   0  0  0  0  0  0  0  0  0  0  0  0
   36.7941   31.3345   45.9320 C   0  0  0  0  0  0  0  0  0  0  0  0
   30.7927   33.4155   45.1700 C   0  0  0  0  0  0  0  0  0  0  0  0
   32.6279   32.7685   43.8188 C   0  0  0  0  0  0  0  0  0  0  0  0
   35.9031   31.1334   44.6838 C   0  0  0  0  0  0  0  0  0  0  0  0
  1 12  1  0  0  0  0
  1 11  1  0  0  0  0
  2 13  1  0  0  0  0
  2  9  1  0  0  0  0
  3  4  1  1  0  0  0
  3  5  2  0  0  0  0
  3  6  1  0  0  0  0
  6  8  1  0  0  0  0
  7 10  1  0  0  0  0
  8 11  1  0  0  0  0
  9 12  1  0  0  0  0
 10 13  1  0  0  0  0
M  CHG  1   4  -1
M  END
>  <CHROM.1>
177.46890925,-174.51264425,54.58206282,175.33568705,62.97597630,-179.89532719
-66.06351381,-176.98885390,174.20070404,32.49347681,32.23634654,46.49402783
0.50183742,0.28865873,-1.44627348

>  <Name>
ligand

>  <RI>
0

>  <Rbt.Current_Directory>
/home/itssahil/PROJECTS/Mol_Feturizer/New_Systems/rnas/3GS8

>  <Rbt.Executable>
rbdock ($Id: //depot/dev/client3/rdock/2013.1/src/exe/rbdock.cxx#4 $)

>  <Rbt.Library>
libRbt.so (2013.1, Build901 2013/11/27)

>  <Rbt.Parameter_File>
/export/apps/rDock/src/rDock_2013.1_src/data/scripts/dock_solv.prm

>  <Rbt.Receptor>
prm/pocket_docking_4.prm

>  <SCORE>
-12.3067

>  <SCORE.INTER>
3.58617

>  <SCORE.INTER.CONST>
1

>  <SCORE.INTER.POLAR>
0

>  <SCORE.INTER.ROT>
9

>  <SCORE.INTER.SOLV>
11.5978

>  <SCORE.INTER.VDW>
-11.0752

>  <SCORE.INTER.norm>
0.275859

>  <SCORE.INTRA>
-15.8929

>  <SCORE.INTRA.DIHEDRAL>
-30.9349

>  <SCORE.INTRA.DIHEDRAL.0>
31.9578

>  <SCORE.INTRA.POLAR>
0

>  <SCORE.INTRA.POLAR.0>
0

>  <SCORE.INTRA.REPUL>
0

>  <SCORE.INTRA.REPUL.0>
0

>  <SCORE.INTRA.SOLV>
-1.5458

>  <SCORE.INTRA.SOLV.lig_0>
-48.4032

>  <SCORE.INTRA.VDW>
0.347491

>  <SCORE.INTRA.VDW.0>
-1.65238

>  <SCORE.INTRA.norm>
-1.22253

>  <SCORE.RESTR>
0

>  <SCORE.RESTR.CAVITY>
0

>  <SCORE.RESTR.norm>
0

>  <SCORE.SYSTEM>
0

>  <SCORE.SYSTEM.CONST>
0

>  <SCORE.SYSTEM.DIHEDRAL>
0

>  <SCORE.SYSTEM.SOLV>
0

>  <SCORE.SYSTEM.norm>
0

>  <SCORE.heavy>
13

>  <SCORE.norm>
-0.946668

>  <RMSD>
7.046

$$$$
ligand
 OpenBabel11021811473D
libRbt.so/2013.1/901 2013/11/27
 13 12  0  0  0  0  0  0  0  0999 V2000
   36.5346   31.1543   47.3261 O   0  0  0  0  0  0  0  0  0  0  0  0
   35.0994   31.7307   44.7267 O   0  0  0  0  0  0  0  0  0  0  0  0
   34.7323   32.8830   50.2078 P   0  0  1  0  0  0  0  0  0  0  0  0
   33.2430   32.7553   50.0449 O   0  5  0  0  0  0  0  0  0  0  0  0
   35.4732   33.7644   51.0836 O   0  0  0  0  0  0  0  0  0  0  0  0
   35.2709   31.4002   49.8694 O   0  0  0  0  0  0  0  0  0  0  0  0
   32.3004   32.2649   44.6708 O   0  0  0  0  0  0  0  0  0  0  0  0
   36.6793   31.1152   49.7248 C   0  0  0  0  0  0  0  0  0  0  0  0
   36.3209   30.9826   44.8822 C   0  0  0  0  0  0  0  0  0  0  0  0
   33.0654   32.1899   43.4548 C   0  0  0  0  0  0  0  0  0  0  0  0
   37.2261   31.7394   48.4324 C   0  0  0  0  0  0  0  0  0  0  0  0
   37.1387   31.5323   46.0741 C   0  0  0  0  0  0  0  0  0  0  0  0
   34.2774   31.2489   43.6491 C   0  0  0  0  0  0  0  0  0  0  0  0
  1 12  1  0  0  0  0
  1 11  1  0  0  0  0
  2 13  1  0  0  0  0
  2  9  1  0  0  0  0
  3  4  1  1  0  0  0
  3  5  2  0  0  0  0
  3  6  1  0  0  0  0
  6  8  1  0  0  0  0
  7 10  1  0  0  0  0
  8 11  1  0  0  0  0
  9 12  1  0  0  0  0
 10 13  1  0  0  0  0
M  CHG  1   4  -1
M  END
>  <CHROM.1>
-175.71371569,-174.12107185,171.26597971,-70.64738828,-61.58559028,-178.74629006
73.53771701,-58.46234876,-170.81530814,35.11598815,31.99857579,47.52000255
-1.73740703,-0.34224407,1.36785460

>  <Name>
ligand

>  <RI>
0

>  <Rbt.Current_Directory>
/home/itssahil/PROJECTS/Mol_Feturizer/New_Systems/rnas/3GS8

>  <Rbt.Executable>
rbdock ($Id: //depot/dev/client3/rdock/2013.1/src/exe/rbdock.cxx#4 $)

>  <Rbt.Library>
libRbt.so (2013.1, Build901 2013/11/27)

>  <Rbt.Parameter_File>
/export/apps/rDock/src/rDock_2013.1_src/data/scripts/dock_solv.prm

>  <Rbt.Receptor>
prm/pocket_docking_8.prm

>  <SCORE>
-13.2091

>  <SCORE.INTER>
1.43642

>  <SCORE.INTER.CONST>
1

>  <SCORE.INTER.POLAR>
0

>  <SCORE.INTER.ROT>
9

>  <SCORE.INTER.SOLV>
8.08273

>  <SCORE.INTER.VDW>
-11.3366

>  <SCORE.INTER.norm>
0.110493

>  <SCORE.INTRA>
-14.6455

>  <SCORE.INTRA.DIHEDRAL>
-29.73

>  <SCORE.INTRA.DIHEDRAL.0>
31.9578

>  <SCORE.INTRA.POLAR>
0

>  <SCORE.INTRA.POLAR.0>
0

>  <SCORE.INTRA.REPUL>
0

>  <SCORE.INTRA.REPUL.0>
0

>  <SCORE.INTRA.SOLV>
0.214327

>  <SCORE.INTRA.SOLV.lig_0>
-48.4032

>  <SCORE.INTRA.VDW>
0.112322

>  <SCORE.INTRA.VDW.0>
-1.65238

>  <SCORE.INTRA.norm>
-1.12658

>  <SCORE.RESTR>
0

>  <SCORE.RESTR.CAVITY>
0

>  <SCORE.RESTR.norm>
0

>  <SCORE.SYSTEM>
0

>  <SCORE.SYSTEM.CONST>
0

>  <SCORE.SYSTEM.DIHEDRAL>
0

>  <SCORE.SYSTEM.SOLV>
0

>  <SCORE.SYSTEM.norm>
0

>  <SCORE.heavy>
13

>  <SCORE.norm>
-1.01608

>  <RMSD>
7.046

$$$$
ligand
 OpenBabel11021811473D
libRbt.so/2013.1/901 2013/11/27
 13 12  0  0  0  0  0  0  0  0999 V2000
   33.2631   32.2976   50.1717 O   0  0  0  0  0  0  0  0  0  0  0  0
   35.8003   31.1546   49.3477 O   0  0  0  0  0  0  0  0  0  0  0  0
   30.2933   32.9511   47.0197 P   0  0  1  0  0  0  0  0  0  0  0  0
   31.1895   32.7090   45.8368 O   0  5  0  0  0  0  0  0  0  0  0  0
   28.8483   33.0057   47.0623 O   0  0  0  0  0  0  0  0  0  0  0  0
   31.1406   32.3527   48.2555 O   0  0  0  0  0  0  0  0  0  0  0  0
   38.5876   30.5316   46.9940 O   0  0  0  0  0  0  0  0  0  0  0  0
   31.0005   32.8691   49.5969 C   0  0  0  0  0  0  0  0  0  0  0  0
   35.6355   31.8232   50.6133 C   0  0  0  0  0  0  0  0  0  0  0  0
   37.2334   30.5064   47.4790 C   0  0  0  0  0  0  0  0  0  0  0  0
   31.9044   32.0969   50.5693 C   0  0  0  0  0  0  0  0  0  0  0  0
   34.1755   31.6880   51.1052 C   0  0  0  0  0  0  0  0  0  0  0  0
   37.1533   31.1963   48.8610 C   0  0  0  0  0  0  0  0  0  0  0  0
  1 12  1  0  0  0  0
  1 11  1  0  0  0  0
  2 13  1  0  0  0  0
  2  9  1  0  0  0  0
  3  4  1  6  0  0  0
  3  5  2  0  0  0  0
  3  6  1  0  0  0  0
  6  8  1  0  0  0  0
  7 10  1  0  0  0  0
  8 11  1  0  0  0  0
  9 12  1  0  0  0  0
 10 13  1  0  0  0  0
M  CHG  1   4  -1
M  END
>  <CHROM.1>
175.93973950,-177.86456494,151.25917792,178.93448452,62.53970310,-177.57405853
-61.12625986,-179.35117064,175.36328570,33.27051933,32.02248440,48.51031251
0.14725994,-0.27103480,1.54333245

>  <Name>
ligand

>  <RI>
0

>  <Rbt.Current_Directory>
/home/itssahil/PROJECTS/Mol_Feturizer/New_Systems/rnas/3GS8

>  <Rbt.Executable>
rbdock ($Id: //depot/dev/client3/rdock/2013.1/src/exe/rbdock.cxx#4 $)

>  <Rbt.Library>
libRbt.so (2013.1, Build901 2013/11/27)

>  <Rbt.Parameter_File>
/export/apps/rDock/src/rDock_2013.1_src/data/scripts/dock_solv.prm

>  <Rbt.Receptor>
prm/pocket_docking_6.prm

>  <SCORE>
-15.1372

>  <SCORE.INTER>
1.24438

>  <SCORE.INTER.CONST>
1

>  <SCORE.INTER.POLAR>
0

>  <SCORE.INTER.ROT>
9

>  <SCORE.INTER.SOLV>
11.2417

>  <SCORE.INTER.VDW>
-12.5176

>  <SCORE.INTER.norm>
0.0957213

>  <SCORE.INTRA>
-16.3816

>  <SCORE.INTRA.DIHEDRAL>
-31.2996

>  <SCORE.INTRA.DIHEDRAL.0>
31.9578

>  <SCORE.INTRA.POLAR>
0

>  <SCORE.INTRA.POLAR.0>
0

>  <SCORE.INTRA.REPUL>
0

>  <SCORE.INTRA.REPUL.0>
0

>  <SCORE.INTRA.SOLV>
-1.74774

>  <SCORE.INTRA.SOLV.lig_0>
-48.4032

>  <SCORE.INTRA.VDW>
0.142082

>  <SCORE.INTRA.VDW.0>
-1.65238

>  <SCORE.INTRA.norm>
-1.26012

>  <SCORE.RESTR>
0

>  <SCORE.RESTR.CAVITY>
0

>  <SCORE.RESTR.norm>
0

>  <SCORE.SYSTEM>
0

>  <SCORE.SYSTEM.CONST>
0

>  <SCORE.SYSTEM.DIHEDRAL>
0

>  <SCORE.SYSTEM.SOLV>
0

>  <SCORE.SYSTEM.norm>
0

>  <SCORE.heavy>
13

>  <SCORE.norm>
-1.1644

>  <RMSD>
7.056

$$$$
ligand
 OpenBabel11021811473D
libRbt.so/2013.1/901 2013/11/27
 13 12  0  0  0  0  0  0  0  0999 V2000
   34.9399   31.7573   44.5456 O   0  0  0  0  0  0  0  0  0  0  0  0
   36.4503   30.9777   46.9002 O   0  0  0  0  0  0  0  0  0  0  0  0
   31.0514   33.5491   45.3070 P   0  0  1  0  0  0  0  0  0  0  0  0
   30.4145   32.9293   46.5200 O   0  5  0  0  0  0  0  0  0  0  0  0
   31.1702   34.9497   44.9649 O   0  0  0  0  0  0  0  0  0  0  0  0
   32.2098   32.4958   44.9174 O   0  0  0  0  0  0  0  0  0  0  0  0
   35.4674   32.0367   49.3486 O   0  0  0  0  0  0  0  0  0  0  0  0
   32.8529   32.5135   43.6244 C   0  0  0  0  0  0  0  0  0  0  0  0
   37.0689   31.1363   45.6086 C   0  0  0  0  0  0  0  0  0  0  0  0
   36.5876   31.1342   49.3338 C   0  0  0  0  0  0  0  0  0  0  0  0
   33.9558   31.4469   43.5559 C   0  0  0  0  0  0  0  0  0  0  0  0
   36.0486   30.8393   44.4850 C   0  0  0  0  0  0  0  0  0  0  0  0
   37.3461   31.2539   47.9912 C   0  0  0  0  0  0  0  0  0  0  0  0
  1 12  1  0  0  0  0
  1 11  1  0  0  0  0
  2 13  1  0  0  0  0
  2  9  1  0  0  0  0
  3  4  1  1  0  0  0
  3  5  2  0  0  0  0
  3  6  1  0  0  0  0
  6  8  1  0  0  0  0
  7 10  1  0  0  0  0
  8 11  1  0  0  0  0
  9 12  1  0  0  0  0
 10 13  1  0  0  0  0
M  CHG  1   4  -1
M  END
>  <CHROM.1>
-176.89708772,177.02992830,164.00049195,177.35189208,-61.79352740,-179.40383779
61.30869864,-57.71310403,-176.58136706,33.96877295,32.22150758,45.89593704
-0.34960298,0.44307574,-1.68750220

>  <Name>
ligand

>  <RI>
0

>  <Rbt.Current_Directory>
/home/itssahil/PROJECTS/Mol_Feturizer/New_Systems/rnas/3GS8

>  <Rbt.Executable>
rbdock ($Id: //depot/dev/client3/rdock/2013.1/src/exe/rbdock.cxx#4 $)

>  <Rbt.Library>
libRbt.so (2013.1, Build901 2013/11/27)

>  <Rbt.Parameter_File>
/export/apps/rDock/src/rDock_2013.1_src/data/scripts/dock_solv.prm

>  <Rbt.Receptor>
prm/pocket_docking_7.prm

>  <SCORE>
-15.2975

>  <SCORE.INTER>
1.06538

>  <SCORE.INTER.CONST>
1

>  <SCORE.INTER.POLAR>
0

>  <SCORE.INTER.ROT>
9

>  <SCORE.INTER.SOLV>
12.9281

>  <SCORE.INTER.VDW>
-13.1991

>  <SCORE.INTER.norm>
0.0819519

>  <SCORE.INTRA>
-16.3628

>  <SCORE.INTRA.DIHEDRAL>
-31.4533

>  <SCORE.INTRA.DIHEDRAL.0>
31.9578

>  <SCORE.INTRA.POLAR>
0

>  <SCORE.INTRA.POLAR.0>
0

>  <SCORE.INTRA.REPUL>
0

>  <SCORE.INTRA.REPUL.0>
0

>  <SCORE.INTRA.SOLV>
-1.41795

>  <SCORE.INTRA.SOLV.lig_0>
-48.4032

>  <SCORE.INTRA.VDW>
0.0727565

>  <SCORE.INTRA.VDW.0>
-1.65238

>  <SCORE.INTRA.norm>
-1.25868

>  <SCORE.RESTR>
0

>  <SCORE.RESTR.CAVITY>
0

>  <SCORE.RESTR.norm>
0

>  <SCORE.SYSTEM>
0

>  <SCORE.SYSTEM.CONST>
0

>  <SCORE.SYSTEM.DIHEDRAL>
0

>  <SCORE.SYSTEM.SOLV>
0

>  <SCORE.SYSTEM.norm>
0

>  <SCORE.heavy>
13

>  <SCORE.norm>
-1.17673

>  <RMSD>
7.076

$$$$
ligand
 OpenBabel11021811473D
libRbt.so/2013.1/901 2013/11/27
 13 12  0  0  0  0  0  0  0  0999 V2000
   34.9283   31.7928   44.4797 O   0  0  0  0  0  0  0  0  0  0  0  0
   36.4471   30.9736   46.8057 O   0  0  0  0  0  0  0  0  0  0  0  0
   31.0934   33.6600   45.3227 P   0  0  1  0  0  0  0  0  0  0  0  0
   30.5995   33.1436   46.6458 O   0  5  0  0  0  0  0  0  0  0  0  0
   31.1367   35.0246   44.8446 O   0  0  0  0  0  0  0  0  0  0  0  0
   32.2370   32.5979   44.9137 O   0  0  0  0  0  0  0  0  0  0  0  0
   35.5267   32.0405   49.3036 O   0  0  0  0  0  0  0  0  0  0  0  0
   32.8397   32.5940   43.6013 C   0  0  0  0  0  0  0  0  0  0  0  0
   37.0573   31.1166   45.5084 C   0  0  0  0  0  0  0  0  0  0  0  0
   36.6158   31.1028   49.2390 C   0  0  0  0  0  0  0  0  0  0  0  0
   33.9201   31.5066   43.5070 C   0  0  0  0  0  0  0  0  0  0  0  0
   36.0173   30.8534   44.3945 C   0  0  0  0  0  0  0  0  0  0  0  0
   37.3556   31.2430   47.8880 C   0  0  0  0  0  0  0  0  0  0  0  0
  1 12  1  0  0  0  0
  1 11  1  0  0  0  0
  2 13  1  0  0  0  0
  2  9  1  0  0  0  0
  3  4  1  1  0  0  0
  3  5  2  0  0  0  0
  3  6  1  0  0  0  0
  6  8  1  0  0  0  0
  7 10  1  0  0  0  0
  8 11  1  0  0  0  0
  9 12  1  0  0  0  0
 10 13  1  0  0  0  0
M  CHG  1   4  -1
M  END
>  <CHROM.1>
-176.36802648,178.58859409,170.17028774,178.37994811,-60.76765393,-178.36456910
60.50265615,-60.31033264,-176.60988330,33.98827409,32.27621111,45.85220477
-0.33498913,0.46653974,-1.68880355

>  <Name>
ligand

>  <RI>
0

>  <Rbt.Current_Directory>
/home/itssahil/PROJECTS/Mol_Feturizer/New_Systems/rnas/3GS8

>  <Rbt.Executable>
rbdock ($Id: //depot/dev/client3/rdock/2013.1/src/exe/rbdock.cxx#4 $)

>  <Rbt.Library>
libRbt.so (2013.1, Build901 2013/11/27)

>  <Rbt.Parameter_File>
/export/apps/rDock/src/rDock_2013.1_src/data/scripts/dock_solv.prm

>  <Rbt.Receptor>
prm/pocket_docking_5.prm

>  <SCORE>
-15.3025

>  <SCORE.INTER>
1.0664

>  <SCORE.INTER.CONST>
1

>  <SCORE.INTER.POLAR>
0

>  <SCORE.INTER.ROT>
9

>  <SCORE.INTER.SOLV>
11.8875

>  <SCORE.INTER.VDW>
-12.8516

>  <SCORE.INTER.norm>
0.0820307

>  <SCORE.INTRA>
-16.3689

>  <SCORE.INTRA.DIHEDRAL>
-31.484

>  <SCORE.INTRA.DIHEDRAL.0>
31.9578

>  <SCORE.INTRA.POLAR>
0

>  <SCORE.INTRA.POLAR.0>
0

>  <SCORE.INTRA.REPUL>
0

>  <SCORE.INTRA.REPUL.0>
0

>  <SCORE.INTRA.SOLV>
-1.40935

>  <SCORE.INTRA.SOLV.lig_0>
-48.4032

>  <SCORE.INTRA.VDW>
0.0777403

>  <SCORE.INTRA.VDW.0>
-1.65238

>  <SCORE.INTRA.norm>
-1.25915

>  <SCORE.RESTR>
0

>  <SCORE.RESTR.CAVITY>
0

>  <SCORE.RESTR.norm>
0

>  <SCORE.SYSTEM>
0

>  <SCORE.SYSTEM.CONST>
0

>  <SCORE.SYSTEM.DIHEDRAL>
0

>  <SCORE.SYSTEM.SOLV>
0

>  <SCORE.SYSTEM.norm>
0

>  <SCORE.heavy>
13

>  <SCORE.norm>
-1.17712

>  <RMSD>
7.101

$$$$
ligand
 OpenBabel11021811473D
libRbt.so/2013.1/901 2013/11/27
 13 12  0  0  0  0  0  0  0  0999 V2000
   34.4612   32.0204   44.4769 O   0  0  0  0  0  0  0  0  0  0  0  0
   36.3499   31.2302   46.3709 O   0  0  0  0  0  0  0  0  0  0  0  0
   30.8977   33.7123   46.4280 P   0  0  1  0  0  0  0  0  0  0  0  0
   29.6599   33.7428   45.5748 O   0  5  0  0  0  0  0  0  0  0  0  0
   31.0096   33.8561   47.8631 O   0  0  0  0  0  0  0  0  0  0  0  0
   31.8884   32.7370   45.6093 O   0  0  0  0  0  0  0  0  0  0  0  0
   36.1150   30.8428   49.1964 O   0  0  0  0  0  0  0  0  0  0  0  0
   32.2882   33.0220   44.2511 C   0  0  0  0  0  0  0  0  0  0  0  0
   36.6516   31.0206   44.9777 C   0  0  0  0  0  0  0  0  0  0  0  0
   37.1566   31.6614   48.6357 C   0  0  0  0  0  0  0  0  0  0  0  0
   33.2440   31.9380   43.7313 C   0  0  0  0  0  0  0  0  0  0  0  0
   35.3460   30.9303   44.1538 C   0  0  0  0  0  0  0  0  0  0  0  0
   37.5129   31.1650   47.2149 C   0  0  0  0  0  0  0  0  0  0  0  0
  1 12  1  0  0  0  0
  1 11  1  0  0  0  0
  2 13  1  0  0  0  0
  2  9  1  0  0  0  0
  3  4  1  1  0  0  0
  3  5  2  0  0  0  0
  3  6  1  0  0  0  0
  6  8  1  0  0  0  0
  7 10  1  0  0  0  0
  8 11  1  0  0  0  0
  9 12  1  0  0  0  0
 10 13  1  0  0  0  0
M  CHG  1   4  -1
M  END
>  <CHROM.1>
-179.34597770,169.26592918,58.56547022,179.27906898,-66.60028894,173.05678325
48.71165230,59.66344364,173.08083446,33.74738695,32.28497403,46.09540241
-0.11335977,0.40303922,-1.69690428

>  <Name>
ligand

>  <RI>
0

>  <Rbt.Current_Directory>
/home/itssahil/PROJECTS/Mol_Feturizer/New_Systems/rnas/3GS8

>  <Rbt.Executable>
rbdock ($Id: //depot/dev/client3/rdock/2013.1/src/exe/rbdock.cxx#4 $)

>  <Rbt.Library>
libRbt.so (2013.1, Build901 2013/11/27)

>  <Rbt.Parameter_File>
/export/apps/rDock/src/rDock_2013.1_src/data/scripts/dock_solv.prm

>  <Rbt.Receptor>
prm/pocket_docking_5.prm

>  <SCORE>
-13.2532

>  <SCORE.INTER>
2.11004

>  <SCORE.INTER.CONST>
1

>  <SCORE.INTER.POLAR>
0

>  <SCORE.INTER.ROT>
9

>  <SCORE.INTER.SOLV>
10.4681

>  <SCORE.INTER.VDW>
-11.6827

>  <SCORE.INTER.norm>
0.162311

>  <SCORE.INTRA>
-15.3633

>  <SCORE.INTRA.DIHEDRAL>
-29.8636

>  <SCORE.INTRA.DIHEDRAL.0>
31.9578

>  <SCORE.INTRA.POLAR>
0

>  <SCORE.INTRA.POLAR.0>
0

>  <SCORE.INTRA.REPUL>
0

>  <SCORE.INTRA.REPUL.0>
0

>  <SCORE.INTRA.SOLV>
-1.27505

>  <SCORE.INTRA.SOLV.lig_0>
-48.4032

>  <SCORE.INTRA.VDW>
0.206049

>  <SCORE.INTRA.VDW.0>
-1.65238

>  <SCORE.INTRA.norm>
-1.18179

>  <SCORE.RESTR>
0

>  <SCORE.RESTR.CAVITY>
0

>  <SCORE.RESTR.norm>
0

>  <SCORE.SYSTEM>
0

>  <SCORE.SYSTEM.CONST>
0

>  <SCORE.SYSTEM.DIHEDRAL>
0

>  <SCORE.SYSTEM.SOLV>
0

>  <SCORE.SYSTEM.norm>
0

>  <SCORE.heavy>
13

>  <SCORE.norm>
-1.01948

>  <RMSD>
7.107

$$$$
ligand
 OpenBabel11021811473D
libRbt.so/2013.1/901 2013/11/27
 13 12  0  0  0  0  0  0  0  0999 V2000
   32.5767   32.8684   45.3514 O   0  0  0  0  0  0  0  0  0  0  0  0
   35.1917   31.7877   44.9145 O   0  0  0  0  0  0  0  0  0  0  0  0
   28.1935   33.4312   46.3626 P   0  0  1  0  0  0  0  0  0  0  0  0
   26.9399   32.7105   46.7749 O   0  5  0  0  0  0  0  0  0  0  0  0
   28.3639   34.8281   46.0271 O   0  0  0  0  0  0  0  0  0  0  0  0
   29.3592   32.6075   47.1149 O   0  0  0  0  0  0  0  0  0  0  0  0
   36.7315   31.3222   47.3003 O   0  0  0  0  0  0  0  0  0  0  0  0
   30.7569   32.9148   46.9206 C   0  0  0  0  0  0  0  0  0  0  0  0
   34.5863   32.6681   43.9480 C   0  0  0  0  0  0  0  0  0  0  0  0
   37.1960   30.9122   46.0019 C   0  0  0  0  0  0  0  0  0  0  0  0
   31.1645   32.6723   45.4599 C   0  0  0  0  0  0  0  0  0  0  0  0
   33.0448   32.5678   44.0225 C   0  0  0  0  0  0  0  0  0  0  0  0
   36.6286   31.8549   44.9149 C   0  0  0  0  0  0  0  0  0  0  0  0
  1 12  1  0  0  0  0
  1 11  1  0  0  0  0
  2 13  1  0  0  0  0
  2  9  1  0  0  0  0
  3  4  1  1  0  0  0
  3  5  2  0  0  0  0
  3  6  1  0  0  0  0
  6  8  1  0  0  0  0
  7 10  1  0  0  0  0
  8 11  1  0  0  0  0
  9 12  1  0  0  0  0
 10 13  1  0  0  0  0
M  CHG  1   4  -1
M  END
>  <CHROM.1>
-175.24392532,178.48582142,175.85349400,-63.36421120,-174.60421314,-178.78771734
56.98343834,-61.29905278,176.07060616,31.98242677,32.62814042,45.85118748
0.03614205,0.24459860,-1.20746603

>  <Name>
ligand

>  <RI>
0

>  <Rbt.Current_Directory>
/home/itssahil/PROJECTS/Mol_Feturizer/New_Systems/rnas/3GS8

>  <Rbt.Executable>
rbdock ($Id: //depot/dev/client3/rdock/2013.1/src/exe/rbdock.cxx#4 $)

>  <Rbt.Library>
libRbt.so (2013.1, Build901 2013/11/27)

>  <Rbt.Parameter_File>
/export/apps/rDock/src/rDock_2013.1_src/data/scripts/dock_solv.prm

>  <Rbt.Receptor>
prm/pocket_docking_5.prm

>  <SCORE>
-12.5221

>  <SCORE.INTER>
2.73948

>  <SCORE.INTER.CONST>
1

>  <SCORE.INTER.POLAR>
0

>  <SCORE.INTER.ROT>
9

>  <SCORE.INTER.SOLV>
8.33261

>  <SCORE.INTER.VDW>
-10.5512

>  <SCORE.INTER.norm>
0.210729

>  <SCORE.INTRA>
-15.2616

>  <SCORE.INTRA.DIHEDRAL>
-31.1599

>  <SCORE.INTRA.DIHEDRAL.0>
31.9578

>  <SCORE.INTRA.POLAR>
0

>  <SCORE.INTRA.POLAR.0>
0

>  <SCORE.INTRA.REPUL>
0

>  <SCORE.INTRA.REPUL.0>
0

>  <SCORE.INTRA.SOLV>
-0.135896

>  <SCORE.INTRA.SOLV.lig_0>
-48.4032

>  <SCORE.INTRA.VDW>
0.386293

>  <SCORE.INTRA.VDW.0>
-1.65238

>  <SCORE.INTRA.norm>
-1.17397

>  <SCORE.RESTR>
0

>  <SCORE.RESTR.CAVITY>
0

>  <SCORE.RESTR.norm>
0

>  <SCORE.SYSTEM>
0

>  <SCORE.SYSTEM.CONST>
0

>  <SCORE.SYSTEM.DIHEDRAL>
0

>  <SCORE.SYSTEM.SOLV>
0

>  <SCORE.SYSTEM.norm>
0

>  <SCORE.heavy>
13

>  <SCORE.norm>
-0.963241

>  <RMSD>
7.108

$$$$
ligand
 OpenBabel11021811473D
libRbt.so/2013.1/901 2013/11/27
 13 12  0  0  0  0  0  0  0  0999 V2000
   34.9131   31.8154   44.4640 O   0  0  0  0  0  0  0  0  0  0  0  0
   36.4903   31.3060   46.7841 O   0  0  0  0  0  0  0  0  0  0  0  0
   31.0344   33.6365   45.3448 P   0  0  1  0  0  0  0  0  0  0  0  0
   30.4025   33.0033   46.5535 O   0  5  0  0  0  0  0  0  0  0  0  0
   31.1513   35.0408   45.0174 O   0  0  0  0  0  0  0  0  0  0  0  0
   32.1917   32.5880   44.9393 O   0  0  0  0  0  0  0  0  0  0  0  0
   35.9018   30.8468   49.5265 O   0  0  0  0  0  0  0  0  0  0  0  0
   32.7972   32.5902   43.6281 C   0  0  0  0  0  0  0  0  0  0  0  0
   37.0596   31.1586   45.4687 C   0  0  0  0  0  0  0  0  0  0  0  0
   36.7753   31.9193   49.1311 C   0  0  0  0  0  0  0  0  0  0  0  0
   33.8765   31.5019   43.5305 C   0  0  0  0  0  0  0  0  0  0  0  0
   35.9547   30.8204   44.4408 C   0  0  0  0  0  0  0  0  0  0  0  0
   37.4764   31.5669   47.7983 C   0  0  0  0  0  0  0  0  0  0  0  0
  1 12  1  0  0  0  0
  1 11  1  0  0  0  0
  2 13  1  0  0  0  0
  2  9  1  0  0  0  0
  3  4  1  1  0  0  0
  3  5  2  0  0  0  0
  3  6  1  0  0  0  0
  6  8  1  0  0  0  0
  7 10  1  0  0  0  0
  8 11  1  0  0  0  0
  9 12  1  0  0  0  0
 10 13  1  0  0  0  0
M  CHG  1   4  -1
M  END
>  <CHROM.1>
-179.16256704,171.61415206,161.81056898,179.22870684,-63.39845696,177.55386571
55.70922882,57.63746760,179.12187199,34.00181070,32.27484772,45.86820217
-0.35032957,0.42974893,-1.66887167

>  <Name>
ligand

>  <RI>
0

>  <Rbt.Current_Directory>
/home/itssahil/PROJECTS/Mol_Feturizer/New_Systems/rnas/3GS8

>  <Rbt.Executable>
rbdock ($Id: //depot/dev/client3/rdock/2013.1/src/exe/rbdock.cxx#4 $)

>  <Rbt.Library>
libRbt.so (2013.1, Build901 2013/11/27)

>  <Rbt.Parameter_File>
/export/apps/rDock/src/rDock_2013.1_src/data/scripts/dock_solv.prm

>  <Rbt.Receptor>
prm/pocket_docking_6.prm

>  <SCORE>
-14.1223

>  <SCORE.INTER>
2.10304

>  <SCORE.INTER.CONST>
1

>  <SCORE.INTER.POLAR>
0

>  <SCORE.INTER.ROT>
9

>  <SCORE.INTER.SOLV>
12.7216

>  <SCORE.INTER.VDW>
-12.4385

>  <SCORE.INTER.norm>
0.161772

>  <SCORE.INTRA>
-16.2254

>  <SCORE.INTRA.DIHEDRAL>
-31.1594

>  <SCORE.INTRA.DIHEDRAL.0>
31.9578

>  <SCORE.INTRA.POLAR>
0

>  <SCORE.INTRA.POLAR.0>
0

>  <SCORE.INTRA.REPUL>
0

>  <SCORE.INTRA.REPUL.0>
0

>  <SCORE.INTRA.SOLV>
-1.45128

>  <SCORE.INTRA.SOLV.lig_0>
-48.4032

>  <SCORE.INTRA.VDW>
0.0799642

>  <SCORE.INTRA.VDW.0>
-1.65238

>  <SCORE.INTRA.norm>
-1.2481

>  <SCORE.RESTR>
0

>  <SCORE.RESTR.CAVITY>
0

>  <SCORE.RESTR.norm>
0

>  <SCORE.SYSTEM>
0

>  <SCORE.SYSTEM.CONST>
0

>  <SCORE.SYSTEM.DIHEDRAL>
0

>  <SCORE.SYSTEM.SOLV>
0

>  <SCORE.SYSTEM.norm>
0

>  <SCORE.heavy>
13

>  <SCORE.norm>
-1.08633

>  <RMSD>
7.122

$$$$
ligand
 OpenBabel11021811473D
libRbt.so/2013.1/901 2013/11/27
 13 12  0  0  0  0  0  0  0  0999 V2000
   32.2962   32.1928   44.7801 O   0  0  0  0  0  0  0  0  0  0  0  0
   34.8346   30.8827   44.0480 O   0  0  0  0  0  0  0  0  0  0  0  0
   29.4667   35.0834   46.8231 P   0  0  1  0  0  0  0  0  0  0  0  0
   29.8023   36.3409   47.5760 O   0  5  0  0  0  0  0  0  0  0  0  0
   28.9432   34.9459   45.4815 O   0  0  0  0  0  0  0  0  0  0  0  0
   30.4997   34.0019   47.4285 O   0  0  0  0  0  0  0  0  0  0  0  0
   36.2375   31.3018   46.5451 O   0  0  0  0  0  0  0  0  0  0  0  0
   30.9570   32.8696   46.6575 C   0  0  0  0  0  0  0  0  0  0  0  0
   33.8674   31.3485   43.0870 C   0  0  0  0  0  0  0  0  0  0  0  0
   36.9153   31.2352   45.2779 C   0  0  0  0  0  0  0  0  0  0  0  0
   31.7170   33.3392   45.4083 C   0  0  0  0  0  0  0  0  0  0  0  0
   33.1010   32.5698   43.6462 C   0  0  0  0  0  0  0  0  0  0  0  0
   35.9835   31.7419   44.1521 C   0  0  0  0  0  0  0  0  0  0  0  0
  1 12  1  0  0  0  0
  1 11  1  0  0  0  0
  2 13  1  0  0  0  0
  2  9  1  0  0  0  0
  3  4  1  6  0  0  0
  3  5  2  0  0  0  0
  3  6  1  0  0  0  0
  6  8  1  0  0  0  0
  7 10  1  0  0  0  0
  8 11  1  0  0  0  0
  9 12  1  0  0  0  0
 10 13  1  0  0  0  0
M  CHG  1   4  -1
M  END
>  <CHROM.1>
172.65080327,175.55412556,-152.18292197,61.55409459,172.45189896,-74.00476154
-65.93414653,-63.06671910,-176.18813920,32.37516950,33.10663239,45.59380647
0.48172639,0.42282054,-1.95357806

>  <Name>
ligand

>  <RI>
0

>  <Rbt.Current_Directory>
/home/itssahil/PROJECTS/Mol_Feturizer/New_Systems/rnas/3GS8

>  <Rbt.Executable>
rbdock ($Id: //depot/dev/client3/rdock/2013.1/src/exe/rbdock.cxx#4 $)

>  <Rbt.Library>
libRbt.so (2013.1, Build901 2013/11/27)

>  <Rbt.Parameter_File>
/export/apps/rDock/src/rDock_2013.1_src/data/scripts/dock_solv.prm

>  <Rbt.Receptor>
prm/pocket_docking_3.prm

>  <SCORE>
-8.81389

>  <SCORE.INTER>
4.50461

>  <SCORE.INTER.CONST>
1

>  <SCORE.INTER.POLAR>
0

>  <SCORE.INTER.ROT>
9

>  <SCORE.INTER.SOLV>
9.16095

>  <SCORE.INTER.VDW>
-9.65058

>  <SCORE.INTER.norm>
0.346508

>  <SCORE.INTRA>
-13.3185

>  <SCORE.INTRA.DIHEDRAL>
-29.0544

>  <SCORE.INTRA.DIHEDRAL.0>
31.9578

>  <SCORE.INTRA.POLAR>
0

>  <SCORE.INTRA.POLAR.0>
0

>  <SCORE.INTRA.REPUL>
0

>  <SCORE.INTRA.REPUL.0>
0

>  <SCORE.INTRA.SOLV>
0.320764

>  <SCORE.INTRA.SOLV.lig_0>
-48.4032

>  <SCORE.INTRA.VDW>
1.04834

>  <SCORE.INTRA.VDW.0>
-1.65238

>  <SCORE.INTRA.norm>
-1.0245

>  <SCORE.RESTR>
0

>  <SCORE.RESTR.CAVITY>
0

>  <SCORE.RESTR.norm>
0

>  <SCORE.SYSTEM>
0

>  <SCORE.SYSTEM.CONST>
0

>  <SCORE.SYSTEM.DIHEDRAL>
0

>  <SCORE.SYSTEM.SOLV>
0

>  <SCORE.SYSTEM.norm>
0

>  <SCORE.heavy>
13

>  <SCORE.norm>
-0.677991

>  <RMSD>
7.126

$$$$
ligand
 OpenBabel11021811473D
libRbt.so/2013.1/901 2013/11/27
 13 12  0  0  0  0  0  0  0  0999 V2000
   32.3889   32.8458   44.6621 O   0  0  0  0  0  0  0  0  0  0  0  0
   34.9772   31.7468   44.3931 O   0  0  0  0  0  0  0  0  0  0  0  0
   29.9241   33.0868   48.2292 P   0  0  1  0  0  0  0  0  0  0  0  0
   28.9563   31.9368   48.2742 O   0  5  0  0  0  0  0  0  0  0  0  0
   30.7139   33.6457   49.3047 O   0  0  0  0  0  0  0  0  0  0  0  0
   30.4914   33.0352   46.7197 O   0  0  0  0  0  0  0  0  0  0  0  0
   37.5538   32.4087   45.4612 O   0  0  0  0  0  0  0  0  0  0  0  0
   30.9840   34.2159   46.0496 C   0  0  0  0  0  0  0  0  0  0  0  0
   33.9662   31.4277   43.4174 C   0  0  0  0  0  0  0  0  0  0  0  0
   36.9862   31.0964   45.6207 C   0  0  0  0  0  0  0  0  0  0  0  0
   31.4062   33.8831   44.6109 C   0  0  0  0  0  0  0  0  0  0  0  0
   32.9101   32.5554   43.3508 C   0  0  0  0  0  0  0  0  0  0  0  0
   36.0421   30.7807   44.4370 C   0  0  0  0  0  0  0  0  0  0  0  0
  1 12  1  0  0  0  0
  1 11  1  0  0  0  0
  2 13  1  0  0  0  0
  2  9  1  0  0  0  0
  3  4  1  1  0  0  0
  3  5  2  0  0  0  0
  3  6  1  0  0  0  0
  6  8  1  0  0  0  0
  7 10  1  0  0  0  0
  8 11  1  0  0  0  0
  9 12  1  0  0  0  0
 10 13  1  0  0  0  0
M  CHG  1   4  -1
M  END
>  <CHROM.1>
-179.70598163,-172.93837281,153.13112291,-177.74431252,-56.94887256,-175.87078013
-52.79368846,-60.18814718,-175.40557638,32.61292064,32.56384835,45.97474373
0.48852797,0.25709010,-1.53545356

>  <Name>
ligand

>  <RI>
0

>  <Rbt.Current_Directory>
/home/itssahil/PROJECTS/Mol_Feturizer/New_Systems/rnas/3GS8

>  <Rbt.Executable>
rbdock ($Id: //depot/dev/client3/rdock/2013.1/src/exe/rbdock.cxx#4 $)

>  <Rbt.Library>
libRbt.so (2013.1, Build901 2013/11/27)

>  <Rbt.Parameter_File>
/export/apps/rDock/src/rDock_2013.1_src/data/scripts/dock_solv.prm

>  <Rbt.Receptor>
prm/pocket_docking_3.prm

>  <SCORE>
-11.6632

>  <SCORE.INTER>
4.43021

>  <SCORE.INTER.CONST>
1

>  <SCORE.INTER.POLAR>
0

>  <SCORE.INTER.ROT>
9

>  <SCORE.INTER.SOLV>
8.63465

>  <SCORE.INTER.VDW>
-9.52475

>  <SCORE.INTER.norm>
0.340785

>  <SCORE.INTRA>
-16.097

>  <SCORE.INTRA.DIHEDRAL>
-30.9166

>  <SCORE.INTRA.DIHEDRAL.0>
31.9578

>  <SCORE.INTRA.POLAR>
0

>  <SCORE.INTRA.POLAR.0>
0

>  <SCORE.INTRA.REPUL>
0

>  <SCORE.INTRA.REPUL.0>
0

>  <SCORE.INTRA.SOLV>
-1.45965

>  <SCORE.INTRA.SOLV.lig_0>
-48.4032

>  <SCORE.INTRA.VDW>
0.0911495

>  <SCORE.INTRA.VDW.0>
-1.65238

>  <SCORE.INTRA.norm>
-1.23823

>  <SCORE.RESTR>
0.00360424

>  <SCORE.RESTR.CAVITY>
0.00360424

>  <SCORE.RESTR.norm>
0.000277249

>  <SCORE.SYSTEM>
0

>  <SCORE.SYSTEM.CONST>
0

>  <SCORE.SYSTEM.DIHEDRAL>
0

>  <SCORE.SYSTEM.SOLV>
0

>  <SCORE.SYSTEM.norm>
0

>  <SCORE.heavy>
13

>  <SCORE.norm>
-0.897167

>  <RMSD>
7.128

$$$$
ligand
 OpenBabel11021811473D
libRbt.so/2013.1/901 2013/11/27
 13 12  0  0  0  0  0  0  0  0999 V2000
   32.3001   32.4699   44.8677 O   0  0  0  0  0  0  0  0  0  0  0  0
   35.1496   31.9319   45.0558 O   0  0  0  0  0  0  0  0  0  0  0  0
   30.1038   32.6545   48.6573 P   0  0  1  0  0  0  0  0  0  0  0  0
   30.7574   33.5284   49.6918 O   0  5  0  0  0  0  0  0  0  0  0  0
   28.7408   32.1716   48.6131 O   0  0  0  0  0  0  0  0  0  0  0  0
   30.9010   33.0225   47.3037 O   0  0  0  0  0  0  0  0  0  0  0  0
   38.1139   30.3566   46.6142 O   0  0  0  0  0  0  0  0  0  0  0  0
   30.2562   33.0087   46.0115 C   0  0  0  0  0  0  0  0  0  0  0  0
   34.4171   31.7781   43.8246 C   0  0  0  0  0  0  0  0  0  0  0  0
   36.9587   31.2099   46.5295 C   0  0  0  0  0  0  0  0  0  0  0  0
   31.2422   33.4307   44.9122 C   0  0  0  0  0  0  0  0  0  0  0  0
   33.2149   32.7504   43.7907 C   0  0  0  0  0  0  0  0  0  0  0  0
   36.3043   31.0776   45.1343 C   0  0  0  0  0  0  0  0  0  0  0  0
  1 12  1  0  0  0  0
  1 11  1  0  0  0  0
  2 13  1  0  0  0  0
  2  9  1  0  0  0  0
  3  4  1  1  0  0  0
  3  5  2  0  0  0  0
  3  6  1  0  0  0  0
  6  8  1  0  0  0  0
  7 10  1  0  0  0  0
  8 11  1  0  0  0  0
  9 12  1  0  0  0  0
 10 13  1  0  0  0  0
M  CHG  1   4  -1
M  END
>  <CHROM.1>
175.23387534,-174.95323710,-147.07872588,178.65021661,62.84830314,-178.45634059
-61.51571635,179.95679072,175.82819754,32.71260490,32.29164242,46.47046874
0.36459497,0.29511070,-1.44572684

>  <Name>
ligand

>  <RI>
0

>  <Rbt.Current_Directory>
/home/itssahil/PROJECTS/Mol_Feturizer/New_Systems/rnas/3GS8

>  <Rbt.Executable>
rbdock ($Id: //depot/dev/client3/rdock/2013.1/src/exe/rbdock.cxx#4 $)

>  <Rbt.Library>
libRbt.so (2013.1, Build901 2013/11/27)

>  <Rbt.Parameter_File>
/export/apps/rDock/src/rDock_2013.1_src/data/scripts/dock_solv.prm

>  <Rbt.Receptor>
prm/pocket_docking_4.prm

>  <SCORE>
-12.7618

>  <SCORE.INTER>
3.01468

>  <SCORE.INTER.CONST>
1

>  <SCORE.INTER.POLAR>
0

>  <SCORE.INTER.ROT>
9

>  <SCORE.INTER.SOLV>
10.0243

>  <SCORE.INTER.VDW>
-10.9316

>  <SCORE.INTER.norm>
0.231899

>  <SCORE.INTRA>
-15.7765

>  <SCORE.INTRA.DIHEDRAL>
-30.3342

>  <SCORE.INTRA.DIHEDRAL.0>
31.9578

>  <SCORE.INTRA.POLAR>
0

>  <SCORE.INTRA.POLAR.0>
0

>  <SCORE.INTRA.REPUL>
0

>  <SCORE.INTRA.REPUL.0>
0

>  <SCORE.INTRA.SOLV>
-1.59458

>  <SCORE.INTRA.SOLV.lig_0>
-48.4032

>  <SCORE.INTRA.VDW>
0.187924

>  <SCORE.INTRA.VDW.0>
-1.65238

>  <SCORE.INTRA.norm>
-1.21358

>  <SCORE.RESTR>
0

>  <SCORE.RESTR.CAVITY>
0

>  <SCORE.RESTR.norm>
0

>  <SCORE.SYSTEM>
0

>  <SCORE.SYSTEM.CONST>
0

>  <SCORE.SYSTEM.DIHEDRAL>
0

>  <SCORE.SYSTEM.SOLV>
0

>  <SCORE.SYSTEM.norm>
0

>  <SCORE.heavy>
13

>  <SCORE.norm>
-0.981677

>  <RMSD>
7.131

$$$$
ligand
 OpenBabel11021811473D
libRbt.so/2013.1/901 2013/11/27
 13 12  0  0  0  0  0  0  0  0999 V2000
   34.3397   32.0979   44.4406 O   0  0  0  0  0  0  0  0  0  0  0  0
   36.2383   30.9701   46.2078 O   0  0  0  0  0  0  0  0  0  0  0  0
   30.6411   33.4069   46.4530 P   0  0  1  0  0  0  0  0  0  0  0  0
   31.4590   34.5155   47.0555 O   0  5  0  0  0  0  0  0  0  0  0  0
   29.2333   33.4008   46.1203 O   0  0  0  0  0  0  0  0  0  0  0  0
   31.7125   32.6021   45.5542 O   0  0  0  0  0  0  0  0  0  0  0  0
   36.0477   32.0326   48.8582 O   0  0  0  0  0  0  0  0  0  0  0  0
   32.1615   33.1000   44.2751 C   0  0  0  0  0  0  0  0  0  0  0  0
   36.5682   31.1271   44.8141 C   0  0  0  0  0  0  0  0  0  0  0  0
   36.9400   30.9479   48.5472 C   0  0  0  0  0  0  0  0  0  0  0  0
   33.1584   32.1224   43.6354 C   0  0  0  0  0  0  0  0  0  0  0  0
   35.2825   31.1229   43.9547 C   0  0  0  0  0  0  0  0  0  0  0  0
   37.3880   31.0380   47.0696 C   0  0  0  0  0  0  0  0  0  0  0  0
  1 12  1  0  0  0  0
  1 11  1  0  0  0  0
  2 13  1  0  0  0  0
  2  9  1  0  0  0  0
  3  4  1  6  0  0  0
  3  5  2  0  0  0  0
  3  6  1  0  0  0  0
  6  8  1  0  0  0  0
  7 10  1  0  0  0  0
  8 11  1  0  0  0  0
  9 12  1  0  0  0  0
 10 13  1  0  0  0  0
M  CHG  1   4  -1
M  END
>  <CHROM.1>
178.75791269,176.56235315,-76.72843969,-179.09165872,-66.29504108,-176.85342368
53.18883171,-59.68049028,175.63513247,33.62883155,32.31177756,45.98986562
-0.05753700,0.37911508,-1.73567419

>  <Name>
ligand

>  <RI>
0

>  <Rbt.Current_Directory>
/home/itssahil/PROJECTS/Mol_Feturizer/New_Systems/rnas/3GS8

>  <Rbt.Executable>
rbdock ($Id: //depot/dev/client3/rdock/2013.1/src/exe/rbdock.cxx#4 $)

>  <Rbt.Library>
libRbt.so (2013.1, Build901 2013/11/27)

>  <Rbt.Parameter_File>
/export/apps/rDock/src/rDock_2013.1_src/data/scripts/dock_solv.prm

>  <Rbt.Receptor>
prm/pocket_docking_4.prm

>  <SCORE>
-14.6697

>  <SCORE.INTER>
1.44061

>  <SCORE.INTER.CONST>
1

>  <SCORE.INTER.POLAR>
0

>  <SCORE.INTER.ROT>
9

>  <SCORE.INTER.SOLV>
10.2236

>  <SCORE.INTER.VDW>
-12.0474

>  <SCORE.INTER.norm>
0.110816

>  <SCORE.INTRA>
-16.1103

>  <SCORE.INTRA.DIHEDRAL>
-31.1417

>  <SCORE.INTRA.DIHEDRAL.0>
31.9578

>  <SCORE.INTRA.POLAR>
0

>  <SCORE.INTRA.POLAR.0>
0

>  <SCORE.INTRA.REPUL>
0

>  <SCORE.INTRA.REPUL.0>
0

>  <SCORE.INTRA.SOLV>
-1.17906

>  <SCORE.INTRA.SOLV.lig_0>
-48.4032

>  <SCORE.INTRA.VDW>
0.0501103

>  <SCORE.INTRA.VDW.0>
-1.65238

>  <SCORE.INTRA.norm>
-1.23925

>  <SCORE.RESTR>
0

>  <SCORE.RESTR.CAVITY>
0

>  <SCORE.RESTR.norm>
0

>  <SCORE.SYSTEM>
0

>  <SCORE.SYSTEM.CONST>
0

>  <SCORE.SYSTEM.DIHEDRAL>
0

>  <SCORE.SYSTEM.SOLV>
0

>  <SCORE.SYSTEM.norm>
0

>  <SCORE.heavy>
13

>  <SCORE.norm>
-1.12843

>  <RMSD>
7.131

$$$$
ligand
 OpenBabel11021811473D
libRbt.so/2013.1/901 2013/11/27
 13 12  0  0  0  0  0  0  0  0999 V2000
   36.6647   31.2906   47.7034 O   0  0  0  0  0  0  0  0  0  0  0  0
   36.4766   31.4871   51.4055 O   0  0  0  0  0  0  0  0  0  0  0  0
   35.2330   31.1983   43.6074 P   0  0  1  0  0  0  0  0  0  0  0  0
   36.2265   30.7131   42.5883 O   0  5  0  0  0  0  0  0  0  0  0  0
   33.7979   31.3284   43.4796 O   0  0  0  0  0  0  0  0  0  0  0  0
   35.9094   30.7825   45.0120 O   0  0  0  0  0  0  0  0  0  0  0  0
   35.3133   32.5634   54.7499 O   0  0  0  0  0  0  0  0  0  0  0  0
   37.2419   31.2077   45.3718 C   0  0  0  0  0  0  0  0  0  0  0  0
   36.0003   31.6024   50.0506 C   0  0  0  0  0  0  0  0  0  0  0  0
   36.2026   31.9781   53.7824 C   0  0  0  0  0  0  0  0  0  0  0  0
   37.6002   30.7216   46.7840 C   0  0  0  0  0  0  0  0  0  0  0  0
   37.0318   31.0032   49.0665 C   0  0  0  0  0  0  0  0  0  0  0  0
   35.5851   32.0773   52.3678 C   0  0  0  0  0  0  0  0  0  0  0  0
  1 12  1  0  0  0  0
  1 11  1  0  0  0  0
  2 13  1  0  0  0  0
  2  9  1  0  0  0  0
  3  4  1  6  0  0  0
  3  5  2  0  0  0  0
  3  6  1  0  0  0  0
  6  8  1  0  0  0  0
  7 10  1  0  0  0  0
  8 11  1  0  0  0  0
  9 12  1  0  0  0  0
 10 13  1  0  0  0  0
M  CHG  1   4  -1
M  END
>  <CHROM.1>
-179.02264186,-177.01190504,55.59613325,177.39211995,-60.63765922,177.58611653
-171.34669789,-179.82651123,-173.30104224,36.00862342,31.36526344,47.74964938
-1.61142955,-0.26084793,1.45446730

>  <Name>
ligand

>  <RI>
0

>  <Rbt.Current_Directory>
/home/itssahil/PROJECTS/Mol_Feturizer/New_Systems/rnas/3GS8

>  <Rbt.Executable>
rbdock ($Id: //depot/dev/client3/rdock/2013.1/src/exe/rbdock.cxx#4 $)

>  <Rbt.Library>
libRbt.so (2013.1, Build901 2013/11/27)

>  <Rbt.Parameter_File>
/export/apps/rDock/src/rDock_2013.1_src/data/scripts/dock_solv.prm

>  <Rbt.Receptor>
prm/pocket_docking_8.prm

>  <SCORE>
-16.1597

>  <SCORE.INTER>
-0.309065

>  <SCORE.INTER.CONST>
1

>  <SCORE.INTER.POLAR>
0

>  <SCORE.INTER.ROT>
9

>  <SCORE.INTER.SOLV>
14.2321

>  <SCORE.INTER.VDW>
-14.5501

>  <SCORE.INTER.norm>
-0.0237742

>  <SCORE.INTRA>
-15.8507

>  <SCORE.INTRA.DIHEDRAL>
-30.9653

>  <SCORE.INTRA.DIHEDRAL.0>
31.9578

>  <SCORE.INTRA.POLAR>
0

>  <SCORE.INTRA.POLAR.0>
0

>  <SCORE.INTRA.REPUL>
0

>  <SCORE.INTRA.REPUL.0>
0

>  <SCORE.INTRA.SOLV>
-1.65946

>  <SCORE.INTRA.SOLV.lig_0>
-48.4032

>  <SCORE.INTRA.VDW>
0.461672

>  <SCORE.INTRA.VDW.0>
-1.65238

>  <SCORE.INTRA.norm>
-1.21928

>  <SCORE.RESTR>
0

>  <SCORE.RESTR.CAVITY>
0

>  <SCORE.RESTR.norm>
0

>  <SCORE.SYSTEM>
0

>  <SCORE.SYSTEM.CONST>
0

>  <SCORE.SYSTEM.DIHEDRAL>
0

>  <SCORE.SYSTEM.SOLV>
0

>  <SCORE.SYSTEM.norm>
0

>  <SCORE.heavy>
13

>  <SCORE.norm>
-1.24306

>  <RMSD>
7.132

$$$$
ligand
 OpenBabel11021811473D
libRbt.so/2013.1/901 2013/11/27
 13 12  0  0  0  0  0  0  0  0999 V2000
   34.1490   31.7136   50.2698 O   0  0  0  0  0  0  0  0  0  0  0  0
   36.2643   31.5873   48.3091 O   0  0  0  0  0  0  0  0  0  0  0  0
   30.1360   32.4232   48.6159 P   0  0  1  0  0  0  0  0  0  0  0  0
   29.1556   32.8384   49.6778 O   0  5  0  0  0  0  0  0  0  0  0  0
   30.0181   32.5467   47.1793 O   0  0  0  0  0  0  0  0  0  0  0  0
   31.5646   32.5755   49.3502 O   0  0  0  0  0  0  0  0  0  0  0  0
   36.9902   32.6125   45.7263 O   0  0  0  0  0  0  0  0  0  0  0  0
   31.8028   32.0449   50.6720 C   0  0  0  0  0  0  0  0  0  0  0  0
   36.5000   31.2758   49.6960 C   0  0  0  0  0  0  0  0  0  0  0  0
   36.7697   31.2086   45.9497 C   0  0  0  0  0  0  0  0  0  0  0  0
   33.2277   32.3780   51.1383 C   0  0  0  0  0  0  0  0  0  0  0  0
   35.5107   32.0526   50.5958 C   0  0  0  0  0  0  0  0  0  0  0  0
   37.1113   30.8455   47.4138 C   0  0  0  0  0  0  0  0  0  0  0  0
  1 12  1  0  0  0  0
  1 11  1  0  0  0  0
  2 13  1  0  0  0  0
  2  9  1  0  0  0  0
  3  4  1  1  0  0  0
  3  5  2  0  0  0  0
  3  6  1  0  0  0  0
  6  8  1  0  0  0  0
  7 10  1  0  0  0  0
  8 11  1  0  0  0  0
  9 12  1  0  0  0  0
 10 13  1  0  0  0  0
M  CHG  1   4  -1
M  END
>  <CHROM.1>
177.23520962,178.47437496,47.47487981,-178.00613967,-64.08045760,-177.15891413
59.53716123,60.74878934,176.22404706,33.44909118,32.05829738,48.77674463
-0.22565563,-0.15612133,1.61242064

>  <Name>
ligand

>  <RI>
0

>  <Rbt.Current_Directory>
/home/itssahil/PROJECTS/Mol_Feturizer/New_Systems/rnas/3GS8

>  <Rbt.Executable>
rbdock ($Id: //depot/dev/client3/rdock/2013.1/src/exe/rbdock.cxx#4 $)

>  <Rbt.Library>
libRbt.so (2013.1, Build901 2013/11/27)

>  <Rbt.Parameter_File>
/export/apps/rDock/src/rDock_2013.1_src/data/scripts/dock_solv.prm

>  <Rbt.Receptor>
prm/pocket_docking_5.prm

>  <SCORE>
-13.9193

>  <SCORE.INTER>
2.10112

>  <SCORE.INTER.CONST>
1

>  <SCORE.INTER.POLAR>
0

>  <SCORE.INTER.ROT>
9

>  <SCORE.INTER.SOLV>
9.13592

>  <SCORE.INTER.VDW>
-11.2446

>  <SCORE.INTER.norm>
0.161624

>  <SCORE.INTRA>
-16.0204

>  <SCORE.INTRA.DIHEDRAL>
-31.4209

>  <SCORE.INTRA.DIHEDRAL.0>
31.9578

>  <SCORE.INTRA.POLAR>
0

>  <SCORE.INTRA.POLAR.0>
0

>  <SCORE.INTRA.REPUL>
0

>  <SCORE.INTRA.REPUL.0>
0

>  <SCORE.INTRA.SOLV>
-1.2285

>  <SCORE.INTRA.SOLV.lig_0>
-48.4032

>  <SCORE.INTRA.VDW>
0.304257

>  <SCORE.INTRA.VDW.0>
-1.65238

>  <SCORE.INTRA.norm>
-1.23234

>  <SCORE.RESTR>
0

>  <SCORE.RESTR.CAVITY>
0

>  <SCORE.RESTR.norm>
0

>  <SCORE.SYSTEM>
0

>  <SCORE.SYSTEM.CONST>
0

>  <SCORE.SYSTEM.DIHEDRAL>
0

>  <SCORE.SYSTEM.SOLV>
0

>  <SCORE.SYSTEM.norm>
0

>  <SCORE.heavy>
13

>  <SCORE.norm>
-1.07072

>  <RMSD>
7.133

$$$$
ligand
 OpenBabel11021811473D
libRbt.so/2013.1/901 2013/11/27
 13 12  0  0  0  0  0  0  0  0999 V2000
   33.5383   32.3658   50.1323 O   0  0  0  0  0  0  0  0  0  0  0  0
   36.0154   31.1120   49.3363 O   0  0  0  0  0  0  0  0  0  0  0  0
   30.5011   32.8852   46.9920 P   0  0  1  0  0  0  0  0  0  0  0  0
   29.0609   32.7099   47.3873 O   0  5  0  0  0  0  0  0  0  0  0  0
   31.0807   33.8680   46.1026 O   0  0  0  0  0  0  0  0  0  0  0  0
   31.3077   32.3534   48.2842 O   0  0  0  0  0  0  0  0  0  0  0  0
   38.7874   30.4007   46.9897 O   0  0  0  0  0  0  0  0  0  0  0  0
   31.3282   33.0898   49.5263 C   0  0  0  0  0  0  0  0  0  0  0  0
   35.8733   31.7623   50.6141 C   0  0  0  0  0  0  0  0  0  0  0  0
   37.4342   30.4056   47.4778 C   0  0  0  0  0  0  0  0  0  0  0  0
   32.1786   32.3565   50.5742 C   0  0  0  0  0  0  0  0  0  0  0  0
   34.4002   31.7093   51.0820 C   0  0  0  0  0  0  0  0  0  0  0  0
   37.3674   31.1254   48.8451 C   0  0  0  0  0  0  0  0  0  0  0  0
  1 12  1  0  0  0  0
  1 11  1  0  0  0  0
  2 13  1  0  0  0  0
  2  9  1  0  0  0  0
  3  4  1  1  0  0  0
  3  5  2  0  0  0  0
  3  6  1  0  0  0  0
  6  8  1  0  0  0  0
  7 10  1  0  0  0  0
  8 11  1  0  0  0  0
  9 12  1  0  0  0  0
 10 13  1  0  0  0  0
M  CHG  1   4  -1
M  END
>  <CHROM.1>
-178.32044962,179.77077715,-70.61470201,-179.56169553,66.21169623,-179.91244741
-59.65597545,-179.25763621,179.11369725,33.47210799,32.08815777,48.54202753
0.14056558,-0.29665730,1.56313433

>  <Name>
ligand

>  <RI>
0

>  <Rbt.Current_Directory>
/home/itssahil/PROJECTS/Mol_Feturizer/New_Systems/rnas/3GS8

>  <Rbt.Executable>
rbdock ($Id: //depot/dev/client3/rdock/2013.1/src/exe/rbdock.cxx#4 $)

>  <Rbt.Library>
libRbt.so (2013.1, Build901 2013/11/27)

>  <Rbt.Parameter_File>
/export/apps/rDock/src/rDock_2013.1_src/data/scripts/dock_solv.prm

>  <Rbt.Receptor>
prm/pocket_docking_7.prm

>  <SCORE>
-15.6019

>  <SCORE.INTER>
0.67765

>  <SCORE.INTER.CONST>
1

>  <SCORE.INTER.POLAR>
0

>  <SCORE.INTER.ROT>
9

>  <SCORE.INTER.SOLV>
8.85509

>  <SCORE.INTER.VDW>
-12.0999

>  <SCORE.INTER.norm>
0.0521269

>  <SCORE.INTRA>
-16.2795

>  <SCORE.INTRA.DIHEDRAL>
-31.4856

>  <SCORE.INTRA.DIHEDRAL.0>
31.9578

>  <SCORE.INTRA.POLAR>
0

>  <SCORE.INTRA.POLAR.0>
0

>  <SCORE.INTRA.REPUL>
0

>  <SCORE.INTRA.REPUL.0>
0

>  <SCORE.INTRA.SOLV>
-1.42084

>  <SCORE.INTRA.SOLV.lig_0>
-48.4032

>  <SCORE.INTRA.VDW>
0.173706

>  <SCORE.INTRA.VDW.0>
-1.65238

>  <SCORE.INTRA.norm>
-1.25227

>  <SCORE.RESTR>
0

>  <SCORE.RESTR.CAVITY>
0

>  <SCORE.RESTR.norm>
0

>  <SCORE.SYSTEM>
0

>  <SCORE.SYSTEM.CONST>
0

>  <SCORE.SYSTEM.DIHEDRAL>
0

>  <SCORE.SYSTEM.SOLV>
0

>  <SCORE.SYSTEM.norm>
0

>  <SCORE.heavy>
13

>  <SCORE.norm>
-1.20014

>  <RMSD>
7.135

$$$$
ligand
 OpenBabel11021811473D
libRbt.so/2013.1/901 2013/11/27
 13 12  0  0  0  0  0  0  0  0999 V2000
   32.5138   32.6301   44.6182 O   0  0  0  0  0  0  0  0  0  0  0  0
   35.2183   31.7834   44.8706 O   0  0  0  0  0  0  0  0  0  0  0  0
   29.0028   32.7762   47.2963 P   0  0  1  0  0  0  0  0  0  0  0  0
   27.7612   32.0911   46.7963 O   0  5  0  0  0  0  0  0  0  0  0  0
   29.5604   32.7744   48.6312 O   0  0  0  0  0  0  0  0  0  0  0  0
   29.9568   32.8106   45.9956 O   0  0  0  0  0  0  0  0  0  0  0  0
   37.5074   32.7083   46.3185 O   0  0  0  0  0  0  0  0  0  0  0  0
   30.8168   33.9352   45.7104 C   0  0  0  0  0  0  0  0  0  0  0  0
   34.4280   31.3579   43.7434 C   0  0  0  0  0  0  0  0  0  0  0  0
   37.0398   31.3533   46.4400 C   0  0  0  0  0  0  0  0  0  0  0  0
   31.5932   33.7033   44.4057 C   0  0  0  0  0  0  0  0  0  0  0  0
   33.3171   32.3919   43.4462 C   0  0  0  0  0  0  0  0  0  0  0  0
   36.3361   30.9170   45.1336 C   0  0  0  0  0  0  0  0  0  0  0  0
  1 12  1  0  0  0  0
  1 11  1  0  0  0  0
  2 13  1  0  0  0  0
  2  9  1  0  0  0  0
  3  4  1  6  0  0  0
  3  5  2  0  0  0  0
  3  6  1  0  0  0  0
  6  8  1  0  0  0  0
  7 10  1  0  0  0  0
  8 11  1  0  0  0  0
  9 12  1  0  0  0  0
 10 13  1  0  0  0  0
M  CHG  1   4  -1
M  END
>  <CHROM.1>
172.70593942,-173.98534391,142.92613454,-179.26145257,-67.50495522,-175.36342300
-55.04421014,-59.72256220,-177.69448590,32.36561663,32.43609326,45.81034373
0.22701841,0.15212595,-1.50656967

>  <Name>
ligand

>  <RI>
0

>  <Rbt.Current_Directory>
/home/itssahil/PROJECTS/Mol_Feturizer/New_Systems/rnas/3GS8

>  <Rbt.Executable>
rbdock ($Id: //depot/dev/client3/rdock/2013.1/src/exe/rbdock.cxx#4 $)

>  <Rbt.Library>
libRbt.so (2013.1, Build901 2013/11/27)

>  <Rbt.Parameter_File>
/export/apps/rDock/src/rDock_2013.1_src/data/scripts/dock_solv.prm

>  <Rbt.Receptor>
prm/pocket_docking_7.prm

>  <SCORE>
-13.1622

>  <SCORE.INTER>
2.80364

>  <SCORE.INTER.CONST>
1

>  <SCORE.INTER.POLAR>
0

>  <SCORE.INTER.ROT>
9

>  <SCORE.INTER.SOLV>
11.0482

>  <SCORE.INTER.VDW>
-11.4136

>  <SCORE.INTER.norm>
0.215665

>  <SCORE.INTRA>
-15.9658

>  <SCORE.INTRA.DIHEDRAL>
-30.5303

>  <SCORE.INTRA.DIHEDRAL.0>
31.9578

>  <SCORE.INTRA.POLAR>
0

>  <SCORE.INTRA.POLAR.0>
0

>  <SCORE.INTRA.REPUL>
0

>  <SCORE.INTRA.REPUL.0>
0

>  <SCORE.INTRA.SOLV>
-1.54272

>  <SCORE.INTRA.SOLV.lig_0>
-48.4032

>  <SCORE.INTRA.VDW>
0.0706964

>  <SCORE.INTRA.VDW.0>
-1.65238

>  <SCORE.INTRA.norm>
-1.22814

>  <SCORE.RESTR>
0

>  <SCORE.RESTR.CAVITY>
0

>  <SCORE.RESTR.norm>
0

>  <SCORE.SYSTEM>
0

>  <SCORE.SYSTEM.CONST>
0

>  <SCORE.SYSTEM.DIHEDRAL>
0

>  <SCORE.SYSTEM.SOLV>
0

>  <SCORE.SYSTEM.norm>
0

>  <SCORE.heavy>
13

>  <SCORE.norm>
-1.01247

>  <RMSD>
7.136

$$$$
ligand
 OpenBabel11021811473D
libRbt.so/2013.1/901 2013/11/27
 13 12  0  0  0  0  0  0  0  0999 V2000
   32.1440   32.2898   44.9954 O   0  0  0  0  0  0  0  0  0  0  0  0
   34.9875   31.7695   44.5686 O   0  0  0  0  0  0  0  0  0  0  0  0
   29.7396   35.4147   47.1421 P   0  0  1  0  0  0  0  0  0  0  0  0
   30.5340   35.3487   48.4171 O   0  5  0  0  0  0  0  0  0  0  0  0
   29.8357   36.3774   46.0665 O   0  0  0  0  0  0  0  0  0  0  0  0
   29.3835   33.8690   46.8466 O   0  0  0  0  0  0  0  0  0  0  0  0
   36.5698   30.8632   46.8348 O   0  0  0  0  0  0  0  0  0  0  0  0
   30.4060   32.8961   46.5406 C   0  0  0  0  0  0  0  0  0  0  0  0
   33.9911   31.5456   43.5523 C   0  0  0  0  0  0  0  0  0  0  0  0
   37.1466   31.2074   45.5626 C   0  0  0  0  0  0  0  0  0  0  0  0
   31.0998   33.2415   45.2147 C   0  0  0  0  0  0  0  0  0  0  0  0
   32.8068   32.5227   43.7376 C   0  0  0  0  0  0  0  0  0  0  0  0
   36.1370   30.9163   44.4276 C   0  0  0  0  0  0  0  0  0  0  0  0
  1 12  1  0  0  0  0
  1 11  1  0  0  0  0
  2 13  1  0  0  0  0
  2  9  1  0  0  0  0
  3  4  1  6  0  0  0
  3  5  2  0  0  0  0
  3  6  1  0  0  0  0
  6  8  1  0  0  0  0
  7 10  1  0  0  0  0
  8 11  1  0  0  0  0
  9 12  1  0  0  0  0
 10 13  1  0  0  0  0
M  CHG  1   4  -1
M  END
>  <CHROM.1>
176.39168377,-179.32866383,-65.30695864,-64.48979976,177.07783643,-178.25945105
-63.17978173,64.48618388,177.73580172,32.41556732,33.16831248,45.83586787
0.45906799,0.44645572,-1.96073850

>  <Name>
ligand

>  <RI>
0

>  <Rbt.Current_Directory>
/home/itssahil/PROJECTS/Mol_Feturizer/New_Systems/rnas/3GS8

>  <Rbt.Executable>
rbdock ($Id: //depot/dev/client3/rdock/2013.1/src/exe/rbdock.cxx#4 $)

>  <Rbt.Library>
libRbt.so (2013.1, Build901 2013/11/27)

>  <Rbt.Parameter_File>
/export/apps/rDock/src/rDock_2013.1_src/data/scripts/dock_solv.prm

>  <Rbt.Receptor>
prm/pocket_docking_3.prm

>  <SCORE>
-11.3616

>  <SCORE.INTER>
3.71563

>  <SCORE.INTER.CONST>
1

>  <SCORE.INTER.POLAR>
0

>  <SCORE.INTER.ROT>
9

>  <SCORE.INTER.SOLV>
8.61146

>  <SCORE.INTER.VDW>
-9.9934

>  <SCORE.INTER.norm>
0.285818

>  <SCORE.INTRA>
-15.0772

>  <SCORE.INTRA.DIHEDRAL>
-31.2378

>  <SCORE.INTRA.DIHEDRAL.0>
31.9578

>  <SCORE.INTRA.POLAR>
0

>  <SCORE.INTRA.POLAR.0>
0

>  <SCORE.INTRA.REPUL>
0

>  <SCORE.INTRA.REPUL.0>
0

>  <SCORE.INTRA.SOLV>
0.335937

>  <SCORE.INTRA.SOLV.lig_0>
-48.4032

>  <SCORE.INTRA.VDW>
0.373748

>  <SCORE.INTRA.VDW.0>
-1.65238

>  <SCORE.INTRA.norm>
-1.15979

>  <SCORE.RESTR>
0

>  <SCORE.RESTR.CAVITY>
0

>  <SCORE.RESTR.norm>
0

>  <SCORE.SYSTEM>
0

>  <SCORE.SYSTEM.CONST>
0

>  <SCORE.SYSTEM.DIHEDRAL>
0

>  <SCORE.SYSTEM.SOLV>
0

>  <SCORE.SYSTEM.norm>
0

>  <SCORE.heavy>
13

>  <SCORE.norm>
-0.873967

>  <RMSD>
7.144

$$$$
ligand
 OpenBabel11021811473D
libRbt.so/2013.1/901 2013/11/27
 13 12  0  0  0  0  0  0  0  0999 V2000
   31.4172   33.8968   45.1543 O   0  0  0  0  0  0  0  0  0  0  0  0
   34.0489   31.5018   44.0801 O   0  0  0  0  0  0  0  0  0  0  0  0
   30.3945   37.2963   47.2931 P   0  0  1  0  0  0  0  0  0  0  0  0
   31.8566   37.6193   47.1551 O   0  5  0  0  0  0  0  0  0  0  0  0
   29.2527   38.1407   47.0172 O   0  0  0  0  0  0  0  0  0  0  0  0
   30.3388   35.7066   47.0234 O   0  0  0  0  0  0  0  0  0  0  0  0
   36.4127   30.7541   45.7208 O   0  0  0  0  0  0  0  0  0  0  0  0
   29.5291   35.1399   45.9704 C   0  0  0  0  0  0  0  0  0  0  0  0
   33.4666   32.7879   44.3677 C   0  0  0  0  0  0  0  0  0  0  0  0
   36.3302   31.9010   44.8563 C   0  0  0  0  0  0  0  0  0  0  0  0
   30.0568   33.7541   45.5706 C   0  0  0  0  0  0  0  0  0  0  0  0
   31.9888   32.6246   44.7933 C   0  0  0  0  0  0  0  0  0  0  0  0
   35.4180   31.5878   43.6472 C   0  0  0  0  0  0  0  0  0  0  0  0
  1 12  1  0  0  0  0
  1 11  1  0  0  0  0
  2 13  1  0  0  0  0
  2  9  1  0  0  0  0
  3  4  1  6  0  0  0
  3  5  2  0  0  0  0
  3  6  1  0  0  0  0
  6  8  1  0  0  0  0
  7 10  1  0  0  0  0
  8 11  1  0  0  0  0
  9 12  1  0  0  0  0
 10 13  1  0  0  0  0
M  CHG  1   4  -1
M  END
>  <CHROM.1>
-179.05142721,74.54933752,-122.26305091,157.62461449,-58.08276912,178.64117756
176.83519286,70.87797701,178.62779817,32.18320390,34.34562005,45.74974086
2.28355420,-0.14060537,0.52825546

>  <Name>
ligand

>  <RI>
0

>  <Rbt.Current_Directory>
/home/itssahil/PROJECTS/Mol_Feturizer/New_Systems/rnas/3GS8

>  <Rbt.Executable>
rbdock ($Id: //depot/dev/client3/rdock/2013.1/src/exe/rbdock.cxx#4 $)

>  <Rbt.Library>
libRbt.so (2013.1, Build901 2013/11/27)

>  <Rbt.Parameter_File>
/export/apps/rDock/src/rDock_2013.1_src/data/scripts/dock_solv.prm

>  <Rbt.Receptor>
prm/pocket_docking_3.prm

>  <SCORE>
-6.16307

>  <SCORE.INTER>
6.94907

>  <SCORE.INTER.CONST>
1

>  <SCORE.INTER.POLAR>
0

>  <SCORE.INTER.ROT>
9

>  <SCORE.INTER.SOLV>
5.92365

>  <SCORE.INTER.VDW>
-6.94184

>  <SCORE.INTER.norm>
0.534543

>  <SCORE.INTRA>
-13.1218

>  <SCORE.INTRA.DIHEDRAL>
-27.0712

>  <SCORE.INTRA.DIHEDRAL.0>
31.9578

>  <SCORE.INTRA.POLAR>
0

>  <SCORE.INTRA.POLAR.0>
0

>  <SCORE.INTRA.REPUL>
0

>  <SCORE.INTRA.REPUL.0>
0

>  <SCORE.INTRA.SOLV>
-1.01207

>  <SCORE.INTRA.SOLV.lig_0>
-48.4032

>  <SCORE.INTRA.VDW>
0.919817

>  <SCORE.INTRA.VDW.0>
-1.65238

>  <SCORE.INTRA.norm>
-1.00937

>  <SCORE.RESTR>
0.00969796

>  <SCORE.RESTR.CAVITY>
0.00969796

>  <SCORE.RESTR.norm>
0.000745997

>  <SCORE.SYSTEM>
0

>  <SCORE.SYSTEM.CONST>
0

>  <SCORE.SYSTEM.DIHEDRAL>
0

>  <SCORE.SYSTEM.SOLV>
0

>  <SCORE.SYSTEM.norm>
0

>  <SCORE.heavy>
13

>  <SCORE.norm>
-0.474083

>  <RMSD>
7.156

$$$$
ligand
 OpenBabel11021811473D
libRbt.so/2013.1/901 2013/11/27
 13 12  0  0  0  0  0  0  0  0999 V2000
   31.3993   34.6015   46.3507 O   0  0  0  0  0  0  0  0  0  0  0  0
   33.3095   33.2511   44.6380 O   0  0  0  0  0  0  0  0  0  0  0  0
   30.4760   38.1986   49.8070 P   0  0  1  0  0  0  0  0  0  0  0  0
   29.6603   39.4489   49.6272 O   0  5  0  0  0  0  0  0  0  0  0  0
   30.8312   37.5201   51.0343 O   0  0  0  0  0  0  0  0  0  0  0  0
   30.1912   37.3719   48.4510 O   0  0  0  0  0  0  0  0  0  0  0  0
   36.5501   31.6044   43.9445 O   0  0  0  0  0  0  0  0  0  0  0  0
   31.0116   36.2514   48.0548 C   0  0  0  0  0  0  0  0  0  0  0  0
   31.9335   32.8333   44.7270 C   0  0  0  0  0  0  0  0  0  0  0  0
   35.6602   32.6736   44.3109 C   0  0  0  0  0  0  0  0  0  0  0  0
   30.5498   35.6976   46.6987 C   0  0  0  0  0  0  0  0  0  0  0  0
   31.0289   34.0377   45.0778 C   0  0  0  0  0  0  0  0  0  0  0  0
   34.1921   32.1959   44.2176 C   0  0  0  0  0  0  0  0  0  0  0  0
  1 12  1  0  0  0  0
  1 11  1  0  0  0  0
  2 13  1  0  0  0  0
  2  9  1  0  0  0  0
  3  4  1  1  0  0  0
  3  5  2  0  0  0  0
  3  6  1  0  0  0  0
  6  8  1  0  0  0  0
  7 10  1  0  0  0  0
  8 11  1  0  0  0  0
  9 12  1  0  0  0  0
 10 13  1  0  0  0  0
M  CHG  1   4  -1
M  END
>  <CHROM.1>
-178.71062842,-173.23801455,165.21940689,-177.50757851,179.53954924,-175.70421200
-60.82306088,177.62934264,-179.51519853,31.92985863,35.33780685,46.97466045
1.05860352,0.23033821,-2.25601487

>  <Name>
ligand

>  <RI>
0

>  <Rbt.Current_Directory>
/home/itssahil/PROJECTS/Mol_Feturizer/New_Systems/rnas/3GS8

>  <Rbt.Executable>
rbdock ($Id: //depot/dev/client3/rdock/2013.1/src/exe/rbdock.cxx#4 $)

>  <Rbt.Library>
libRbt.so (2013.1, Build901 2013/11/27)

>  <Rbt.Parameter_File>
/export/apps/rDock/src/rDock_2013.1_src/data/scripts/dock_solv.prm

>  <Rbt.Receptor>
prm/pocket_docking_3.prm

>  <SCORE>
-7.5904

>  <SCORE.INTER>
8.662

>  <SCORE.INTER.CONST>
1

>  <SCORE.INTER.POLAR>
0

>  <SCORE.INTER.ROT>
9

>  <SCORE.INTER.SOLV>
3.16357

>  <SCORE.INTER.VDW>
-4.87986

>  <SCORE.INTER.norm>
0.666308

>  <SCORE.INTRA>
-16.2547

>  <SCORE.INTRA.DIHEDRAL>
-31.2958

>  <SCORE.INTRA.DIHEDRAL.0>
31.9578

>  <SCORE.INTRA.POLAR>
0

>  <SCORE.INTRA.POLAR.0>
0

>  <SCORE.INTRA.REPUL>
0

>  <SCORE.INTRA.REPUL.0>
0

>  <SCORE.INTRA.SOLV>
-1.82271

>  <SCORE.INTRA.SOLV.lig_0>
-48.4032

>  <SCORE.INTRA.VDW>
0.304559

>  <SCORE.INTRA.VDW.0>
-1.65238

>  <SCORE.INTRA.norm>
-1.25036

>  <SCORE.RESTR>
0.00230358

>  <SCORE.RESTR.CAVITY>
0.00230358

>  <SCORE.RESTR.norm>
0.000177199

>  <SCORE.SYSTEM>
0

>  <SCORE.SYSTEM.CONST>
0

>  <SCORE.SYSTEM.DIHEDRAL>
0

>  <SCORE.SYSTEM.SOLV>
0

>  <SCORE.SYSTEM.norm>
0

>  <SCORE.heavy>
13

>  <SCORE.norm>
-0.583877

>  <RMSD>
7.166

$$$$
ligand
 OpenBabel11021811473D
libRbt.so/2013.1/901 2013/11/27
 13 12  0  0  0  0  0  0  0  0999 V2000
   32.6758   31.8162   44.3872 O   0  0  0  0  0  0  0  0  0  0  0  0
   35.4455   31.1888   44.9169 O   0  0  0  0  0  0  0  0  0  0  0  0
   29.2919   33.2533   46.7387 P   0  0  1  0  0  0  0  0  0  0  0  0
   28.0590   33.6756   45.9887 O   0  5  0  0  0  0  0  0  0  0  0  0
   29.3861   32.5611   48.0055 O   0  0  0  0  0  0  0  0  0  0  0  0
   30.3686   32.9929   45.5656 O   0  0  0  0  0  0  0  0  0  0  0  0
   36.3765   31.4204   47.6527 O   0  0  0  0  0  0  0  0  0  0  0  0
   31.6521   33.6547   45.5481 C   0  0  0  0  0  0  0  0  0  0  0  0
   35.0273   31.7734   43.6682 C   0  0  0  0  0  0  0  0  0  0  0  0
   37.1754   30.8410   46.6058 C   0  0  0  0  0  0  0  0  0  0  0  0
   32.4622   33.2281   44.3151 C   0  0  0  0  0  0  0  0  0  0  0  0
   33.5690   31.3697   43.3487 C   0  0  0  0  0  0  0  0  0  0  0  0
   36.8140   31.4846   45.2466 C   0  0  0  0  0  0  0  0  0  0  0  0
  1 12  1  0  0  0  0
  1 11  1  0  0  0  0
  2 13  1  0  0  0  0
  2  9  1  0  0  0  0
  3  4  1  6  0  0  0
  3  5  2  0  0  0  0
  3  6  1  0  0  0  0
  6  8  1  0  0  0  0
  7 10  1  0  0  0  0
  8 11  1  0  0  0  0
  9 12  1  0  0  0  0
 10 13  1  0  0  0  0
M  CHG  1   4  -1
M  END
>  <CHROM.1>
74.35329463,179.14571963,124.87761325,-179.52045268,-61.07117845,177.72932943
59.72435536,-63.51249393,-172.91257731,32.60292350,32.33261869,45.66469472
0.12571454,0.27961693,-1.53844521

>  <Name>
ligand

>  <RI>
0

>  <Rbt.Current_Directory>
/home/itssahil/PROJECTS/Mol_Feturizer/New_Systems/rnas/3GS8

>  <Rbt.Executable>
rbdock ($Id: //depot/dev/client3/rdock/2013.1/src/exe/rbdock.cxx#4 $)

>  <Rbt.Library>
libRbt.so (2013.1, Build901 2013/11/27)

>  <Rbt.Parameter_File>
/export/apps/rDock/src/rDock_2013.1_src/data/scripts/dock_solv.prm

>  <Rbt.Receptor>
prm/pocket_docking_4.prm

>  <SCORE>
-12.8801

>  <SCORE.INTER>
1.76612

>  <SCORE.INTER.CONST>
1

>  <SCORE.INTER.POLAR>
0

>  <SCORE.INTER.ROT>
9

>  <SCORE.INTER.SOLV>
10.6759

>  <SCORE.INTER.VDW>
-11.9812

>  <SCORE.INTER.norm>
0.135855

>  <SCORE.INTRA>
-14.6462

>  <SCORE.INTRA.DIHEDRAL>
-29.6361

>  <SCORE.INTRA.DIHEDRAL.0>
31.9578

>  <SCORE.INTRA.POLAR>
0

>  <SCORE.INTRA.POLAR.0>
0

>  <SCORE.INTRA.REPUL>
0

>  <SCORE.INTRA.REPUL.0>
0

>  <SCORE.INTRA.SOLV>
-1.43618

>  <SCORE.INTRA.SOLV.lig_0>
-48.4032

>  <SCORE.INTRA.VDW>
0.889987

>  <SCORE.INTRA.VDW.0>
-1.65238

>  <SCORE.INTRA.norm>
-1.12663

>  <SCORE.RESTR>
0

>  <SCORE.RESTR.CAVITY>
0

>  <SCORE.RESTR.norm>
0

>  <SCORE.SYSTEM>
0

>  <SCORE.SYSTEM.CONST>
0

>  <SCORE.SYSTEM.DIHEDRAL>
0

>  <SCORE.SYSTEM.SOLV>
0

>  <SCORE.SYSTEM.norm>
0

>  <SCORE.heavy>
13

>  <SCORE.norm>
-0.990774

>  <RMSD>
7.166

$$$$
ligand
 OpenBabel11021811473D
libRbt.so/2013.1/901 2013/11/27
 13 12  0  0  0  0  0  0  0  0999 V2000
   34.4852   32.0072   44.4551 O   0  0  0  0  0  0  0  0  0  0  0  0
   36.3849   30.9272   46.2836 O   0  0  0  0  0  0  0  0  0  0  0  0
   30.6804   33.3856   46.2453 P   0  0  1  0  0  0  0  0  0  0  0  0
   29.7457   33.9099   45.1906 O   0  5  0  0  0  0  0  0  0  0  0  0
   30.3968   33.0709   47.6285 O   0  0  0  0  0  0  0  0  0  0  0  0
   31.7498   32.5243   45.3979 O   0  0  0  0  0  0  0  0  0  0  0  0
   36.1295   31.9587   48.9380 O   0  0  0  0  0  0  0  0  0  0  0  0
   32.3240   33.0186   44.1685 C   0  0  0  0  0  0  0  0  0  0  0  0
   36.7278   31.0985   44.8948 C   0  0  0  0  0  0  0  0  0  0  0  0
   37.0593   30.9048   48.6311 C   0  0  0  0  0  0  0  0  0  0  0  0
   33.3369   32.0120   43.6032 C   0  0  0  0  0  0  0  0  0  0  0  0
   35.4562   31.0373   44.0168 C   0  0  0  0  0  0  0  0  0  0  0  0
   37.5221   31.0191   47.1597 C   0  0  0  0  0  0  0  0  0  0  0  0
  1 12  1  0  0  0  0
  1 11  1  0  0  0  0
  2 13  1  0  0  0  0
  2  9  1  0  0  0  0
  3  4  1  6  0  0  0
  3  5  2  0  0  0  0
  3  6  1  0  0  0  0
  6  8  1  0  0  0  0
  7 10  1  0  0  0  0
  8 11  1  0  0  0  0
  9 12  1  0  0  0  0
 10 13  1  0  0  0  0
M  CHG  1   4  -1
M  END
>  <CHROM.1>
176.67343709,176.82489252,44.39735366,178.29006538,-70.36693400,-178.04188555
55.49644453,-59.41135321,177.40605804,33.68573244,32.19168921,45.94524441
-0.14145524,0.35532609,-1.64182198

>  <Name>
ligand

>  <RI>
0

>  <Rbt.Current_Directory>
/home/itssahil/PROJECTS/Mol_Feturizer/New_Systems/rnas/3GS8

>  <Rbt.Executable>
rbdock ($Id: //depot/dev/client3/rdock/2013.1/src/exe/rbdock.cxx#4 $)

>  <Rbt.Library>
libRbt.so (2013.1, Build901 2013/11/27)

>  <Rbt.Parameter_File>
/export/apps/rDock/src/rDock_2013.1_src/data/scripts/dock_solv.prm

>  <Rbt.Receptor>
prm/pocket_docking_6.prm

>  <SCORE>
-14.2956

>  <SCORE.INTER>
1.46729

>  <SCORE.INTER.CONST>
1

>  <SCORE.INTER.POLAR>
0

>  <SCORE.INTER.ROT>
9

>  <SCORE.INTER.SOLV>
12.317

>  <SCORE.INTER.VDW>
-12.7275

>  <SCORE.INTER.norm>
0.112868

>  <SCORE.INTRA>
-15.7629

>  <SCORE.INTRA.DIHEDRAL>
-31.0309

>  <SCORE.INTRA.DIHEDRAL.0>
31.9578

>  <SCORE.INTRA.POLAR>
0

>  <SCORE.INTRA.POLAR.0>
0

>  <SCORE.INTRA.REPUL>
0

>  <SCORE.INTRA.REPUL.0>
0

>  <SCORE.INTRA.SOLV>
-1.22685

>  <SCORE.INTRA.SOLV.lig_0>
-48.4032

>  <SCORE.INTRA.VDW>
0.365964

>  <SCORE.INTRA.VDW.0>
-1.65238

>  <SCORE.INTRA.norm>
-1.21253

>  <SCORE.RESTR>
0

>  <SCORE.RESTR.CAVITY>
0

>  <SCORE.RESTR.norm>
0

>  <SCORE.SYSTEM>
0

>  <SCORE.SYSTEM.CONST>
0

>  <SCORE.SYSTEM.DIHEDRAL>
0

>  <SCORE.SYSTEM.SOLV>
0

>  <SCORE.SYSTEM.norm>
0

>  <SCORE.heavy>
13

>  <SCORE.norm>
-1.09966

>  <RMSD>
7.168

$$$$
ligand
 OpenBabel11021811473D
libRbt.so/2013.1/901 2013/11/27
 13 12  0  0  0  0  0  0  0  0999 V2000
   36.4546   31.0456   47.1913 O   0  0  0  0  0  0  0  0  0  0  0  0
   35.1461   31.6940   44.7293 O   0  0  0  0  0  0  0  0  0  0  0  0
   34.3034   32.5693   50.7129 P   0  0  1  0  0  0  0  0  0  0  0  0
   33.8448   33.9783   50.4571 O   0  5  0  0  0  0  0  0  0  0  0  0
   33.5874   31.4886   51.3550 O   0  0  0  0  0  0  0  0  0  0  0  0
   35.3237   32.2847   49.4959 O   0  0  0  0  0  0  0  0  0  0  0  0
   33.3853   33.6389   43.5455 O   0  0  0  0  0  0  0  0  0  0  0  0
   36.3490   31.2713   49.5817 C   0  0  0  0  0  0  0  0  0  0  0  0
   36.3432   30.8923   44.7393 C   0  0  0  0  0  0  0  0  0  0  0  0
   32.9996   32.2629   43.7120 C   0  0  0  0  0  0  0  0  0  0  0  0
   37.2567   31.3161   48.3437 C   0  0  0  0  0  0  0  0  0  0  0  0
   37.2064   31.2326   45.9766 C   0  0  0  0  0  0  0  0  0  0  0  0
   34.2491   31.3529   43.6578 C   0  0  0  0  0  0  0  0  0  0  0  0
  1 12  1  0  0  0  0
  1 11  1  0  0  0  0
  2 13  1  0  0  0  0
  2  9  1  0  0  0  0
  3  4  1  6  0  0  0
  3  5  2  0  0  0  0
  3  6  1  0  0  0  0
  6  8  1  0  0  0  0
  7 10  1  0  0  0  0
  8 11  1  0  0  0  0
  9 12  1  0  0  0  0
 10 13  1  0  0  0  0
M  CHG  1   4  -1
M  END
>  <CHROM.1>
178.12687435,-179.57819761,157.35718993,-174.29910199,-61.58251249,-175.49172901
56.93028601,61.38604778,172.91679484,35.01926130,32.00099711,47.50859640
-1.56279393,-0.51056642,1.51483495

>  <Name>
ligand

>  <RI>
0

>  <Rbt.Current_Directory>
/home/itssahil/PROJECTS/Mol_Feturizer/New_Systems/rnas/3GS8

>  <Rbt.Executable>
rbdock ($Id: //depot/dev/client3/rdock/2013.1/src/exe/rbdock.cxx#4 $)

>  <Rbt.Library>
libRbt.so (2013.1, Build901 2013/11/27)

>  <Rbt.Parameter_File>
/export/apps/rDock/src/rDock_2013.1_src/data/scripts/dock_solv.prm

>  <Rbt.Receptor>
prm/pocket_docking_7.prm

>  <SCORE>
-14.4413

>  <SCORE.INTER>
1.78652

>  <SCORE.INTER.CONST>
1

>  <SCORE.INTER.POLAR>
0

>  <SCORE.INTER.ROT>
9

>  <SCORE.INTER.SOLV>
10.8768

>  <SCORE.INTER.VDW>
-12.0346

>  <SCORE.INTER.norm>
0.137425

>  <SCORE.INTRA>
-16.2278

>  <SCORE.INTRA.DIHEDRAL>
-31.0759

>  <SCORE.INTRA.DIHEDRAL.0>
31.9578

>  <SCORE.INTRA.POLAR>
0

>  <SCORE.INTRA.POLAR.0>
0

>  <SCORE.INTRA.REPUL>
0

>  <SCORE.INTRA.REPUL.0>
0

>  <SCORE.INTRA.SOLV>
-1.50319

>  <SCORE.INTRA.SOLV.lig_0>
-48.4032

>  <SCORE.INTRA.VDW>
0.0617166

>  <SCORE.INTRA.VDW.0>
-1.65238

>  <SCORE.INTRA.norm>
-1.24829

>  <SCORE.RESTR>
0

>  <SCORE.RESTR.CAVITY>
0

>  <SCORE.RESTR.norm>
0

>  <SCORE.SYSTEM>
0

>  <SCORE.SYSTEM.CONST>
0

>  <SCORE.SYSTEM.DIHEDRAL>
0

>  <SCORE.SYSTEM.SOLV>
0

>  <SCORE.SYSTEM.norm>
0

>  <SCORE.heavy>
13

>  <SCORE.norm>
-1.11087

>  <RMSD>
7.169

$$$$
ligand
 OpenBabel11021811473D
libRbt.so/2013.1/901 2013/11/27
 13 12  0  0  0  0  0  0  0  0999 V2000
   32.7757   32.8905   45.0881 O   0  0  0  0  0  0  0  0  0  0  0  0
   35.2763   31.5954   45.1135 O   0  0  0  0  0  0  0  0  0  0  0  0
   30.3489   32.5110   48.8071 P   0  0  1  0  0  0  0  0  0  0  0  0
   31.1812   33.5520   49.5033 O   0  5  0  0  0  0  0  0  0  0  0  0
   28.9603   32.1696   49.0262 O   0  0  0  0  0  0  0  0  0  0  0  0
   31.0013   32.4394   47.3332 O   0  0  0  0  0  0  0  0  0  0  0  0
   38.4903   30.5121   46.5896 O   0  0  0  0  0  0  0  0  0  0  0  0
   30.8444   33.5105   46.3772 C   0  0  0  0  0  0  0  0  0  0  0  0
   34.8552   32.2873   43.9219 C   0  0  0  0  0  0  0  0  0  0  0  0
   37.0791   30.7889   46.5507 C   0  0  0  0  0  0  0  0  0  0  0  0
   31.3617   33.0811   44.9963 C   0  0  0  0  0  0  0  0  0  0  0  0
   33.3116   32.3595   43.8608 C   0  0  0  0  0  0  0  0  0  0  0  0
   36.7033   31.4339   45.1961 C   0  0  0  0  0  0  0  0  0  0  0  0
  1 12  1  0  0  0  0
  1 11  1  0  0  0  0
  2 13  1  0  0  0  0
  2  9  1  0  0  0  0
  3  4  1  6  0  0  0
  3  5  2  0  0  0  0
  3  6  1  0  0  0  0
  6  8  1  0  0  0  0
  7 10  1  0  0  0  0
  8 11  1  0  0  0  0
  9 12  1  0  0  0  0
 10 13  1  0  0  0  0
M  CHG  1   4  -1
M  END
>  <CHROM.1>
174.46456390,175.41588219,-71.06985391,-170.60570162,-66.21913498,176.99984226
51.82847623,174.74269011,174.35315572,32.99616109,32.25987932,46.57740906
0.36838012,0.29866232,-1.39227755

>  <Name>
ligand

>  <RI>
0

>  <Rbt.Current_Directory>
/home/itssahil/PROJECTS/Mol_Feturizer/New_Systems/rnas/3GS8

>  <Rbt.Executable>
rbdock ($Id: //depot/dev/client3/rdock/2013.1/src/exe/rbdock.cxx#4 $)

>  <Rbt.Library>
libRbt.so (2013.1, Build901 2013/11/27)

>  <Rbt.Parameter_File>
/export/apps/rDock/src/rDock_2013.1_src/data/scripts/dock_solv.prm

>  <Rbt.Receptor>
prm/pocket_docking_4.prm

>  <SCORE>
-11.7106

>  <SCORE.INTER>
3.97401

>  <SCORE.INTER.CONST>
1

>  <SCORE.INTER.POLAR>
0

>  <SCORE.INTER.ROT>
9

>  <SCORE.INTER.SOLV>
9.087

>  <SCORE.INTER.VDW>
-9.97966

>  <SCORE.INTER.norm>
0.305693

>  <SCORE.INTRA>
-15.6846

>  <SCORE.INTRA.DIHEDRAL>
-30.2771

>  <SCORE.INTRA.DIHEDRAL.0>
31.9578

>  <SCORE.INTRA.POLAR>
0

>  <SCORE.INTRA.POLAR.0>
0

>  <SCORE.INTRA.REPUL>
0

>  <SCORE.INTRA.REPUL.0>
0

>  <SCORE.INTRA.SOLV>
-1.46803

>  <SCORE.INTRA.SOLV.lig_0>
-48.4032

>  <SCORE.INTRA.VDW>
0.18793

>  <SCORE.INTRA.VDW.0>
-1.65238

>  <SCORE.INTRA.norm>
-1.20651

>  <SCORE.RESTR>
0

>  <SCORE.RESTR.CAVITY>
0

>  <SCORE.RESTR.norm>
0

>  <SCORE.SYSTEM>
0

>  <SCORE.SYSTEM.CONST>
0

>  <SCORE.SYSTEM.DIHEDRAL>
0

>  <SCORE.SYSTEM.SOLV>
0

>  <SCORE.SYSTEM.norm>
0

>  <SCORE.heavy>
13

>  <SCORE.norm>
-0.900816

>  <RMSD>
7.178

$$$$
ligand
 OpenBabel11021811473D
libRbt.so/2013.1/901 2013/11/27
 13 12  0  0  0  0  0  0  0  0999 V2000
   33.6799   32.5655   44.7670 O   0  0  0  0  0  0  0  0  0  0  0  0
   36.1272   31.3396   45.6507 O   0  0  0  0  0  0  0  0  0  0  0  0
   30.4457   34.8644   46.7778 P   0  0  1  0  0  0  0  0  0  0  0  0
   30.6810   34.0227   48.0014 O   0  5  0  0  0  0  0  0  0  0  0  0
   30.0443   36.2521   46.6992 O   0  0  0  0  0  0  0  0  0  0  0  0
   31.4507   34.2255   45.6892 O   0  0  0  0  0  0  0  0  0  0  0  0
   36.4684   30.9681   48.4836 O   0  0  0  0  0  0  0  0  0  0  0  0
   31.3474   32.8464   45.2733 C   0  0  0  0  0  0  0  0  0  0  0  0
   36.0908   32.1754   44.4777 C   0  0  0  0  0  0  0  0  0  0  0  0
   37.3747   30.3935   47.5254 C   0  0  0  0  0  0  0  0  0  0  0  0
   32.3776   32.5348   44.1777 C   0  0  0  0  0  0  0  0  0  0  0  0
   34.6864   32.1323   43.8316 C   0  0  0  0  0  0  0  0  0  0  0  0
   37.4307   31.2746   46.2554 C   0  0  0  0  0  0  0  0  0  0  0  0
  1 12  1  0  0  0  0
  1 11  1  0  0  0  0
  2 13  1  0  0  0  0
  2  9  1  0  0  0  0
  3  4  1  1  0  0  0
  3  5  2  0  0  0  0
  3  6  1  0  0  0  0
  6  8  1  0  0  0  0
  7 10  1  0  0  0  0
  8 11  1  0  0  0  0
  9 12  1  0  0  0  0
 10 13  1  0  0  0  0
M  CHG  1   4  -1
M  END
>  <CHROM.1>
179.75932628,178.40939222,60.23314960,176.92385511,69.31298503,176.59007508
58.39173780,-61.30113026,173.42140128,33.41072109,32.93626898,46.06727951
0.06207927,0.53409731,-1.63221658

>  <Name>
ligand

>  <RI>
0

>  <Rbt.Current_Directory>
/home/itssahil/PROJECTS/Mol_Feturizer/New_Systems/rnas/3GS8

>  <Rbt.Executable>
rbdock ($Id: //depot/dev/client3/rdock/2013.1/src/exe/rbdock.cxx#4 $)

>  <Rbt.Library>
libRbt.so (2013.1, Build901 2013/11/27)

>  <Rbt.Parameter_File>
/export/apps/rDock/src/rDock_2013.1_src/data/scripts/dock_solv.prm

>  <Rbt.Receptor>
prm/pocket_docking_4.prm

>  <SCORE>
-11.8113

>  <SCORE.INTER>
4.08096

>  <SCORE.INTER.CONST>
1

>  <SCORE.INTER.POLAR>
0

>  <SCORE.INTER.ROT>
9

>  <SCORE.INTER.SOLV>
6.1371

>  <SCORE.INTER.VDW>
-8.92506

>  <SCORE.INTER.norm>
0.31392

>  <SCORE.INTRA>
-15.8923

>  <SCORE.INTRA.DIHEDRAL>
-30.8234

>  <SCORE.INTRA.DIHEDRAL.0>
31.9578

>  <SCORE.INTRA.POLAR>
0

>  <SCORE.INTRA.POLAR.0>
0

>  <SCORE.INTRA.REPUL>
0

>  <SCORE.INTRA.REPUL.0>
0

>  <SCORE.INTRA.SOLV>
-1.33901

>  <SCORE.INTRA.SOLV.lig_0>
-48.4032

>  <SCORE.INTRA.VDW>
0.188908

>  <SCORE.INTRA.VDW.0>
-1.65238

>  <SCORE.INTRA.norm>
-1.22248

>  <SCORE.RESTR>
0

>  <SCORE.RESTR.CAVITY>
0

>  <SCORE.RESTR.norm>
0

>  <SCORE.SYSTEM>
0

>  <SCORE.SYSTEM.CONST>
0

>  <SCORE.SYSTEM.DIHEDRAL>
0

>  <SCORE.SYSTEM.SOLV>
0

>  <SCORE.SYSTEM.norm>
0

>  <SCORE.heavy>
13

>  <SCORE.norm>
-0.908563

>  <RMSD>
7.185

$$$$
ligand
 OpenBabel11021811473D
libRbt.so/2013.1/901 2013/11/27
 13 12  0  0  0  0  0  0  0  0999 V2000
   33.2719   32.5180   44.7546 O   0  0  0  0  0  0  0  0  0  0  0  0
   35.8688   31.8235   45.8056 O   0  0  0  0  0  0  0  0  0  0  0  0
   30.0786   32.8857   47.7356 P   0  0  1  0  0  0  0  0  0  0  0  0
   30.6999   33.3173   49.0351 O   0  5  0  0  0  0  0  0  0  0  0  0
   28.6804   32.8668   47.3647 O   0  0  0  0  0  0  0  0  0  0  0  0
   31.2238   33.2181   46.6486 O   0  0  0  0  0  0  0  0  0  0  0  0
   38.1293   30.0537   48.1408 O   0  0  0  0  0  0  0  0  0  0  0  0
   30.9872   33.0931   45.2295 C   0  0  0  0  0  0  0  0  0  0  0  0
   35.5887   31.7766   44.3930 C   0  0  0  0  0  0  0  0  0  0  0  0
   37.1038   30.9778   47.7357 C   0  0  0  0  0  0  0  0  0  0  0  0
   32.2492   33.4655   44.4374 C   0  0  0  0  0  0  0  0  0  0  0  0
   34.4856   32.7981   44.0307 C   0  0  0  0  0  0  0  0  0  0  0  0
   36.9237   30.9288   46.2003 C   0  0  0  0  0  0  0  0  0  0  0  0
  1 12  1  0  0  0  0
  1 11  1  0  0  0  0
  2 13  1  0  0  0  0
  2  9  1  0  0  0  0
  3  4  1  1  0  0  0
  3  5  2  0  0  0  0
  3  6  1  0  0  0  0
  6  8  1  0  0  0  0
  7 10  1  0  0  0  0
  8 11  1  0  0  0  0
  9 12  1  0  0  0  0
 10 13  1  0  0  0  0
M  CHG  1   4  -1
M  END
>  <CHROM.1>
179.39024403,-176.65108184,-173.03078871,-179.70498280,64.15654218,-177.85806432
-59.46149718,178.20281197,179.28981336,33.18227658,32.33522584,46.42633039
0.03846012,0.30442475,-1.34439393

>  <Name>
ligand

>  <RI>
0

>  <Rbt.Current_Directory>
/home/itssahil/PROJECTS/Mol_Feturizer/New_Systems/rnas/3GS8

>  <Rbt.Executable>
rbdock ($Id: //depot/dev/client3/rdock/2013.1/src/exe/rbdock.cxx#4 $)

>  <Rbt.Library>
libRbt.so (2013.1, Build901 2013/11/27)

>  <Rbt.Parameter_File>
/export/apps/rDock/src/rDock_2013.1_src/data/scripts/dock_solv.prm

>  <Rbt.Receptor>
prm/pocket_docking_5.prm

>  <SCORE>
-13.305

>  <SCORE.INTER>
2.92091

>  <SCORE.INTER.CONST>
1

>  <SCORE.INTER.POLAR>
0

>  <SCORE.INTER.ROT>
9

>  <SCORE.INTER.SOLV>
8.44422

>  <SCORE.INTER.VDW>
-10.4675

>  <SCORE.INTER.norm>
0.224685

>  <SCORE.INTRA>
-16.2259

>  <SCORE.INTRA.DIHEDRAL>
-31.1701

>  <SCORE.INTRA.DIHEDRAL.0>
31.9578

>  <SCORE.INTRA.POLAR>
0

>  <SCORE.INTRA.POLAR.0>
0

>  <SCORE.INTRA.REPUL>
0

>  <SCORE.INTRA.REPUL.0>
0

>  <SCORE.INTRA.SOLV>
-1.64878

>  <SCORE.INTRA.SOLV.lig_0>
-48.4032

>  <SCORE.INTRA.VDW>
0.183487

>  <SCORE.INTRA.VDW.0>
-1.65238

>  <SCORE.INTRA.norm>
-1.24815

>  <SCORE.RESTR>
0

>  <SCORE.RESTR.CAVITY>
0

>  <SCORE.RESTR.norm>
0

>  <SCORE.SYSTEM>
0

>  <SCORE.SYSTEM.CONST>
0

>  <SCORE.SYSTEM.DIHEDRAL>
0

>  <SCORE.SYSTEM.SOLV>
0

>  <SCORE.SYSTEM.norm>
0

>  <SCORE.heavy>
13

>  <SCORE.norm>
-1.02346

>  <RMSD>
7.192

$$$$
ligand
 OpenBabel11021811473D
libRbt.so/2013.1/901 2013/11/27
 13 12  0  0  0  0  0  0  0  0999 V2000
   32.2830   34.2512   49.6556 O   0  0  0  0  0  0  0  0  0  0  0  0
   34.7161   32.6769   47.3272 O   0  0  0  0  0  0  0  0  0  0  0  0
   30.0755   37.6028   51.2409 P   0  0  1  0  0  0  0  0  0  0  0  0
   30.0134   38.6386   50.1527 O   0  5  0  0  0  0  0  0  0  0  0  0
   29.3700   37.5753   52.5035 O   0  0  0  0  0  0  0  0  0  0  0  0
   30.3997   36.2410   50.4386 O   0  0  0  0  0  0  0  0  0  0  0  0
   36.6441   30.6923   46.5235 O   0  0  0  0  0  0  0  0  0  0  0  0
   30.5097   34.9677   51.1110 C   0  0  0  0  0  0  0  0  0  0  0  0
   34.1888   33.6892   48.2064 C   0  0  0  0  0  0  0  0  0  0  0  0
   36.4595   31.9184   45.7939 C   0  0  0  0  0  0  0  0  0  0  0  0
   30.9877   33.8820   50.1356 C   0  0  0  0  0  0  0  0  0  0  0  0
   32.8052   33.2612   48.7486 C   0  0  0  0  0  0  0  0  0  0  0  0
   35.9836   33.0369   46.7502 C   0  0  0  0  0  0  0  0  0  0  0  0
  1 12  1  0  0  0  0
  1 11  1  0  0  0  0
  2 13  1  0  0  0  0
  2  9  1  0  0  0  0
  3  4  1  6  0  0  0
  3  5  2  0  0  0  0
  3  6  1  0  0  0  0
  6  8  1  0  0  0  0
  7 10  1  0  0  0  0
  8 11  1  0  0  0  0
  9 12  1  0  0  0  0
 10 13  1  0  0  0  0
M  CHG  1   4  -1
M  END
>  <CHROM.1>
178.46258900,-178.47792457,-178.23593593,-173.19826381,61.47178738,177.91626773
178.56778046,-61.69117791,179.00640596,32.41933907,34.77338600,49.30964908
0.50246082,-0.74192786,2.95796892

>  <Name>
ligand

>  <RI>
0

>  <Rbt.Current_Directory>
/home/itssahil/PROJECTS/Mol_Feturizer/New_Systems/rnas/3GS8

>  <Rbt.Executable>
rbdock ($Id: //depot/dev/client3/rdock/2013.1/src/exe/rbdock.cxx#4 $)

>  <Rbt.Library>
libRbt.so (2013.1, Build901 2013/11/27)

>  <Rbt.Parameter_File>
/export/apps/rDock/src/rDock_2013.1_src/data/scripts/dock_solv.prm

>  <Rbt.Receptor>
prm/pocket_docking_3.prm

>  <SCORE>
-6.31016

>  <SCORE.INTER>
9.78943

>  <SCORE.INTER.CONST>
1

>  <SCORE.INTER.POLAR>
0

>  <SCORE.INTER.ROT>
9

>  <SCORE.INTER.SOLV>
7.84097

>  <SCORE.INTER.VDW>
-5.68737

>  <SCORE.INTER.norm>
0.753033

>  <SCORE.INTRA>
-16.0996

>  <SCORE.INTRA.DIHEDRAL>
-31.1543

>  <SCORE.INTRA.DIHEDRAL.0>
31.9578

>  <SCORE.INTRA.POLAR>
0

>  <SCORE.INTRA.POLAR.0>
0

>  <SCORE.INTRA.REPUL>
0

>  <SCORE.INTRA.REPUL.0>
0

>  <SCORE.INTRA.SOLV>
-1.54259

>  <SCORE.INTRA.SOLV.lig_0>
-48.4032

>  <SCORE.INTRA.VDW>
0.248843

>  <SCORE.INTRA.VDW.0>
-1.65238

>  <SCORE.INTRA.norm>
-1.23843

>  <SCORE.RESTR>
0

>  <SCORE.RESTR.CAVITY>
0

>  <SCORE.RESTR.norm>
0

>  <SCORE.SYSTEM>
0

>  <SCORE.SYSTEM.CONST>
0

>  <SCORE.SYSTEM.DIHEDRAL>
0

>  <SCORE.SYSTEM.SOLV>
0

>  <SCORE.SYSTEM.norm>
0

>  <SCORE.heavy>
13

>  <SCORE.norm>
-0.485397

>  <RMSD>
7.215

$$$$
ligand
 OpenBabel11021811473D
libRbt.so/2013.1/901 2013/11/27
 13 12  0  0  0  0  0  0  0  0999 V2000
   32.3509   32.6966   44.6078 O   0  0  0  0  0  0  0  0  0  0  0  0
   35.0699   31.7687   44.6006 O   0  0  0  0  0  0  0  0  0  0  0  0
   28.9417   32.8040   47.4101 P   0  0  1  0  0  0  0  0  0  0  0  0
   27.5581   32.6591   46.8393 O   0  5  0  0  0  0  0  0  0  0  0  0
   29.4547   32.3145   48.6710 O   0  0  0  0  0  0  0  0  0  0  0  0
   29.8790   32.8679   46.0984 O   0  0  0  0  0  0  0  0  0  0  0  0
   37.5790   32.5962   45.7117 O   0  0  0  0  0  0  0  0  0  0  0  0
   30.7412   33.9954   45.8317 C   0  0  0  0  0  0  0  0  0  0  0  0
   34.1456   31.3755   43.5676 C   0  0  0  0  0  0  0  0  0  0  0  0
   37.0451   31.2823   45.9527 C   0  0  0  0  0  0  0  0  0  0  0  0
   31.4669   33.8141   44.4903 C   0  0  0  0  0  0  0  0  0  0  0  0
   33.0611   32.4613   43.3766 C   0  0  0  0  0  0  0  0  0  0  0  0
   36.1600   30.8441   44.7623 C   0  0  0  0  0  0  0  0  0  0  0  0
  1 12  1  0  0  0  0
  1 11  1  0  0  0  0
  2 13  1  0  0  0  0
  2  9  1  0  0  0  0
  3  4  1  6  0  0  0
  3  5  2  0  0  0  0
  3  6  1  0  0  0  0
  6  8  1  0  0  0  0
  7 10  1  0  0  0  0
  8 11  1  0  0  0  0
  9 12  1  0  0  0  0
 10 13  1  0  0  0  0
M  CHG  1   4  -1
M  END
>  <CHROM.1>
172.51349019,-175.90987171,121.59989064,-177.51550573,-65.69676098,-175.83899474
-58.04536202,-60.13826150,179.57938069,32.24866863,32.45569481,45.71420173
0.26566553,0.19765924,-1.41290598

>  <Name>
ligand

>  <RI>
0

>  <Rbt.Current_Directory>
/home/itssahil/PROJECTS/Mol_Feturizer/New_Systems/rnas/3GS8

>  <Rbt.Executable>
rbdock ($Id: //depot/dev/client3/rdock/2013.1/src/exe/rbdock.cxx#4 $)

>  <Rbt.Library>
libRbt.so (2013.1, Build901 2013/11/27)

>  <Rbt.Parameter_File>
/export/apps/rDock/src/rDock_2013.1_src/data/scripts/dock_solv.prm

>  <Rbt.Receptor>
prm/pocket_docking_4.prm

>  <SCORE>
-13.0775

>  <SCORE.INTER>
2.74994

>  <SCORE.INTER.CONST>
1

>  <SCORE.INTER.POLAR>
0

>  <SCORE.INTER.ROT>
9

>  <SCORE.INTER.SOLV>
10.2529

>  <SCORE.INTER.VDW>
-11.1843

>  <SCORE.INTER.norm>
0.211534

>  <SCORE.INTRA>
-15.8274

>  <SCORE.INTRA.DIHEDRAL>
-30.2477

>  <SCORE.INTRA.DIHEDRAL.0>
31.9578

>  <SCORE.INTRA.POLAR>
0

>  <SCORE.INTRA.POLAR.0>
0

>  <SCORE.INTRA.REPUL>
0

>  <SCORE.INTRA.REPUL.0>
0

>  <SCORE.INTRA.SOLV>
-1.52511

>  <SCORE.INTRA.SOLV.lig_0>
-48.4032

>  <SCORE.INTRA.VDW>
0.0589874

>  <SCORE.INTRA.VDW.0>
-1.65238

>  <SCORE.INTRA.norm>
-1.21749

>  <SCORE.RESTR>
0

>  <SCORE.RESTR.CAVITY>
0

>  <SCORE.RESTR.norm>
0

>  <SCORE.SYSTEM>
0

>  <SCORE.SYSTEM.CONST>
0

>  <SCORE.SYSTEM.DIHEDRAL>
0

>  <SCORE.SYSTEM.SOLV>
0

>  <SCORE.SYSTEM.norm>
0

>  <SCORE.heavy>
13

>  <SCORE.norm>
-1.00596

>  <RMSD>
7.217

$$$$
ligand
 OpenBabel11021811473D
libRbt.so/2013.1/901 2013/11/27
 13 12  0  0  0  0  0  0  0  0999 V2000
   32.1585   32.3976   45.0499 O   0  0  0  0  0  0  0  0  0  0  0  0
   34.8793   31.7698   44.4829 O   0  0  0  0  0  0  0  0  0  0  0  0
   29.5673   34.4825   48.8625 P   0  0  1  0  0  0  0  0  0  0  0  0
   28.8724   33.2095   49.2591 O   0  5  0  0  0  0  0  0  0  0  0  0
   30.3683   35.3672   49.6802 O   0  0  0  0  0  0  0  0  0  0  0  0
   29.9158   34.2451   47.3051 O   0  0  0  0  0  0  0  0  0  0  0  0
   37.4713   32.3471   45.5431 O   0  0  0  0  0  0  0  0  0  0  0  0
   30.8213   33.2050   46.8764 C   0  0  0  0  0  0  0  0  0  0  0  0
   33.8815   31.6832   43.4471 C   0  0  0  0  0  0  0  0  0  0  0  0
   36.9850   30.9965   45.4493 C   0  0  0  0  0  0  0  0  0  0  0  0
   31.1646   33.3682   45.3884 C   0  0  0  0  0  0  0  0  0  0  0  0
   32.7135   32.6521   43.7451 C   0  0  0  0  0  0  0  0  0  0  0  0
   35.9855   30.8741   44.2753 C   0  0  0  0  0  0  0  0  0  0  0  0
  1 12  1  0  0  0  0
  1 11  1  0  0  0  0
  2 13  1  0  0  0  0
  2  9  1  0  0  0  0
  3  4  1  1  0  0  0
  3  5  2  0  0  0  0
  3  6  1  0  0  0  0
  6  8  1  0  0  0  0
  7 10  1  0  0  0  0
  8 11  1  0  0  0  0
  9 12  1  0  0  0  0
 10 13  1  0  0  0  0
M  CHG  1   4  -1
M  END
>  <CHROM.1>
174.42618093,-178.20747603,-63.94528918,-169.72399752,174.46723822,179.03545054
-55.49315401,-59.43047085,-169.03779371,32.40390392,32.97190012,46.37013644
0.65075448,0.19270086,-1.90389837

>  <Name>
ligand

>  <RI>
0

>  <Rbt.Current_Directory>
/home/itssahil/PROJECTS/Mol_Feturizer/New_Systems/rnas/3GS8

>  <Rbt.Executable>
rbdock ($Id: //depot/dev/client3/rdock/2013.1/src/exe/rbdock.cxx#4 $)

>  <Rbt.Library>
libRbt.so (2013.1, Build901 2013/11/27)

>  <Rbt.Parameter_File>
/export/apps/rDock/src/rDock_2013.1_src/data/scripts/dock_solv.prm

>  <Rbt.Receptor>
prm/pocket_docking_3.prm

>  <SCORE>
-10.4009

>  <SCORE.INTER>
5.01994

>  <SCORE.INTER.CONST>
1

>  <SCORE.INTER.POLAR>
0

>  <SCORE.INTER.ROT>
9

>  <SCORE.INTER.SOLV>
11.501

>  <SCORE.INTER.VDW>
-10.087

>  <SCORE.INTER.norm>
0.386149

>  <SCORE.INTRA>
-15.4208

>  <SCORE.INTRA.DIHEDRAL>
-30.117

>  <SCORE.INTRA.DIHEDRAL.0>
31.9578

>  <SCORE.INTRA.POLAR>
0

>  <SCORE.INTRA.POLAR.0>
0

>  <SCORE.INTRA.REPUL>
0

>  <SCORE.INTRA.REPUL.0>
0

>  <SCORE.INTRA.SOLV>
-1.2438

>  <SCORE.INTRA.SOLV.lig_0>
-48.4032

>  <SCORE.INTRA.VDW>
0.259588

>  <SCORE.INTRA.VDW.0>
-1.65238

>  <SCORE.INTRA.norm>
-1.18622

>  <SCORE.RESTR>
0

>  <SCORE.RESTR.CAVITY>
0

>  <SCORE.RESTR.norm>
0

>  <SCORE.SYSTEM>
0

>  <SCORE.SYSTEM.CONST>
0

>  <SCORE.SYSTEM.DIHEDRAL>
0

>  <SCORE.SYSTEM.SOLV>
0

>  <SCORE.SYSTEM.norm>
0

>  <SCORE.heavy>
13

>  <SCORE.norm>
-0.800069

>  <RMSD>
7.218

$$$$
ligand
 OpenBabel11021811473D
libRbt.so/2013.1/901 2013/11/27
 13 12  0  0  0  0  0  0  0  0999 V2000
   36.0467   30.9026   45.6824 O   0  0  0  0  0  0  0  0  0  0  0  0
   36.3068   31.4624   48.4506 O   0  0  0  0  0  0  0  0  0  0  0  0
   33.3575   31.9336   41.5116 P   0  0  1  0  0  0  0  0  0  0  0  0
   32.8368   33.1887   42.1555 O   0  5  0  0  0  0  0  0  0  0  0  0
   33.1946   31.4839   40.1463 O   0  0  0  0  0  0  0  0  0  0  0  0
   34.7141   31.6317   42.3313 O   0  0  0  0  0  0  0  0  0  0  0  0
   35.0593   31.9462   51.9011 O   0  0  0  0  0  0  0  0  0  0  0  0
   34.6955   31.2679   43.7287 C   0  0  0  0  0  0  0  0  0  0  0  0
   37.2581   30.5971   47.8008 C   0  0  0  0  0  0  0  0  0  0  0  0
   35.1045   32.1170   50.4734 C   0  0  0  0  0  0  0  0  0  0  0  0
   36.1256   31.1743   44.2809 C   0  0  0  0  0  0  0  0  0  0  0  0
   37.3503   30.9363   46.2947 C   0  0  0  0  0  0  0  0  0  0  0  0
   36.2512   31.2690   49.8749 C   0  0  0  0  0  0  0  0  0  0  0  0
  1 12  1  0  0  0  0
  1 11  1  0  0  0  0
  2 13  1  0  0  0  0
  2  9  1  0  0  0  0
  3  4  1  6  0  0  0
  3  5  2  0  0  0  0
  3  6  1  0  0  0  0
  6  8  1  0  0  0  0
  7 10  1  0  0  0  0
  8 11  1  0  0  0  0
  9 12  1  0  0  0  0
 10 13  1  0  0  0  0
M  CHG  1   4  -1
M  END
>  <CHROM.1>
-178.20419537,-173.79386310,66.48195088,-174.48186526,176.10600198,-175.37375000
-54.05362428,-178.97354696,-174.12336275,35.07025422,31.57719092,45.36615990
-1.26108798,0.46818850,-1.66664497

>  <Name>
ligand

>  <RI>
0

>  <Rbt.Current_Directory>
/home/itssahil/PROJECTS/Mol_Feturizer/New_Systems/rnas/3GS8

>  <Rbt.Executable>
rbdock ($Id: //depot/dev/client3/rdock/2013.1/src/exe/rbdock.cxx#4 $)

>  <Rbt.Library>
libRbt.so (2013.1, Build901 2013/11/27)

>  <Rbt.Parameter_File>
/export/apps/rDock/src/rDock_2013.1_src/data/scripts/dock_solv.prm

>  <Rbt.Receptor>
prm/pocket_docking_6.prm

>  <SCORE>
-14.4029

>  <SCORE.INTER>
1.30565

>  <SCORE.INTER.CONST>
1

>  <SCORE.INTER.POLAR>
0

>  <SCORE.INTER.ROT>
9

>  <SCORE.INTER.SOLV>
12.9404

>  <SCORE.INTER.VDW>
-13.043

>  <SCORE.INTER.norm>
0.100434

>  <SCORE.INTRA>
-15.7086

>  <SCORE.INTRA.DIHEDRAL>
-30.5219

>  <SCORE.INTRA.DIHEDRAL.0>
31.9578

>  <SCORE.INTRA.POLAR>
0

>  <SCORE.INTRA.POLAR.0>
0

>  <SCORE.INTRA.REPUL>
0

>  <SCORE.INTRA.REPUL.0>
0

>  <SCORE.INTRA.SOLV>
-1.63024

>  <SCORE.INTRA.SOLV.lig_0>
-48.4032

>  <SCORE.INTRA.VDW>
0.367484

>  <SCORE.INTRA.VDW.0>
-1.65238

>  <SCORE.INTRA.norm>
-1.20835

>  <SCORE.RESTR>
0

>  <SCORE.RESTR.CAVITY>
0

>  <SCORE.RESTR.norm>
0

>  <SCORE.SYSTEM>
0

>  <SCORE.SYSTEM.CONST>
0

>  <SCORE.SYSTEM.DIHEDRAL>
0

>  <SCORE.SYSTEM.SOLV>
0

>  <SCORE.SYSTEM.norm>
0

>  <SCORE.heavy>
13

>  <SCORE.norm>
-1.10792

>  <RMSD>
7.219

$$$$
ligand
 OpenBabel11021811473D
libRbt.so/2013.1/901 2013/11/27
 13 12  0  0  0  0  0  0  0  0999 V2000
   34.9257   31.7906   44.5962 O   0  0  0  0  0  0  0  0  0  0  0  0
   36.3586   31.0641   46.9735 O   0  0  0  0  0  0  0  0  0  0  0  0
   31.0430   33.6313   45.2809 P   0  0  1  0  0  0  0  0  0  0  0  0
   30.4267   33.0623   46.5288 O   0  5  0  0  0  0  0  0  0  0  0  0
   31.1461   35.0158   44.8743 O   0  0  0  0  0  0  0  0  0  0  0  0
   32.2049   32.5701   44.9241 O   0  0  0  0  0  0  0  0  0  0  0  0
   37.3349   31.3466   50.5319 O   0  0  0  0  0  0  0  0  0  0  0  0
   32.8612   32.5621   43.6377 C   0  0  0  0  0  0  0  0  0  0  0  0
   37.0274   31.1486   45.7002 C   0  0  0  0  0  0  0  0  0  0  0  0
   36.4435   31.2279   49.4090 C   0  0  0  0  0  0  0  0  0  0  0  0
   33.9522   31.4820   43.5955 C   0  0  0  0  0  0  0  0  0  0  0  0
   36.0311   30.8678   44.5512 C   0  0  0  0  0  0  0  0  0  0  0  0
   37.2512   31.2248   48.0900 C   0  0  0  0  0  0  0  0  0  0  0  0
  1 12  1  0  0  0  0
  1 11  1  0  0  0  0
  2 13  1  0  0  0  0
  2  9  1  0  0  0  0
  3  4  1  1  0  0  0
  3  5  2  0  0  0  0
  3  6  1  0  0  0  0
  6  8  1  0  0  0  0
  7 10  1  0  0  0  0
  8 11  1  0  0  0  0
  9 12  1  0  0  0  0
 10 13  1  0  0  0  0
M  CHG  1   4  -1
M  END
>  <CHROM.1>
-175.97184814,175.76623701,166.02839019,178.07281291,-61.45447890,175.97574050
57.64491760,178.21797588,-175.95852964,34.08028598,32.22359554,46.01104216
-0.44579281,0.45512527,-1.69453733

>  <Name>
ligand

>  <RI>
0

>  <Rbt.Current_Directory>
/home/itssahil/PROJECTS/Mol_Feturizer/New_Systems/rnas/3GS8

>  <Rbt.Executable>
rbdock ($Id: //depot/dev/client3/rdock/2013.1/src/exe/rbdock.cxx#4 $)

>  <Rbt.Library>
libRbt.so (2013.1, Build901 2013/11/27)

>  <Rbt.Parameter_File>
/export/apps/rDock/src/rDock_2013.1_src/data/scripts/dock_solv.prm

>  <Rbt.Receptor>
prm/pocket_docking_6.prm

>  <SCORE>
-15.4321

>  <SCORE.INTER>
0.884463

>  <SCORE.INTER.CONST>
1

>  <SCORE.INTER.POLAR>
0

>  <SCORE.INTER.ROT>
9

>  <SCORE.INTER.SOLV>
12.578

>  <SCORE.INTER.VDW>
-13.203

>  <SCORE.INTER.norm>
0.0680356

>  <SCORE.INTRA>
-16.3166

>  <SCORE.INTRA.DIHEDRAL>
-31.2848

>  <SCORE.INTRA.DIHEDRAL.0>
31.9578

>  <SCORE.INTRA.POLAR>
0

>  <SCORE.INTRA.POLAR.0>
0

>  <SCORE.INTRA.REPUL>
0

>  <SCORE.INTRA.REPUL.0>
0

>  <SCORE.INTRA.SOLV>
-1.67145

>  <SCORE.INTRA.SOLV.lig_0>
-48.4032

>  <SCORE.INTRA.VDW>
0.16154

>  <SCORE.INTRA.VDW.0>
-1.65238

>  <SCORE.INTRA.norm>
-1.25512

>  <SCORE.RESTR>
0

>  <SCORE.RESTR.CAVITY>
0

>  <SCORE.RESTR.norm>
0

>  <SCORE.SYSTEM>
0

>  <SCORE.SYSTEM.CONST>
0

>  <SCORE.SYSTEM.DIHEDRAL>
0

>  <SCORE.SYSTEM.SOLV>
0

>  <SCORE.SYSTEM.norm>
0

>  <SCORE.heavy>
13

>  <SCORE.norm>
-1.18709

>  <RMSD>
7.223

$$$$
ligand
 OpenBabel11021811473D
libRbt.so/2013.1/901 2013/11/27
 13 12  0  0  0  0  0  0  0  0999 V2000
   34.9621   31.8711   44.0914 O   0  0  0  0  0  0  0  0  0  0  0  0
   37.2176   31.9137   45.8112 O   0  0  0  0  0  0  0  0  0  0  0  0
   31.5352   34.0900   45.7151 P   0  0  1  0  0  0  0  0  0  0  0  0
   30.1754   33.4579   45.6033 O   0  5  0  0  0  0  0  0  0  0  0  0
   31.9857   35.1066   46.6406 O   0  0  0  0  0  0  0  0  0  0  0  0
   32.5291   32.9230   45.2118 O   0  0  0  0  0  0  0  0  0  0  0  0
   36.4262   30.8765   49.2741 O   0  0  0  0  0  0  0  0  0  0  0  0
   32.6934   32.6131   43.8109 C   0  0  0  0  0  0  0  0  0  0  0  0
   37.3053   31.2649   44.5277 C   0  0  0  0  0  0  0  0  0  0  0  0
   36.7459   31.7835   48.2042 C   0  0  0  0  0  0  0  0  0  0  0  0
   33.6774   31.4481   43.6279 C   0  0  0  0  0  0  0  0  0  0  0  0
   35.9075   30.7842   44.0730 C   0  0  0  0  0  0  0  0  0  0  0  0
   36.9520   30.9977   46.8880 C   0  0  0  0  0  0  0  0  0  0  0  0
  1 12  1  0  0  0  0
  1 11  1  0  0  0  0
  2 13  1  0  0  0  0
  2  9  1  0  0  0  0
  3  4  1  1  0  0  0
  3  5  2  0  0  0  0
  3  6  1  0  0  0  0
  6  8  1  0  0  0  0
  7 10  1  0  0  0  0
  8 11  1  0  0  0  0
  9 12  1  0  0  0  0
 10 13  1  0  0  0  0
M  CHG  1   4  -1
M  END
>  <CHROM.1>
177.96400257,-174.88660330,77.37119297,-179.00778162,-64.31433237,71.03599986
54.10614455,177.67536842,174.28738386,34.20167445,32.41449922,45.68270456
-0.08344812,0.47101230,-1.78061190

>  <Name>
ligand

>  <RI>
0

>  <Rbt.Current_Directory>
/home/itssahil/PROJECTS/Mol_Feturizer/New_Systems/rnas/3GS8

>  <Rbt.Executable>
rbdock ($Id: //depot/dev/client3/rdock/2013.1/src/exe/rbdock.cxx#4 $)

>  <Rbt.Library>
libRbt.so (2013.1, Build901 2013/11/27)

>  <Rbt.Parameter_File>
/export/apps/rDock/src/rDock_2013.1_src/data/scripts/dock_solv.prm

>  <Rbt.Receptor>
prm/pocket_docking_5.prm

>  <SCORE>
-11.7514

>  <SCORE.INTER>
3.01253

>  <SCORE.INTER.CONST>
1

>  <SCORE.INTER.POLAR>
0

>  <SCORE.INTER.ROT>
9

>  <SCORE.INTER.SOLV>
9.8015

>  <SCORE.INTER.VDW>
-10.8588

>  <SCORE.INTER.norm>
0.231733

>  <SCORE.INTRA>
-14.764

>  <SCORE.INTRA.DIHEDRAL>
-29.9339

>  <SCORE.INTRA.DIHEDRAL.0>
31.9578

>  <SCORE.INTRA.POLAR>
0

>  <SCORE.INTRA.POLAR.0>
0

>  <SCORE.INTRA.REPUL>
0

>  <SCORE.INTRA.REPUL.0>
0

>  <SCORE.INTRA.SOLV>
-1.51555

>  <SCORE.INTRA.SOLV.lig_0>
-48.4032

>  <SCORE.INTRA.VDW>
0.960766

>  <SCORE.INTRA.VDW.0>
-1.65238

>  <SCORE.INTRA.norm>
-1.13569

>  <SCORE.RESTR>
0

>  <SCORE.RESTR.CAVITY>
0

>  <SCORE.RESTR.norm>
0

>  <SCORE.SYSTEM>
0

>  <SCORE.SYSTEM.CONST>
0

>  <SCORE.SYSTEM.DIHEDRAL>
0

>  <SCORE.SYSTEM.SOLV>
0

>  <SCORE.SYSTEM.norm>
0

>  <SCORE.heavy>
13

>  <SCORE.norm>
-0.903956

>  <RMSD>
7.238

$$$$
ligand
 OpenBabel11021811473D
libRbt.so/2013.1/901 2013/11/27
 13 12  0  0  0  0  0  0  0  0999 V2000
   33.3987   32.3947   49.1432 O   0  0  0  0  0  0  0  0  0  0  0  0
   35.9619   30.9935   49.2199 O   0  0  0  0  0  0  0  0  0  0  0  0
   28.9732   31.8412   48.9101 P   0  0  1  0  0  0  0  0  0  0  0  0
   28.5838   31.3920   50.2913 O   0  5  0  0  0  0  0  0  0  0  0  0
   28.1250   32.3390   47.8492 O   0  0  0  0  0  0  0  0  0  0  0  0
   30.4713   32.4051   49.1122 O   0  0  0  0  0  0  0  0  0  0  0  0
   38.1065   29.5836   47.8195 O   0  0  0  0  0  0  0  0  0  0  0  0
   31.3180   32.7391   47.9908 C   0  0  0  0  0  0  0  0  0  0  0  0
   35.5095   31.8537   50.2835 C   0  0  0  0  0  0  0  0  0  0  0  0
   37.3366   30.6468   47.2309 C   0  0  0  0  0  0  0  0  0  0  0  0
   32.6215   33.3913   48.4746 C   0  0  0  0  0  0  0  0  0  0  0  0
   34.5895   32.9627   49.7219 C   0  0  0  0  0  0  0  0  0  0  0  0
   36.8840   31.6411   48.3257 C   0  0  0  0  0  0  0  0  0  0  0  0
  1 12  1  0  0  0  0
  1 11  1  0  0  0  0
  2 13  1  0  0  0  0
  2  9  1  0  0  0  0
  3  4  1  1  0  0  0
  3  5  2  0  0  0  0
  3  6  1  0  0  0  0
  6  8  1  0  0  0  0
  7 10  1  0  0  0  0
  8 11  1  0  0  0  0
  9 12  1  0  0  0  0
 10 13  1  0  0  0  0
M  CHG  1   4  -1
M  END
>  <CHROM.1>
-172.76293426,179.09663404,169.50483907,173.82707558,69.22904583,69.44476570
63.19264238,-65.99715218,-175.21860921,32.83676189,31.83956895,48.81295967
-0.13817487,-0.07347012,0.89266624

>  <Name>
ligand

>  <RI>
0

>  <Rbt.Current_Directory>
/home/itssahil/PROJECTS/Mol_Feturizer/New_Systems/rnas/3GS8

>  <Rbt.Executable>
rbdock ($Id: //depot/dev/client3/rdock/2013.1/src/exe/rbdock.cxx#4 $)

>  <Rbt.Library>
libRbt.so (2013.1, Build901 2013/11/27)

>  <Rbt.Parameter_File>
/export/apps/rDock/src/rDock_2013.1_src/data/scripts/dock_solv.prm

>  <Rbt.Receptor>
prm/pocket_docking_5.prm

>  <SCORE>
-11.9234

>  <SCORE.INTER>
2.87045

>  <SCORE.INTER.CONST>
1

>  <SCORE.INTER.POLAR>
0

>  <SCORE.INTER.ROT>
9

>  <SCORE.INTER.SOLV>
11.1521

>  <SCORE.INTER.VDW>
-11.4037

>  <SCORE.INTER.norm>
0.220804

>  <SCORE.INTRA>
-14.7939

>  <SCORE.INTRA.DIHEDRAL>
-30.1721

>  <SCORE.INTRA.DIHEDRAL.0>
31.9578

>  <SCORE.INTRA.POLAR>
0

>  <SCORE.INTRA.POLAR.0>
0

>  <SCORE.INTRA.REPUL>
0

>  <SCORE.INTRA.REPUL.0>
0

>  <SCORE.INTRA.SOLV>
-1.44411

>  <SCORE.INTRA.SOLV.lig_0>
-48.4032

>  <SCORE.INTRA.VDW>
1.01424

>  <SCORE.INTRA.VDW.0>
-1.65238

>  <SCORE.INTRA.norm>
-1.13799

>  <SCORE.RESTR>
0

>  <SCORE.RESTR.CAVITY>
0

>  <SCORE.RESTR.norm>
0

>  <SCORE.SYSTEM>
0

>  <SCORE.SYSTEM.CONST>
0

>  <SCORE.SYSTEM.DIHEDRAL>
0

>  <SCORE.SYSTEM.SOLV>
0

>  <SCORE.SYSTEM.norm>
0

>  <SCORE.heavy>
13

>  <SCORE.norm>
-0.917185

>  <RMSD>
7.264

$$$$
ligand
 OpenBabel11021811473D
libRbt.so/2013.1/901 2013/11/27
 13 12  0  0  0  0  0  0  0  0999 V2000
   36.5968   31.3245   46.5657 O   0  0  0  0  0  0  0  0  0  0  0  0
   34.7450   30.8251   44.3263 O   0  0  0  0  0  0  0  0  0  0  0  0
   35.0647   31.7738   50.5896 P   0  0  1  0  0  0  0  0  0  0  0  0
   36.0495   31.5246   51.6981 O   0  5  0  0  0  0  0  0  0  0  0  0
   34.1325   32.8697   50.4385 O   0  0  0  0  0  0  0  0  0  0  0  0
   35.7732   31.1006   49.3058 O   0  0  0  0  0  0  0  0  0  0  0  0
   32.7171   32.7741   44.9033 O   0  0  0  0  0  0  0  0  0  0  0  0
   37.1180   31.4461   48.9087 C   0  0  0  0  0  0  0  0  0  0  0  0
   36.0291   31.4612   44.1767 C   0  0  0  0  0  0  0  0  0  0  0  0
   33.3424   32.6922   43.6104 C   0  0  0  0  0  0  0  0  0  0  0  0
   37.4689   30.7904   47.5649 C   0  0  0  0  0  0  0  0  0  0  0  0
   37.0164   30.9341   45.2439 C   0  0  0  0  0  0  0  0  0  0  0  0
   33.7924   31.2390   43.3311 C   0  0  0  0  0  0  0  0  0  0  0  0
  1 12  1  0  0  0  0
  1 11  1  0  0  0  0
  2 13  1  0  0  0  0
  2  9  1  0  0  0  0
  3  4  1  1  0  0  0
  3  5  2  0  0  0  0
  3  6  1  0  0  0  0
  6  8  1  0  0  0  0
  7 10  1  0  0  0  0
  8 11  1  0  0  0  0
  9 12  1  0  0  0  0
 10 13  1  0  0  0  0
M  CHG  1   4  -1
M  END
>  <CHROM.1>
177.33318699,-71.88924991,-53.74159585,-172.96415145,63.53681880,-177.95779032
-65.88680618,-60.66768936,169.92672225,35.32726657,31.61863438,47.31467950
-1.76413843,-0.40309523,1.48743309

>  <Name>
ligand

>  <RI>
0

>  <Rbt.Current_Directory>
/home/itssahil/PROJECTS/Mol_Feturizer/New_Systems/rnas/3GS8

>  <Rbt.Executable>
rbdock ($Id: //depot/dev/client3/rdock/2013.1/src/exe/rbdock.cxx#4 $)

>  <Rbt.Library>
libRbt.so (2013.1, Build901 2013/11/27)

>  <Rbt.Parameter_File>
/export/apps/rDock/src/rDock_2013.1_src/data/scripts/dock_solv.prm

>  <Rbt.Receptor>
prm/pocket_docking_6.prm

>  <SCORE>
-13.5774

>  <SCORE.INTER>
0.649502

>  <SCORE.INTER.CONST>
1

>  <SCORE.INTER.POLAR>
0

>  <SCORE.INTER.ROT>
9

>  <SCORE.INTER.SOLV>
16.0207

>  <SCORE.INTER.VDW>
-14.5072

>  <SCORE.INTER.norm>
0.0499617

>  <SCORE.INTRA>
-14.2269

>  <SCORE.INTRA.DIHEDRAL>
-29.7085

>  <SCORE.INTRA.DIHEDRAL.0>
31.9578

>  <SCORE.INTRA.POLAR>
0

>  <SCORE.INTRA.POLAR.0>
0

>  <SCORE.INTRA.REPUL>
0

>  <SCORE.INTRA.REPUL.0>
0

>  <SCORE.INTRA.SOLV>
-0.968584

>  <SCORE.INTRA.SOLV.lig_0>
-48.4032

>  <SCORE.INTRA.VDW>
1.1116

>  <SCORE.INTRA.VDW.0>
-1.65238

>  <SCORE.INTRA.norm>
-1.09438

>  <SCORE.RESTR>
0

>  <SCORE.RESTR.CAVITY>
0

>  <SCORE.RESTR.norm>
0

>  <SCORE.SYSTEM>
0

>  <SCORE.SYSTEM.CONST>
0

>  <SCORE.SYSTEM.DIHEDRAL>
0

>  <SCORE.SYSTEM.SOLV>
0

>  <SCORE.SYSTEM.norm>
0

>  <SCORE.heavy>
13

>  <SCORE.norm>
-1.04442

>  <RMSD>
7.268

$$$$
ligand
 OpenBabel11021811473D
libRbt.so/2013.1/901 2013/11/27
 13 12  0  0  0  0  0  0  0  0999 V2000
   35.6725   31.3326   45.4774 O   0  0  0  0  0  0  0  0  0  0  0  0
   34.2474   32.3571   43.1696 O   0  0  0  0  0  0  0  0  0  0  0  0
   37.5348   31.6991   50.1808 P   0  0  1  0  0  0  0  0  0  0  0  0
   38.9762   31.9747   50.5084 O   0  5  0  0  0  0  0  0  0  0  0  0
   36.3476   32.2862   50.7628 O   0  0  0  0  0  0  0  0  0  0  0  0
   37.5811   31.2874   48.6214 O   0  0  0  0  0  0  0  0  0  0  0  0
   32.5769   34.6617   43.5526 O   0  0  0  0  0  0  0  0  0  0  0  0
   36.5027   31.6080   47.7159 C   0  0  0  0  0  0  0  0  0  0  0  0
   34.5836   30.9625   43.3035 C   0  0  0  0  0  0  0  0  0  0  0  0
   32.8009   34.0965   42.2487 C   0  0  0  0  0  0  0  0  0  0  0  0
   36.8194   31.1043   46.3000 C   0  0  0  0  0  0  0  0  0  0  0  0
   35.8655   30.7989   44.1532 C   0  0  0  0  0  0  0  0  0  0  0  0
   33.0728   32.5787   42.3694 C   0  0  0  0  0  0  0  0  0  0  0  0
  1 12  1  0  0  0  0
  1 11  1  0  0  0  0
  2 13  1  0  0  0  0
  2  9  1  0  0  0  0
  3  4  1  6  0  0  0
  3  5  2  0  0  0  0
  3  6  1  0  0  0  0
  6  8  1  0  0  0  0
  7 10  1  0  0  0  0
  8 11  1  0  0  0  0
  9 12  1  0  0  0  0
 10 13  1  0  0  0  0
M  CHG  1   4  -1
M  END
>  <CHROM.1>
176.00660752,-178.70112271,-146.64143749,179.68077956,174.58147054,179.05446664
60.82775954,-60.74046024,-176.02614585,35.75761675,32.04325820,46.41667569
-2.38061657,-0.80961217,1.08322179

>  <Name>
ligand

>  <RI>
0

>  <Rbt.Current_Directory>
/home/itssahil/PROJECTS/Mol_Feturizer/New_Systems/rnas/3GS8

>  <Rbt.Executable>
rbdock ($Id: //depot/dev/client3/rdock/2013.1/src/exe/rbdock.cxx#4 $)

>  <Rbt.Library>
libRbt.so (2013.1, Build901 2013/11/27)

>  <Rbt.Parameter_File>
/export/apps/rDock/src/rDock_2013.1_src/data/scripts/dock_solv.prm

>  <Rbt.Receptor>
prm/pocket_docking_6.prm

>  <SCORE>
-11.8378

>  <SCORE.INTER>
3.84707

>  <SCORE.INTER.CONST>
1

>  <SCORE.INTER.POLAR>
0

>  <SCORE.INTER.ROT>
9

>  <SCORE.INTER.SOLV>
8.36201

>  <SCORE.INTER.VDW>
-9.82262

>  <SCORE.INTER.norm>
0.295929

>  <SCORE.INTRA>
-15.6849

>  <SCORE.INTRA.DIHEDRAL>
-30.4259

>  <SCORE.INTRA.DIHEDRAL.0>
31.9578

>  <SCORE.INTRA.POLAR>
0

>  <SCORE.INTRA.POLAR.0>
0

>  <SCORE.INTRA.REPUL>
0

>  <SCORE.INTRA.REPUL.0>
0

>  <SCORE.INTRA.SOLV>
-1.45102

>  <SCORE.INTRA.SOLV.lig_0>
-48.4032

>  <SCORE.INTRA.VDW>
0.253552

>  <SCORE.INTRA.VDW.0>
-1.65238

>  <SCORE.INTRA.norm>
-1.20653

>  <SCORE.RESTR>
0

>  <SCORE.RESTR.CAVITY>
0

>  <SCORE.RESTR.norm>
0

>  <SCORE.SYSTEM>
0

>  <SCORE.SYSTEM.CONST>
0

>  <SCORE.SYSTEM.DIHEDRAL>
0

>  <SCORE.SYSTEM.SOLV>
0

>  <SCORE.SYSTEM.norm>
0

>  <SCORE.heavy>
13

>  <SCORE.norm>
-0.910603

>  <RMSD>
7.273

$$$$
ligand
 OpenBabel11021811473D
libRbt.so/2013.1/901 2013/11/27
 13 12  0  0  0  0  0  0  0  0999 V2000
   34.8522   32.3544   50.2774 O   0  0  0  0  0  0  0  0  0  0  0  0
   36.6797   32.8447   48.1624 O   0  0  0  0  0  0  0  0  0  0  0  0
   30.7706   33.5341   49.2506 P   0  0  1  0  0  0  0  0  0  0  0  0
   31.1204   34.9443   49.6377 O   0  5  0  0  0  0  0  0  0  0  0  0
   29.8717   33.0785   48.2127 O   0  0  0  0  0  0  0  0  0  0  0  0
   32.1064   32.7067   49.6173 O   0  0  0  0  0  0  0  0  0  0  0  0
   37.6991   30.5307   45.4641 O   0  0  0  0  0  0  0  0  0  0  0  0
   32.5630   32.5609   50.9796 C   0  0  0  0  0  0  0  0  0  0  0  0
   37.1467   32.2662   49.3966 C   0  0  0  0  0  0  0  0  0  0  0  0
   37.8728   31.3904   46.6044 C   0  0  0  0  0  0  0  0  0  0  0  0
   33.8320   31.6975   51.0337 C   0  0  0  0  0  0  0  0  0  0  0  0
   35.9999   31.5021   50.0985 C   0  0  0  0  0  0  0  0  0  0  0  0
   36.4960   31.8720   47.1187 C   0  0  0  0  0  0  0  0  0  0  0  0
  1 12  1  0  0  0  0
  1 11  1  0  0  0  0
  2 13  1  0  0  0  0
  2  9  1  0  0  0  0
  3  4  1  6  0  0  0
  3  5  2  0  0  0  0
  3  6  1  0  0  0  0
  6  8  1  0  0  0  0
  7 10  1  0  0  0  0
  8 11  1  0  0  0  0
  9 12  1  0  0  0  0
 10 13  1  0  0  0  0
M  CHG  1   4  -1
M  END
>  <CHROM.1>
-174.66451541,-72.45854998,65.48298647,178.50669864,61.11985716,-74.18286485
-54.24173816,-173.69073541,-170.48660726,34.05805690,32.51575867,48.91940016
-0.32424939,-0.29198696,1.53494290

>  <Name>
ligand

>  <RI>
0

>  <Rbt.Current_Directory>
/home/itssahil/PROJECTS/Mol_Feturizer/New_Systems/rnas/3GS8

>  <Rbt.Executable>
rbdock ($Id: //depot/dev/client3/rdock/2013.1/src/exe/rbdock.cxx#4 $)

>  <Rbt.Library>
libRbt.so (2013.1, Build901 2013/11/27)

>  <Rbt.Parameter_File>
/export/apps/rDock/src/rDock_2013.1_src/data/scripts/dock_solv.prm

>  <Rbt.Receptor>
prm/pocket_docking_5.prm

>  <SCORE>
-8.96097

>  <SCORE.INTER>
4.34419

>  <SCORE.INTER.CONST>
1

>  <SCORE.INTER.POLAR>
0

>  <SCORE.INTER.ROT>
9

>  <SCORE.INTER.SOLV>
4.05763

>  <SCORE.INTER.VDW>
-8.05642

>  <SCORE.INTER.norm>
0.334168

>  <SCORE.INTRA>
-13.3052

>  <SCORE.INTRA.DIHEDRAL>
-28.815

>  <SCORE.INTRA.DIHEDRAL.0>
31.9578

>  <SCORE.INTRA.POLAR>
0

>  <SCORE.INTRA.POLAR.0>
0

>  <SCORE.INTRA.REPUL>
0

>  <SCORE.INTRA.REPUL.0>
0

>  <SCORE.INTRA.SOLV>
-1.40164

>  <SCORE.INTRA.SOLV.lig_0>
-48.4032

>  <SCORE.INTRA.VDW>
1.80316

>  <SCORE.INTRA.VDW.0>
-1.65238

>  <SCORE.INTRA.norm>
-1.02347

>  <SCORE.RESTR>
0

>  <SCORE.RESTR.CAVITY>
0

>  <SCORE.RESTR.norm>
0

>  <SCORE.SYSTEM>
0

>  <SCORE.SYSTEM.CONST>
0

>  <SCORE.SYSTEM.DIHEDRAL>
0

>  <SCORE.SYSTEM.SOLV>
0

>  <SCORE.SYSTEM.norm>
0

>  <SCORE.heavy>
13

>  <SCORE.norm>
-0.689305

>  <RMSD>
7.289

$$$$
ligand
 OpenBabel11021811473D
libRbt.so/2013.1/901 2013/11/27
 13 12  0  0  0  0  0  0  0  0999 V2000
   33.4167   32.4482   49.6311 O   0  0  0  0  0  0  0  0  0  0  0  0
   35.8929   31.1238   49.4069 O   0  0  0  0  0  0  0  0  0  0  0  0
   29.1179   33.2140   47.0531 P   0  0  1  0  0  0  0  0  0  0  0  0
   27.8619   32.4068   47.2313 O   0  5  0  0  0  0  0  0  0  0  0  0
   29.2883   34.4834   46.3805 O   0  0  0  0  0  0  0  0  0  0  0  0
   29.9868   32.8413   48.3605 O   0  0  0  0  0  0  0  0  0  0  0  0
   39.0169   30.4134   47.5541 O   0  0  0  0  0  0  0  0  0  0  0  0
   31.4289   32.9197   48.3653 C   0  0  0  0  0  0  0  0  0  0  0  0
   35.5438   31.7566   50.6534 C   0  0  0  0  0  0  0  0  0  0  0  0
   37.5979   30.4780   47.7815 C   0  0  0  0  0  0  0  0  0  0  0  0
   31.9896   32.4597   49.7190 C   0  0  0  0  0  0  0  0  0  0  0  0
   34.0066   31.8442   50.7984 C   0  0  0  0  0  0  0  0  0  0  0  0
   37.3128   31.0640   49.1842 C   0  0  0  0  0  0  0  0  0  0  0  0
  1 12  1  0  0  0  0
  1 11  1  0  0  0  0
  2 13  1  0  0  0  0
  2  9  1  0  0  0  0
  3  4  1  1  0  0  0
  3  5  2  0  0  0  0
  3  6  1  0  0  0  0
  6  8  1  0  0  0  0
  7 10  1  0  0  0  0
  8 11  1  0  0  0  0
  9 12  1  0  0  0  0
 10 13  1  0  0  0  0
M  CHG  1   4  -1
M  END
>  <CHROM.1>
176.44199199,-175.43985497,153.77879618,-177.90606369,175.13405448,177.45176137
-51.93637999,-179.88822759,-171.68759101,32.89462863,32.21001921,48.46868974
0.17893674,-0.27814465,1.56136847

>  <Name>
ligand

>  <RI>
0

>  <Rbt.Current_Directory>
/home/itssahil/PROJECTS/Mol_Feturizer/New_Systems/rnas/3GS8

>  <Rbt.Executable>
rbdock ($Id: //depot/dev/client3/rdock/2013.1/src/exe/rbdock.cxx#4 $)

>  <Rbt.Library>
libRbt.so (2013.1, Build901 2013/11/27)

>  <Rbt.Parameter_File>
/export/apps/rDock/src/rDock_2013.1_src/data/scripts/dock_solv.prm

>  <Rbt.Receptor>
prm/pocket_docking_7.prm

>  <SCORE>
-15.1915

>  <SCORE.INTER>
0.790581

>  <SCORE.INTER.CONST>
1

>  <SCORE.INTER.POLAR>
0

>  <SCORE.INTER.ROT>
9

>  <SCORE.INTER.SOLV>
7.55108

>  <SCORE.INTER.VDW>
-11.59

>  <SCORE.INTER.norm>
0.0608139

>  <SCORE.INTRA>
-15.9821

>  <SCORE.INTRA.DIHEDRAL>
-30.726

>  <SCORE.INTRA.DIHEDRAL.0>
31.9578

>  <SCORE.INTRA.POLAR>
0

>  <SCORE.INTRA.POLAR.0>
0

>  <SCORE.INTRA.REPUL>
0

>  <SCORE.INTRA.REPUL.0>
0

>  <SCORE.INTRA.SOLV>
-1.83021

>  <SCORE.INTRA.SOLV.lig_0>
-48.4032

>  <SCORE.INTRA.VDW>
0.295983

>  <SCORE.INTRA.VDW.0>
-1.65238

>  <SCORE.INTRA.norm>
-1.22939

>  <SCORE.RESTR>
0

>  <SCORE.RESTR.CAVITY>
0

>  <SCORE.RESTR.norm>
0

>  <SCORE.SYSTEM>
0

>  <SCORE.SYSTEM.CONST>
0

>  <SCORE.SYSTEM.DIHEDRAL>
0

>  <SCORE.SYSTEM.SOLV>
0

>  <SCORE.SYSTEM.norm>
0

>  <SCORE.heavy>
13

>  <SCORE.norm>
-1.16858

>  <RMSD>
7.312

$$$$
ligand
 OpenBabel11021811473D
libRbt.so/2013.1/901 2013/11/27
 13 12  0  0  0  0  0  0  0  0999 V2000
   33.6225   32.6063   44.7731 O   0  0  0  0  0  0  0  0  0  0  0  0
   36.0113   31.1385   45.3736 O   0  0  0  0  0  0  0  0  0  0  0  0
   29.1323   33.2865   47.0012 P   0  0  1  0  0  0  0  0  0  0  0  0
   27.7573   33.1936   46.3997 O   0  5  0  0  0  0  0  0  0  0  0  0
   29.5361   33.0606   48.3718 O   0  0  0  0  0  0  0  0  0  0  0  0
   30.1018   32.8949   45.7723 O   0  0  0  0  0  0  0  0  0  0  0  0
   36.7469   31.2314   48.1434 O   0  0  0  0  0  0  0  0  0  0  0  0
   31.5239   33.1427   45.8144 C   0  0  0  0  0  0  0  0  0  0  0  0
   35.8264   31.7582   44.0860 C   0  0  0  0  0  0  0  0  0  0  0  0
   37.4956   30.4571   47.1898 C   0  0  0  0  0  0  0  0  0  0  0  0
   32.2085   32.5696   44.5647 C   0  0  0  0  0  0  0  0  0  0  0  0
   34.3198   31.8648   43.7535 C   0  0  0  0  0  0  0  0  0  0  0  0
   37.3887   31.0987   45.7865 C   0  0  0  0  0  0  0  0  0  0  0  0
  1 12  1  0  0  0  0
  1 11  1  0  0  0  0
  2 13  1  0  0  0  0
  2  9  1  0  0  0  0
  3  4  1  6  0  0  0
  3  5  2  0  0  0  0
  3  6  1  0  0  0  0
  6  8  1  0  0  0  0
  7 10  1  0  0  0  0
  8 11  1  0  0  0  0
  9 12  1  0  0  0  0
 10 13  1  0  0  0  0
M  CHG  1   4  -1
M  END
>  <CHROM.1>
-172.76083370,178.41684628,165.82730293,175.44646444,-168.90630444,-175.69276844
57.43270840,-60.26162881,169.44836133,32.82753769,32.27612047,46.04240558
0.07974125,0.26941954,-1.47747596

>  <Name>
ligand

>  <RI>
0

>  <Rbt.Current_Directory>
/home/itssahil/PROJECTS/Mol_Feturizer/New_Systems/rnas/3GS8

>  <Rbt.Executable>
rbdock ($Id: //depot/dev/client3/rdock/2013.1/src/exe/rbdock.cxx#4 $)

>  <Rbt.Library>
libRbt.so (2013.1, Build901 2013/11/27)

>  <Rbt.Parameter_File>
/export/apps/rDock/src/rDock_2013.1_src/data/scripts/dock_solv.prm

>  <Rbt.Receptor>
prm/pocket_docking_4.prm

>  <SCORE>
-14.3171

>  <SCORE.INTER>
1.34195

>  <SCORE.INTER.CONST>
1

>  <SCORE.INTER.POLAR>
0

>  <SCORE.INTER.ROT>
9

>  <SCORE.INTER.SOLV>
8.93008

>  <SCORE.INTER.VDW>
-11.6821

>  <SCORE.INTER.norm>
0.103227

>  <SCORE.INTRA>
-15.659

>  <SCORE.INTRA.DIHEDRAL>
-30.1983

>  <SCORE.INTRA.DIHEDRAL.0>
31.9578

>  <SCORE.INTRA.POLAR>
0

>  <SCORE.INTRA.POLAR.0>
0

>  <SCORE.INTRA.REPUL>
0

>  <SCORE.INTRA.REPUL.0>
0

>  <SCORE.INTRA.SOLV>
-1.53392

>  <SCORE.INTRA.SOLV.lig_0>
-48.4032

>  <SCORE.INTRA.VDW>
0.207089

>  <SCORE.INTRA.VDW.0>
-1.65238

>  <SCORE.INTRA.norm>
-1.20454

>  <SCORE.RESTR>
0

>  <SCORE.RESTR.CAVITY>
0

>  <SCORE.RESTR.norm>
0

>  <SCORE.SYSTEM>
0

>  <SCORE.SYSTEM.CONST>
0

>  <SCORE.SYSTEM.DIHEDRAL>
0

>  <SCORE.SYSTEM.SOLV>
0

>  <SCORE.SYSTEM.norm>
0

>  <SCORE.heavy>
13

>  <SCORE.norm>
-1.10131

>  <RMSD>
7.317

$$$$
ligand
 OpenBabel11021811473D
libRbt.so/2013.1/901 2013/11/27
 13 12  0  0  0  0  0  0  0  0999 V2000
   33.0116   32.3812   44.6861 O   0  0  0  0  0  0  0  0  0  0  0  0
   35.7329   31.8178   45.2395 O   0  0  0  0  0  0  0  0  0  0  0  0
   28.4026   33.3935   46.5421 P   0  0  1  0  0  0  0  0  0  0  0  0
   27.2812   34.1292   45.8622 O   0  5  0  0  0  0  0  0  0  0  0  0
   28.3293   32.2439   47.4172 O   0  0  0  0  0  0  0  0  0  0  0  0
   29.6434   33.5915   45.5300 O   0  0  0  0  0  0  0  0  0  0  0  0
   37.5177   32.2417   47.4383 O   0  0  0  0  0  0  0  0  0  0  0  0
   30.8767   32.8559   45.6827 C   0  0  0  0  0  0  0  0  0  0  0  0
   35.2660   31.8242   43.8765 C   0  0  0  0  0  0  0  0  0  0  0  0
   37.2406   30.9212   46.9393 C   0  0  0  0  0  0  0  0  0  0  0  0
   31.8760   33.2438   44.5828 C   0  0  0  0  0  0  0  0  0  0  0  0
   34.0319   32.7456   43.7365 C   0  0  0  0  0  0  0  0  0  0  0  0
   36.8909   30.9869   45.4341 C   0  0  0  0  0  0  0  0  0  0  0  0
  1 12  1  0  0  0  0
  1 11  1  0  0  0  0
  2 13  1  0  0  0  0
  2  9  1  0  0  0  0
  3  4  1  6  0  0  0
  3  5  2  0  0  0  0
  3  6  1  0  0  0  0
  6  8  1  0  0  0  0
  7 10  1  0  0  0  0
  8 11  1  0  0  0  0
  9 12  1  0  0  0  0
 10 13  1  0  0  0  0
M  CHG  1   4  -1
M  END
>  <CHROM.1>
178.86553932,-174.31920238,-169.45439316,179.97770157,-173.38258471,-179.42157652
-53.77653877,-59.86516057,-176.24976554,32.37778088,32.57663176,45.71077423
0.02134750,0.21849201,-1.39387490

>  <Name>
ligand

>  <RI>
0

>  <Rbt.Current_Directory>
/home/itssahil/PROJECTS/Mol_Feturizer/New_Systems/rnas/3GS8

>  <Rbt.Executable>
rbdock ($Id: //depot/dev/client3/rdock/2013.1/src/exe/rbdock.cxx#4 $)

>  <Rbt.Library>
libRbt.so (2013.1, Build901 2013/11/27)

>  <Rbt.Parameter_File>
/export/apps/rDock/src/rDock_2013.1_src/data/scripts/dock_solv.prm

>  <Rbt.Receptor>
prm/pocket_docking_7.prm

>  <SCORE>
-13.0742

>  <SCORE.INTER>
2.75135

>  <SCORE.INTER.CONST>
1

>  <SCORE.INTER.POLAR>
0

>  <SCORE.INTER.ROT>
9

>  <SCORE.INTER.SOLV>
9.81299

>  <SCORE.INTER.VDW>
-11.0368

>  <SCORE.INTER.norm>
0.211642

>  <SCORE.INTRA>
-15.8255

>  <SCORE.INTRA.DIHEDRAL>
-30.6924

>  <SCORE.INTRA.DIHEDRAL.0>
31.9578

>  <SCORE.INTRA.POLAR>
0

>  <SCORE.INTRA.POLAR.0>
0

>  <SCORE.INTRA.REPUL>
0

>  <SCORE.INTRA.REPUL.0>
0

>  <SCORE.INTRA.SOLV>
-1.48005

>  <SCORE.INTRA.SOLV.lig_0>
-48.4032

>  <SCORE.INTRA.VDW>
0.260703

>  <SCORE.INTRA.VDW.0>
-1.65238

>  <SCORE.INTRA.norm>
-1.21735

>  <SCORE.RESTR>
0

>  <SCORE.RESTR.CAVITY>
0

>  <SCORE.RESTR.norm>
0

>  <SCORE.SYSTEM>
0

>  <SCORE.SYSTEM.CONST>
0

>  <SCORE.SYSTEM.DIHEDRAL>
0

>  <SCORE.SYSTEM.SOLV>
0

>  <SCORE.SYSTEM.norm>
0

>  <SCORE.heavy>
13

>  <SCORE.norm>
-1.00571

>  <RMSD>
7.321

$$$$
ligand
 OpenBabel11021811473D
libRbt.so/2013.1/901 2013/11/27
 13 12  0  0  0  0  0  0  0  0999 V2000
   33.4946   32.5702   44.5635 O   0  0  0  0  0  0  0  0  0  0  0  0
   35.8360   31.1146   45.2693 O   0  0  0  0  0  0  0  0  0  0  0  0
   29.2475   34.6526   46.3976 P   0  0  1  0  0  0  0  0  0  0  0  0
   29.2088   33.8671   47.6793 O   0  5  0  0  0  0  0  0  0  0  0  0
   29.2212   36.0876   46.2162 O   0  0  0  0  0  0  0  0  0  0  0  0
   30.0964   33.7036   45.4066 O   0  0  0  0  0  0  0  0  0  0  0  0
   36.5617   31.9225   47.8736 O   0  0  0  0  0  0  0  0  0  0  0  0
   31.5371   33.6286   45.4714 C   0  0  0  0  0  0  0  0  0  0  0  0
   35.5806   31.4536   43.8925 C   0  0  0  0  0  0  0  0  0  0  0  0
   37.3923   30.9986   47.1483 C   0  0  0  0  0  0  0  0  0  0  0  0
   32.0736   32.6427   44.4230 C   0  0  0  0  0  0  0  0  0  0  0  0
   34.0610   31.6096   43.6514 C   0  0  0  0  0  0  0  0  0  0  0  0
   37.2254   31.2192   45.6265 C   0  0  0  0  0  0  0  0  0  0  0  0
  1 12  1  0  0  0  0
  1 11  1  0  0  0  0
  2 13  1  0  0  0  0
  2  9  1  0  0  0  0
  3  4  1  1  0  0  0
  3  5  2  0  0  0  0
  3  6  1  0  0  0  0
  6  8  1  0  0  0  0
  7 10  1  0  0  0  0
  8 11  1  0  0  0  0
  9 12  1  0  0  0  0
 10 13  1  0  0  0  0
M  CHG  1   4  -1
M  END
>  <CHROM.1>
-175.28882642,173.55887674,-78.76845867,179.55161223,-177.89674307,-168.17054970
55.11814139,-55.45246459,177.13917311,32.83382881,32.90998527,45.75031057
0.16043017,0.42057197,-1.78669209

>  <Name>
ligand

>  <RI>
0

>  <Rbt.Current_Directory>
/home/itssahil/PROJECTS/Mol_Feturizer/New_Systems/rnas/3GS8

>  <Rbt.Executable>
rbdock ($Id: //depot/dev/client3/rdock/2013.1/src/exe/rbdock.cxx#4 $)

>  <Rbt.Library>
libRbt.so (2013.1, Build901 2013/11/27)

>  <Rbt.Parameter_File>
/export/apps/rDock/src/rDock_2013.1_src/data/scripts/dock_solv.prm

>  <Rbt.Receptor>
prm/pocket_docking_3.prm

>  <SCORE>
-12.339

>  <SCORE.INTER>
3.32732

>  <SCORE.INTER.CONST>
1

>  <SCORE.INTER.POLAR>
0

>  <SCORE.INTER.ROT>
9

>  <SCORE.INTER.SOLV>
7.42582

>  <SCORE.INTER.VDW>
-9.85706

>  <SCORE.INTER.norm>
0.255948

>  <SCORE.INTRA>
-15.6838

>  <SCORE.INTRA.DIHEDRAL>
-30.4669

>  <SCORE.INTRA.DIHEDRAL.0>
31.9578

>  <SCORE.INTRA.POLAR>
0

>  <SCORE.INTRA.POLAR.0>
0

>  <SCORE.INTRA.REPUL>
0

>  <SCORE.INTRA.REPUL.0>
0

>  <SCORE.INTRA.SOLV>
-1.23931

>  <SCORE.INTRA.SOLV.lig_0>
-48.4032

>  <SCORE.INTRA.VDW>
0.16925

>  <SCORE.INTRA.VDW.0>
-1.65238

>  <SCORE.INTRA.norm>
-1.20645

>  <SCORE.RESTR>
0.0175285

>  <SCORE.RESTR.CAVITY>
0.0175285

>  <SCORE.RESTR.norm>
0.00134835

>  <SCORE.SYSTEM>
0

>  <SCORE.SYSTEM.CONST>
0

>  <SCORE.SYSTEM.DIHEDRAL>
0

>  <SCORE.SYSTEM.SOLV>
0

>  <SCORE.SYSTEM.norm>
0

>  <SCORE.heavy>
13

>  <SCORE.norm>
-0.949152

>  <RMSD>
7.326

$$$$
ligand
 OpenBabel11021811473D
libRbt.so/2013.1/901 2013/11/27
 13 12  0  0  0  0  0  0  0  0999 V2000
   38.7334   30.7870   47.8157 O   0  0  0  0  0  0  0  0  0  0  0  0
   36.8294   31.0498   50.0254 O   0  0  0  0  0  0  0  0  0  0  0  0
   35.6017   31.2755   43.8539 P   0  0  1  0  0  0  0  0  0  0  0  0
   35.0611   32.6510   44.1310 O   0  5  0  0  0  0  0  0  0  0  0  0
   36.2535   30.7846   42.6594 O   0  0  0  0  0  0  0  0  0  0  0  0
   36.0330   30.7453   45.3155 O   0  0  0  0  0  0  0  0  0  0  0  0
   34.3495   32.3679   49.4490 O   0  0  0  0  0  0  0  0  0  0  0  0
   37.3079   31.0836   45.9036 C   0  0  0  0  0  0  0  0  0  0  0  0
   38.2577   31.0450   50.2147 C   0  0  0  0  0  0  0  0  0  0  0  0
   34.6121   31.7857   50.7380 C   0  0  0  0  0  0  0  0  0  0  0  0
   37.4431   30.4534   47.2976 C   0  0  0  0  0  0  0  0  0  0  0  0
   38.9418   30.2001   49.1148 C   0  0  0  0  0  0  0  0  0  0  0  0
   36.1310   31.8073   51.0291 C   0  0  0  0  0  0  0  0  0  0  0  0
  1 12  1  0  0  0  0
  1 11  1  0  0  0  0
  2 13  1  0  0  0  0
  2  9  1  0  0  0  0
  3  4  1  1  0  0  0
  3  5  2  0  0  0  0
  3  6  1  0  0  0  0
  6  8  1  0  0  0  0
  7 10  1  0  0  0  0
  8 11  1  0  0  0  0
  9 12  1  0  0  0  0
 10 13  1  0  0  0  0
M  CHG  1   4  -1
M  END
>  <CHROM.1>
-80.58675335,178.86788866,-83.52395436,179.55215063,178.36819340,179.27446494
63.85811825,-60.22368475,-178.67992007,36.48173322,31.24611994,47.15813927
-1.43012610,0.39858991,-1.62924009

>  <Name>
ligand

>  <RI>
0

>  <Rbt.Current_Directory>
/home/itssahil/PROJECTS/Mol_Feturizer/New_Systems/rnas/3GS8

>  <Rbt.Executable>
rbdock ($Id: //depot/dev/client3/rdock/2013.1/src/exe/rbdock.cxx#4 $)

>  <Rbt.Library>
libRbt.so (2013.1, Build901 2013/11/27)

>  <Rbt.Parameter_File>
/export/apps/rDock/src/rDock_2013.1_src/data/scripts/dock_solv.prm

>  <Rbt.Receptor>
prm/pocket_docking_7.prm

>  <SCORE>
-13.6216

>  <SCORE.INTER>
0.839416

>  <SCORE.INTER.CONST>
1

>  <SCORE.INTER.POLAR>
0

>  <SCORE.INTER.ROT>
9

>  <SCORE.INTER.SOLV>
9.83271

>  <SCORE.INTER.VDW>
-12.318

>  <SCORE.INTER.norm>
0.0645704

>  <SCORE.INTRA>
-14.461

>  <SCORE.INTRA.DIHEDRAL>
-29.6606

>  <SCORE.INTRA.DIHEDRAL.0>
31.9578

>  <SCORE.INTRA.POLAR>
0

>  <SCORE.INTRA.POLAR.0>
0

>  <SCORE.INTRA.REPUL>
0

>  <SCORE.INTRA.REPUL.0>
0

>  <SCORE.INTRA.SOLV>
-1.06029

>  <SCORE.INTRA.SOLV.lig_0>
-48.4032

>  <SCORE.INTRA.VDW>
0.899409

>  <SCORE.INTRA.VDW.0>
-1.65238

>  <SCORE.INTRA.norm>
-1.11239

>  <SCORE.RESTR>
0

>  <SCORE.RESTR.CAVITY>
0

>  <SCORE.RESTR.norm>
0

>  <SCORE.SYSTEM>
0

>  <SCORE.SYSTEM.CONST>
0

>  <SCORE.SYSTEM.DIHEDRAL>
0

>  <SCORE.SYSTEM.SOLV>
0

>  <SCORE.SYSTEM.norm>
0

>  <SCORE.heavy>
13

>  <SCORE.norm>
-1.04782

>  <RMSD>
7.327

$$$$
ligand
 OpenBabel11021811473D
libRbt.so/2013.1/901 2013/11/27
 13 12  0  0  0  0  0  0  0  0999 V2000
   33.1525   32.3576   44.6506 O   0  0  0  0  0  0  0  0  0  0  0  0
   35.8753   31.7583   45.3096 O   0  0  0  0  0  0  0  0  0  0  0  0
   28.6332   34.1560   46.0937 P   0  0  1  0  0  0  0  0  0  0  0  0
   27.8512   35.2941   45.4984 O   0  5  0  0  0  0  0  0  0  0  0  0
   28.1452   33.0187   46.8428 O   0  0  0  0  0  0  0  0  0  0  0  0
   29.9008   34.0198   45.1048 O   0  0  0  0  0  0  0  0  0  0  0  0
   36.3913   31.1374   48.0628 O   0  0  0  0  0  0  0  0  0  0  0  0
   31.0242   33.1682   45.4183 C   0  0  0  0  0  0  0  0  0  0  0  0
   35.3319   31.4071   44.0222 C   0  0  0  0  0  0  0  0  0  0  0  0
   37.4593   31.3211   47.1167 C   0  0  0  0  0  0  0  0  0  0  0  0
   32.0921   33.2572   44.3181 C   0  0  0  0  0  0  0  0  0  0  0  0
   34.1830   32.3707   43.6439 C   0  0  0  0  0  0  0  0  0  0  0  0
   36.9836   30.9279   45.6985 C   0  0  0  0  0  0  0  0  0  0  0  0
  1 12  1  0  0  0  0
  1 11  1  0  0  0  0
  2 13  1  0  0  0  0
  2  9  1  0  0  0  0
  3  4  1  6  0  0  0
  3  5  2  0  0  0  0
  3  6  1  0  0  0  0
  6  8  1  0  0  0  0
  7 10  1  0  0  0  0
  8 11  1  0  0  0  0
  9 12  1  0  0  0  0
 10 13  1  0  0  0  0
M  CHG  1   4  -1
M  END
>  <CHROM.1>
179.32630727,-177.09939233,170.59331259,-178.79520127,-177.69138235,-177.84344129
-57.16561079,60.44297076,178.92379830,32.45573200,32.76963156,45.58935807
-0.06082067,0.34227594,-1.43536795

>  <Name>
ligand

>  <RI>
0

>  <Rbt.Current_Directory>
/home/itssahil/PROJECTS/Mol_Feturizer/New_Systems/rnas/3GS8

>  <Rbt.Executable>
rbdock ($Id: //depot/dev/client3/rdock/2013.1/src/exe/rbdock.cxx#4 $)

>  <Rbt.Library>
libRbt.so (2013.1, Build901 2013/11/27)

>  <Rbt.Parameter_File>
/export/apps/rDock/src/rDock_2013.1_src/data/scripts/dock_solv.prm

>  <Rbt.Receptor>
prm/pocket_docking_6.prm

>  <SCORE>
-13.3919

>  <SCORE.INTER>
2.90565

>  <SCORE.INTER.CONST>
1

>  <SCORE.INTER.POLAR>
0

>  <SCORE.INTER.ROT>
9

>  <SCORE.INTER.SOLV>
9.08346

>  <SCORE.INTER.VDW>
-10.6907

>  <SCORE.INTER.norm>
0.223512

>  <SCORE.INTRA>
-16.2975

>  <SCORE.INTRA.DIHEDRAL>
-31.5102

>  <SCORE.INTRA.DIHEDRAL.0>
31.9578

>  <SCORE.INTRA.POLAR>
0

>  <SCORE.INTRA.POLAR.0>
0

>  <SCORE.INTRA.REPUL>
0

>  <SCORE.INTRA.REPUL.0>
0

>  <SCORE.INTRA.SOLV>
-1.53961

>  <SCORE.INTRA.SOLV.lig_0>
-48.4032

>  <SCORE.INTRA.VDW>
0.227381

>  <SCORE.INTRA.VDW.0>
-1.65238

>  <SCORE.INTRA.norm>
-1.25366

>  <SCORE.RESTR>
0

>  <SCORE.RESTR.CAVITY>
0

>  <SCORE.RESTR.norm>
0

>  <SCORE.SYSTEM>
0

>  <SCORE.SYSTEM.CONST>
0

>  <SCORE.SYSTEM.DIHEDRAL>
0

>  <SCORE.SYSTEM.SOLV>
0

>  <SCORE.SYSTEM.norm>
0

>  <SCORE.heavy>
13

>  <SCORE.norm>
-1.03014

>  <RMSD>
7.333

$$$$
ligand
 OpenBabel11021811473D
libRbt.so/2013.1/901 2013/11/27
 13 12  0  0  0  0  0  0  0  0999 V2000
   33.5082   31.1344   43.9253 O   0  0  0  0  0  0  0  0  0  0  0  0
   36.0671   30.6991   45.2457 O   0  0  0  0  0  0  0  0  0  0  0  0
   31.1766   33.4841   46.7407 P   0  0  1  0  0  0  0  0  0  0  0  0
   31.2793   34.9840   46.7145 O   0  5  0  0  0  0  0  0  0  0  0  0
   30.0115   32.6623   46.9855 O   0  0  0  0  0  0  0  0  0  0  0  0
   32.3233   33.0158   45.7068 O   0  0  0  0  0  0  0  0  0  0  0  0
   36.3158   31.3309   48.0705 O   0  0  0  0  0  0  0  0  0  0  0  0
   32.1293   33.0712   44.2768 C   0  0  0  0  0  0  0  0  0  0  0  0
   35.9652   31.0555   43.8534 C   0  0  0  0  0  0  0  0  0  0  0  0
   37.3506   30.6668   47.3236 C   0  0  0  0  0  0  0  0  0  0  0  0
   33.3539   32.5037   43.5439 C   0  0  0  0  0  0  0  0  0  0  0  0
   34.6359   30.5317   43.2615 C   0  0  0  0  0  0  0  0  0  0  0  0
   37.3069   31.1161   45.8443 C   0  0  0  0  0  0  0  0  0  0  0  0
  1 12  1  0  0  0  0
  1 11  1  0  0  0  0
  2 13  1  0  0  0  0
  2  9  1  0  0  0  0
  3  4  1  6  0  0  0
  3  5  2  0  0  0  0
  3  6  1  0  0  0  0
  6  8  1  0  0  0  0
  7 10  1  0  0  0  0
  8 11  1  0  0  0  0
  9 12  1  0  0  0  0
 10 13  1  0  0  0  0
M  CHG  1   4  -1
M  END
>  <CHROM.1>
72.77936403,-178.63154260,-78.29415978,-177.30064365,61.43914683,177.85863184
62.16684419,-64.13993653,179.41170324,33.69309537,32.15316773,45.63317353
0.21415463,0.42941760,-1.80413962

>  <Name>
ligand

>  <RI>
0

>  <Rbt.Current_Directory>
/home/itssahil/PROJECTS/Mol_Feturizer/New_Systems/rnas/3GS8

>  <Rbt.Executable>
rbdock ($Id: //depot/dev/client3/rdock/2013.1/src/exe/rbdock.cxx#4 $)

>  <Rbt.Library>
libRbt.so (2013.1, Build901 2013/11/27)

>  <Rbt.Parameter_File>
/export/apps/rDock/src/rDock_2013.1_src/data/scripts/dock_solv.prm

>  <Rbt.Receptor>
prm/pocket_docking_4.prm

>  <SCORE>
-13.1028

>  <SCORE.INTER>
1.86434

>  <SCORE.INTER.CONST>
1

>  <SCORE.INTER.POLAR>
0

>  <SCORE.INTER.ROT>
9

>  <SCORE.INTER.SOLV>
10.7527

>  <SCORE.INTER.VDW>
-11.9413

>  <SCORE.INTER.norm>
0.14341

>  <SCORE.INTRA>
-14.9671

>  <SCORE.INTRA.DIHEDRAL>
-30.7384

>  <SCORE.INTRA.DIHEDRAL.0>
31.9578

>  <SCORE.INTRA.POLAR>
0

>  <SCORE.INTRA.POLAR.0>
0

>  <SCORE.INTRA.REPUL>
0

>  <SCORE.INTRA.REPUL.0>
0

>  <SCORE.INTRA.SOLV>
-1.11593

>  <SCORE.INTRA.SOLV.lig_0>
-48.4032

>  <SCORE.INTRA.VDW>
0.960048

>  <SCORE.INTRA.VDW.0>
-1.65238

>  <SCORE.INTRA.norm>
-1.15132

>  <SCORE.RESTR>
0

>  <SCORE.RESTR.CAVITY>
0

>  <SCORE.RESTR.norm>
0

>  <SCORE.SYSTEM>
0

>  <SCORE.SYSTEM.CONST>
0

>  <SCORE.SYSTEM.DIHEDRAL>
0

>  <SCORE.SYSTEM.SOLV>
0

>  <SCORE.SYSTEM.norm>
0

>  <SCORE.heavy>
13

>  <SCORE.norm>
-1.00791

>  <RMSD>
7.337

$$$$
ligand
 OpenBabel11021811473D
libRbt.so/2013.1/901 2013/11/27
 13 12  0  0  0  0  0  0  0  0999 V2000
   32.7571   32.4066   44.7772 O   0  0  0  0  0  0  0  0  0  0  0  0
   35.5090   31.8855   45.3029 O   0  0  0  0  0  0  0  0  0  0  0  0
   29.4516   35.3529   45.7271 P   0  0  1  0  0  0  0  0  0  0  0  0
   30.0362   35.6258   47.0854 O   0  5  0  0  0  0  0  0  0  0  0  0
   29.5317   36.1611   44.5300 O   0  0  0  0  0  0  0  0  0  0  0  0
   29.4416   33.7416   45.6447 O   0  0  0  0  0  0  0  0  0  0  0  0
   38.0873   30.1406   47.3021 O   0  0  0  0  0  0  0  0  0  0  0  0
   30.6496   32.9633   45.7894 C   0  0  0  0  0  0  0  0  0  0  0  0
   34.9916   31.7813   43.9623 C   0  0  0  0  0  0  0  0  0  0  0  0
   37.0264   31.0753   47.0370 C   0  0  0  0  0  0  0  0  0  0  0  0
   31.6444   33.2979   44.6682 C   0  0  0  0  0  0  0  0  0  0  0  0
   33.7622   32.7033   43.7886 C   0  0  0  0  0  0  0  0  0  0  0  0
   36.6279   31.0141   45.5438 C   0  0  0  0  0  0  0  0  0  0  0  0
  1 12  1  0  0  0  0
  1 11  1  0  0  0  0
  2 13  1  0  0  0  0
  2  9  1  0  0  0  0
  3  4  1  1  0  0  0
  3  5  2  0  0  0  0
  3  6  1  0  0  0  0
  6  8  1  0  0  0  0
  7 10  1  0  0  0  0
  8 11  1  0  0  0  0
  9 12  1  0  0  0  0
 10 13  1  0  0  0  0
M  CHG  1   4  -1
M  END
>  <CHROM.1>
177.08694362,-174.04970322,-57.90700722,-62.29662620,-174.10112492,177.92255426
-55.54835083,176.23060790,-177.43189263,32.72486028,33.15065804,45.51089923
0.01757824,0.52875451,-1.71197092

>  <Name>
ligand

>  <RI>
0

>  <Rbt.Current_Directory>
/home/itssahil/PROJECTS/Mol_Feturizer/New_Systems/rnas/3GS8

>  <Rbt.Executable>
rbdock ($Id: //depot/dev/client3/rdock/2013.1/src/exe/rbdock.cxx#4 $)

>  <Rbt.Library>
libRbt.so (2013.1, Build901 2013/11/27)

>  <Rbt.Parameter_File>
/export/apps/rDock/src/rDock_2013.1_src/data/scripts/dock_solv.prm

>  <Rbt.Receptor>
prm/pocket_docking_4.prm

>  <SCORE>
-11.5309

>  <SCORE.INTER>
3.30712

>  <SCORE.INTER.CONST>
1

>  <SCORE.INTER.POLAR>
0

>  <SCORE.INTER.ROT>
9

>  <SCORE.INTER.SOLV>
6.68878

>  <SCORE.INTER.VDW>
-9.62485

>  <SCORE.INTER.norm>
0.254394

>  <SCORE.INTRA>
-14.8381

>  <SCORE.INTRA.DIHEDRAL>
-30.8952

>  <SCORE.INTRA.DIHEDRAL.0>
31.9578

>  <SCORE.INTRA.POLAR>
0

>  <SCORE.INTRA.POLAR.0>
0

>  <SCORE.INTRA.REPUL>
0

>  <SCORE.INTRA.REPUL.0>
0

>  <SCORE.INTRA.SOLV>
0.155657

>  <SCORE.INTRA.SOLV.lig_0>
-48.4032

>  <SCORE.INTRA.VDW>
0.531731

>  <SCORE.INTRA.VDW.0>
-1.65238

>  <SCORE.INTRA.norm>
-1.14139

>  <SCORE.RESTR>
0

>  <SCORE.RESTR.CAVITY>
0

>  <SCORE.RESTR.norm>
0

>  <SCORE.SYSTEM>
0

>  <SCORE.SYSTEM.CONST>
0

>  <SCORE.SYSTEM.DIHEDRAL>
0

>  <SCORE.SYSTEM.SOLV>
0

>  <SCORE.SYSTEM.norm>
0

>  <SCORE.heavy>
13

>  <SCORE.norm>
-0.886995

>  <RMSD>
7.342

$$$$
ligand
 OpenBabel11021811473D
libRbt.so/2013.1/901 2013/11/27
 13 12  0  0  0  0  0  0  0  0999 V2000
   33.4633   32.6360   44.8526 O   0  0  0  0  0  0  0  0  0  0  0  0
   35.8450   31.1188   45.3207 O   0  0  0  0  0  0  0  0  0  0  0  0
   29.5040   34.8061   44.6848 P   0  0  1  0  0  0  0  0  0  0  0  0
   28.0387   34.8794   45.0145 O   0  5  0  0  0  0  0  0  0  0  0  0
   30.3573   35.8329   44.1277 O   0  0  0  0  0  0  0  0  0  0  0  0
   30.0724   33.7422   45.7565 O   0  0  0  0  0  0  0  0  0  0  0  0
   36.8031   31.3726   47.9972 O   0  0  0  0  0  0  0  0  0  0  0  0
   31.4874   33.5002   45.9134 C   0  0  0  0  0  0  0  0  0  0  0  0
   35.5615   31.6627   44.0169 C   0  0  0  0  0  0  0  0  0  0  0  0
   37.4673   30.5217   47.0462 C   0  0  0  0  0  0  0  0  0  0  0  0
   32.0506   32.7756   44.6819 C   0  0  0  0  0  0  0  0  0  0  0  0
   34.0351   31.8120   43.8184 C   0  0  0  0  0  0  0  0  0  0  0  0
   37.2524   31.0612   45.6127 C   0  0  0  0  0  0  0  0  0  0  0  0
  1 12  1  0  0  0  0
  1 11  1  0  0  0  0
  2 13  1  0  0  0  0
  2  9  1  0  0  0  0
  3  4  1  1  0  0  0
  3  5  2  0  0  0  0
  3  6  1  0  0  0  0
  6  8  1  0  0  0  0
  7 10  1  0  0  0  0
  8 11  1  0  0  0  0
  9 12  1  0  0  0  0
 10 13  1  0  0  0  0
M  CHG  1   4  -1
M  END
>  <CHROM.1>
-179.73421866,177.71740218,-171.65960157,-69.55644451,176.45429540,-175.00611379
56.91802329,-58.89388757,172.48476145,32.88261309,32.94192162,45.25873307
-0.16366736,0.47133599,-1.55435563

>  <Name>
ligand

>  <RI>
0

>  <Rbt.Current_Directory>
/home/itssahil/PROJECTS/Mol_Feturizer/New_Systems/rnas/3GS8

>  <Rbt.Executable>
rbdock ($Id: //depot/dev/client3/rdock/2013.1/src/exe/rbdock.cxx#4 $)

>  <Rbt.Library>
libRbt.so (2013.1, Build901 2013/11/27)

>  <Rbt.Parameter_File>
/export/apps/rDock/src/rDock_2013.1_src/data/scripts/dock_solv.prm

>  <Rbt.Receptor>
prm/pocket_docking_4.prm

>  <SCORE>
-11.8929

>  <SCORE.INTER>
3.10416

>  <SCORE.INTER.CONST>
1

>  <SCORE.INTER.POLAR>
0

>  <SCORE.INTER.ROT>
9

>  <SCORE.INTER.SOLV>
9.97376

>  <SCORE.INTER.VDW>
-10.8552

>  <SCORE.INTER.norm>
0.238781

>  <SCORE.INTRA>
-14.9971

>  <SCORE.INTRA.DIHEDRAL>
-30.3428

>  <SCORE.INTRA.DIHEDRAL.0>
31.9578

>  <SCORE.INTRA.POLAR>
0

>  <SCORE.INTRA.POLAR.0>
0

>  <SCORE.INTRA.REPUL>
0

>  <SCORE.INTRA.REPUL.0>
0

>  <SCORE.INTRA.SOLV>
-0.192502

>  <SCORE.INTRA.SOLV.lig_0>
-48.4032

>  <SCORE.INTRA.VDW>
0.270531

>  <SCORE.INTRA.VDW.0>
-1.65238

>  <SCORE.INTRA.norm>
-1.15362

>  <SCORE.RESTR>
0

>  <SCORE.RESTR.CAVITY>
0

>  <SCORE.RESTR.norm>
0

>  <SCORE.SYSTEM>
0

>  <SCORE.SYSTEM.CONST>
0

>  <SCORE.SYSTEM.DIHEDRAL>
0

>  <SCORE.SYSTEM.SOLV>
0

>  <SCORE.SYSTEM.norm>
0

>  <SCORE.heavy>
13

>  <SCORE.norm>
-0.914842

>  <RMSD>
7.345

$$$$
ligand
 OpenBabel11021811473D
libRbt.so/2013.1/901 2013/11/27
 13 12  0  0  0  0  0  0  0  0999 V2000
   32.5291   32.7642   44.5323 O   0  0  0  0  0  0  0  0  0  0  0  0
   35.2277   31.8618   44.8240 O   0  0  0  0  0  0  0  0  0  0  0  0
   28.8813   32.7462   47.0027 P   0  0  1  0  0  0  0  0  0  0  0  0
   29.6751   32.9742   48.2593 O   0  5  0  0  0  0  0  0  0  0  0  0
   27.5029   33.0902   46.7298 O   0  0  0  0  0  0  0  0  0  0  0  0
   29.9999   32.8059   45.8415 O   0  0  0  0  0  0  0  0  0  0  0  0
   38.0394   30.4154   46.7473 O   0  0  0  0  0  0  0  0  0  0  0  0
   30.7532   34.0077   45.5697 C   0  0  0  0  0  0  0  0  0  0  0  0
   34.4413   31.4731   43.6810 C   0  0  0  0  0  0  0  0  0  0  0  0
   36.9919   31.3503   46.4339 C   0  0  0  0  0  0  0  0  0  0  0  0
   31.6081   33.8342   44.3057 C   0  0  0  0  0  0  0  0  0  0  0  0
   33.3660   32.5433   43.3807 C   0  0  0  0  0  0  0  0  0  0  0  0
   36.2788   30.9280   45.1280 C   0  0  0  0  0  0  0  0  0  0  0  0
  1 12  1  0  0  0  0
  1 11  1  0  0  0  0
  2 13  1  0  0  0  0
  2  9  1  0  0  0  0
  3  4  1  1  0  0  0
  3  5  2  0  0  0  0
  3  6  1  0  0  0  0
  6  8  1  0  0  0  0
  7 10  1  0  0  0  0
  8 11  1  0  0  0  0
  9 12  1  0  0  0  0
 10 13  1  0  0  0  0
M  CHG  1   4  -1
M  END
>  <CHROM.1>
174.86243974,-175.02294001,-63.74529859,-172.64784818,-61.35381230,-177.95938886
-56.69706570,179.66427295,179.90739751,32.37628723,32.39627192,45.71956349
0.09435365,0.27952570,-1.31237665

>  <Name>
ligand

>  <RI>
0

>  <Rbt.Current_Directory>
/home/itssahil/PROJECTS/Mol_Feturizer/New_Systems/rnas/3GS8

>  <Rbt.Executable>
rbdock ($Id: //depot/dev/client3/rdock/2013.1/src/exe/rbdock.cxx#4 $)

>  <Rbt.Library>
libRbt.so (2013.1, Build901 2013/11/27)

>  <Rbt.Parameter_File>
/export/apps/rDock/src/rDock_2013.1_src/data/scripts/dock_solv.prm

>  <Rbt.Receptor>
prm/pocket_docking_4.prm

>  <SCORE>
-13.8078

>  <SCORE.INTER>
2.18374

>  <SCORE.INTER.CONST>
1

>  <SCORE.INTER.POLAR>
0

>  <SCORE.INTER.ROT>
9

>  <SCORE.INTER.SOLV>
10.6712

>  <SCORE.INTER.VDW>
-11.7012

>  <SCORE.INTER.norm>
0.16798

>  <SCORE.INTRA>
-15.9915

>  <SCORE.INTRA.DIHEDRAL>
-30.981

>  <SCORE.INTRA.DIHEDRAL.0>
31.9578

>  <SCORE.INTRA.POLAR>
0

>  <SCORE.INTRA.POLAR.0>
0

>  <SCORE.INTRA.REPUL>
0

>  <SCORE.INTRA.REPUL.0>
0

>  <SCORE.INTRA.SOLV>
-1.41245

>  <SCORE.INTRA.SOLV.lig_0>
-48.4032

>  <SCORE.INTRA.VDW>
0.205205

>  <SCORE.INTRA.VDW.0>
-1.65238

>  <SCORE.INTRA.norm>
-1.23012

>  <SCORE.RESTR>
0

>  <SCORE.RESTR.CAVITY>
0

>  <SCORE.RESTR.norm>
0

>  <SCORE.SYSTEM>
0

>  <SCORE.SYSTEM.CONST>
0

>  <SCORE.SYSTEM.DIHEDRAL>
0

>  <SCORE.SYSTEM.SOLV>
0

>  <SCORE.SYSTEM.norm>
0

>  <SCORE.heavy>
13

>  <SCORE.norm>
-1.06214

>  <RMSD>
7.361

$$$$
ligand
 OpenBabel11021811473D
libRbt.so/2013.1/901 2013/11/27
 13 12  0  0  0  0  0  0  0  0999 V2000
   32.5253   32.7228   44.6001 O   0  0  0  0  0  0  0  0  0  0  0  0
   35.2209   31.8189   44.8541 O   0  0  0  0  0  0  0  0  0  0  0  0
   28.8753   32.7252   47.0520 P   0  0  1  0  0  0  0  0  0  0  0  0
   29.6613   32.9831   48.3078 O   0  5  0  0  0  0  0  0  0  0  0  0
   27.4956   33.0533   46.7662 O   0  0  0  0  0  0  0  0  0  0  0  0
   29.9990   32.7718   45.8951 O   0  0  0  0  0  0  0  0  0  0  0  0
   38.1253   30.4924   46.7253 O   0  0  0  0  0  0  0  0  0  0  0  0
   30.7328   33.9785   45.5933 C   0  0  0  0  0  0  0  0  0  0  0  0
   34.3986   31.3687   43.7600 C   0  0  0  0  0  0  0  0  0  0  0  0
   37.0339   31.3825   46.4315 C   0  0  0  0  0  0  0  0  0  0  0  0
   31.6012   33.7828   44.3417 C   0  0  0  0  0  0  0  0  0  0  0  0
   33.3158   32.4235   43.4334 C   0  0  0  0  0  0  0  0  0  0  0  0
   36.3149   30.9296   45.1392 C   0  0  0  0  0  0  0  0  0  0  0  0
  1 12  1  0  0  0  0
  1 11  1  0  0  0  0
  2 13  1  0  0  0  0
  2  9  1  0  0  0  0
  3  4  1  1  0  0  0
  3  5  2  0  0  0  0
  3  6  1  0  0  0  0
  6  8  1  0  0  0  0
  7 10  1  0  0  0  0
  8 11  1  0  0  0  0
  9 12  1  0  0  0  0
 10 13  1  0  0  0  0
M  CHG  1   4  -1
M  END
>  <CHROM.1>
174.76003616,-172.67708260,-64.51600200,-172.84694732,-60.45133922,-175.38434457
-56.04389546,179.71269347,176.15597247,32.37664815,32.36995653,45.75634922
0.10699530,0.27228721,-1.34621803

>  <Name>
ligand

>  <RI>
0

>  <Rbt.Current_Directory>
/home/itssahil/PROJECTS/Mol_Feturizer/New_Systems/rnas/3GS8

>  <Rbt.Executable>
rbdock ($Id: //depot/dev/client3/rdock/2013.1/src/exe/rbdock.cxx#4 $)

>  <Rbt.Library>
libRbt.so (2013.1, Build901 2013/11/27)

>  <Rbt.Parameter_File>
/export/apps/rDock/src/rDock_2013.1_src/data/scripts/dock_solv.prm

>  <Rbt.Receptor>
prm/pocket_docking_6.prm

>  <SCORE>
-13.8205

>  <SCORE.INTER>
2.02862

>  <SCORE.INTER.CONST>
1

>  <SCORE.INTER.POLAR>
0

>  <SCORE.INTER.ROT>
9

>  <SCORE.INTER.SOLV>
10.6736

>  <SCORE.INTER.VDW>
-11.8054

>  <SCORE.INTER.norm>
0.156048

>  <SCORE.INTRA>
-15.8491

>  <SCORE.INTRA.DIHEDRAL>
-30.6943

>  <SCORE.INTRA.DIHEDRAL.0>
31.9578

>  <SCORE.INTRA.POLAR>
0

>  <SCORE.INTRA.POLAR.0>
0

>  <SCORE.INTRA.REPUL>
0

>  <SCORE.INTRA.REPUL.0>
0

>  <SCORE.INTRA.SOLV>
-1.40867

>  <SCORE.INTRA.SOLV.lig_0>
-48.4032

>  <SCORE.INTRA.VDW>
0.202416

>  <SCORE.INTRA.VDW.0>
-1.65238

>  <SCORE.INTRA.norm>
-1.21916

>  <SCORE.RESTR>
0

>  <SCORE.RESTR.CAVITY>
0

>  <SCORE.RESTR.norm>
0

>  <SCORE.SYSTEM>
0

>  <SCORE.SYSTEM.CONST>
0

>  <SCORE.SYSTEM.DIHEDRAL>
0

>  <SCORE.SYSTEM.SOLV>
0

>  <SCORE.SYSTEM.norm>
0

>  <SCORE.heavy>
13

>  <SCORE.norm>
-1.06311

>  <RMSD>
7.370

$$$$
ligand
 OpenBabel11021811473D
libRbt.so/2013.1/901 2013/11/27
 13 12  0  0  0  0  0  0  0  0999 V2000
   36.3384   31.1659   48.0916 O   0  0  0  0  0  0  0  0  0  0  0  0
   36.0721   31.8620   51.7287 O   0  0  0  0  0  0  0  0  0  0  0  0
   37.8430   31.3017   43.2533 P   0  0  1  0  0  0  0  0  0  0  0  0
   38.9534   32.2577   42.9151 O   0  5  0  0  0  0  0  0  0  0  0  0
   37.2193   30.3063   42.4089 O   0  0  0  0  0  0  0  0  0  0  0  0
   38.0423   31.0462   44.8338 O   0  0  0  0  0  0  0  0  0  0  0  0
   36.4751   31.4875   54.5048 O   0  0  0  0  0  0  0  0  0  0  0  0
   36.9428   31.1389   45.7656 C   0  0  0  0  0  0  0  0  0  0  0  0
   35.5945   31.5809   50.3987 C   0  0  0  0  0  0  0  0  0  0  0  0
   35.6116   32.5360   54.0307 C   0  0  0  0  0  0  0  0  0  0  0  0
   37.4383   30.9418   47.2059 C   0  0  0  0  0  0  0  0  0  0  0  0
   36.7806   31.2602   49.4595 C   0  0  0  0  0  0  0  0  0  0  0  0
   35.0126   32.1485   52.6584 C   0  0  0  0  0  0  0  0  0  0  0  0
  1 12  1  0  0  0  0
  1 11  1  0  0  0  0
  2 13  1  0  0  0  0
  2  9  1  0  0  0  0
  3  4  1  6  0  0  0
  3  5  2  0  0  0  0
  3  6  1  0  0  0  0
  6  8  1  0  0  0  0
  7 10  1  0  0  0  0
  8 11  1  0  0  0  0
  9 12  1  0  0  0  0
 10 13  1  0  0  0  0
M  CHG  1   4  -1
M  END
>  <CHROM.1>
176.83441460,-176.00274667,131.26293856,-176.17952707,174.69677450,-179.08324435
-171.77877021,-56.35226403,-168.56516782,36.90016387,31.44491933,47.80238329
1.80773531,0.47008358,1.39103730

>  <Name>
ligand

>  <RI>
0

>  <Rbt.Current_Directory>
/home/itssahil/PROJECTS/Mol_Feturizer/New_Systems/rnas/3GS8

>  <Rbt.Executable>
rbdock ($Id: //depot/dev/client3/rdock/2013.1/src/exe/rbdock.cxx#4 $)

>  <Rbt.Library>
libRbt.so (2013.1, Build901 2013/11/27)

>  <Rbt.Parameter_File>
/export/apps/rDock/src/rDock_2013.1_src/data/scripts/dock_solv.prm

>  <Rbt.Receptor>
prm/pocket_docking_8.prm

>  <SCORE>
-15.0228

>  <SCORE.INTER>
0.441054

>  <SCORE.INTER.CONST>
1

>  <SCORE.INTER.POLAR>
0

>  <SCORE.INTER.ROT>
9

>  <SCORE.INTER.SOLV>
9.46589

>  <SCORE.INTER.VDW>
-12.4613

>  <SCORE.INTER.norm>
0.0339272

>  <SCORE.INTRA>
-15.4639

>  <SCORE.INTRA.DIHEDRAL>
-29.8602

>  <SCORE.INTRA.DIHEDRAL.0>
31.9578

>  <SCORE.INTRA.POLAR>
0

>  <SCORE.INTRA.POLAR.0>
0

>  <SCORE.INTRA.REPUL>
0

>  <SCORE.INTRA.REPUL.0>
0

>  <SCORE.INTRA.SOLV>
-1.78855

>  <SCORE.INTRA.SOLV.lig_0>
-48.4032

>  <SCORE.INTRA.VDW>
0.360514

>  <SCORE.INTRA.VDW.0>
-1.65238

>  <SCORE.INTRA.norm>
-1.18953

>  <SCORE.RESTR>
0

>  <SCORE.RESTR.CAVITY>
0

>  <SCORE.RESTR.norm>
0

>  <SCORE.SYSTEM>
0

>  <SCORE.SYSTEM.CONST>
0

>  <SCORE.SYSTEM.DIHEDRAL>
0

>  <SCORE.SYSTEM.SOLV>
0

>  <SCORE.SYSTEM.norm>
0

>  <SCORE.heavy>
13

>  <SCORE.norm>
-1.1556

>  <RMSD>
7.372

$$$$
ligand
 OpenBabel11021811473D
libRbt.so/2013.1/901 2013/11/27
 13 12  0  0  0  0  0  0  0  0999 V2000
   33.0201   32.3601   44.6410 O   0  0  0  0  0  0  0  0  0  0  0  0
   35.7436   31.7910   45.2268 O   0  0  0  0  0  0  0  0  0  0  0  0
   28.4294   33.2696   46.6003 P   0  0  1  0  0  0  0  0  0  0  0  0
   29.0261   33.2703   47.9805 O   0  5  0  0  0  0  0  0  0  0  0  0
   27.0876   33.6284   46.1959 O   0  0  0  0  0  0  0  0  0  0  0  0
   29.6958   33.5762   45.6487 O   0  0  0  0  0  0  0  0  0  0  0  0
   37.5054   32.1277   47.4590 O   0  0  0  0  0  0  0  0  0  0  0  0
   30.8654   32.7290   45.6397 C   0  0  0  0  0  0  0  0  0  0  0  0
   35.3080   31.9110   43.8587 C   0  0  0  0  0  0  0  0  0  0  0  0
   37.2757   30.8349   46.8713 C   0  0  0  0  0  0  0  0  0  0  0  0
   31.9012   33.2504   44.6327 C   0  0  0  0  0  0  0  0  0  0  0  0
   34.0669   32.8294   43.7695 C   0  0  0  0  0  0  0  0  0  0  0  0
   36.9289   30.9891   45.3719 C   0  0  0  0  0  0  0  0  0  0  0  0
  1 12  1  0  0  0  0
  1 11  1  0  0  0  0
  2 13  1  0  0  0  0
  2  9  1  0  0  0  0
  3  4  1  1  0  0  0
  3  5  2  0  0  0  0
  3  6  1  0  0  0  0
  6  8  1  0  0  0  0
  7 10  1  0  0  0  0
  8 11  1  0  0  0  0
  9 12  1  0  0  0  0
 10 13  1  0  0  0  0
M  CHG  1   4  -1
M  END
>  <CHROM.1>
176.19001486,-176.35328304,58.11125108,179.41387728,-178.61722196,-177.72544628
-54.85000630,-59.86256834,-176.83484949,32.43523644,32.58261815,45.78631043
0.07106495,0.22479435,-1.49365638

>  <Name>
ligand

>  <RI>
0

>  <Rbt.Current_Directory>
/home/itssahil/PROJECTS/Mol_Feturizer/New_Systems/rnas/3GS8

>  <Rbt.Executable>
rbdock ($Id: //depot/dev/client3/rdock/2013.1/src/exe/rbdock.cxx#4 $)

>  <Rbt.Library>
libRbt.so (2013.1, Build901 2013/11/27)

>  <Rbt.Parameter_File>
/export/apps/rDock/src/rDock_2013.1_src/data/scripts/dock_solv.prm

>  <Rbt.Receptor>
prm/pocket_docking_7.prm

>  <SCORE>
-13.2312

>  <SCORE.INTER>
2.71254

>  <SCORE.INTER.CONST>
1

>  <SCORE.INTER.POLAR>
0

>  <SCORE.INTER.ROT>
9

>  <SCORE.INTER.SOLV>
8.79726

>  <SCORE.INTER.VDW>
-10.7241

>  <SCORE.INTER.norm>
0.208657

>  <SCORE.INTRA>
-15.9438

>  <SCORE.INTRA.DIHEDRAL>
-31.2111

>  <SCORE.INTRA.DIHEDRAL.0>
31.9578

>  <SCORE.INTRA.POLAR>
0

>  <SCORE.INTRA.POLAR.0>
0

>  <SCORE.INTRA.REPUL>
0

>  <SCORE.INTRA.REPUL.0>
0

>  <SCORE.INTRA.SOLV>
-1.36369

>  <SCORE.INTRA.SOLV.lig_0>
-48.4032

>  <SCORE.INTRA.VDW>
0.34363

>  <SCORE.INTRA.VDW.0>
-1.65238

>  <SCORE.INTRA.norm>
-1.22644

>  <SCORE.RESTR>
0

>  <SCORE.RESTR.CAVITY>
0

>  <SCORE.RESTR.norm>
0

>  <SCORE.SYSTEM>
0

>  <SCORE.SYSTEM.CONST>
0

>  <SCORE.SYSTEM.DIHEDRAL>
0

>  <SCORE.SYSTEM.SOLV>
0

>  <SCORE.SYSTEM.norm>
0

>  <SCORE.heavy>
13

>  <SCORE.norm>
-1.01779

>  <RMSD>
7.378

$$$$
ligand
 OpenBabel11021811473D
libRbt.so/2013.1/901 2013/11/27
 13 12  0  0  0  0  0  0  0  0999 V2000
   32.9656   32.0763   44.0925 O   0  0  0  0  0  0  0  0  0  0  0  0
   35.8179   31.4085   43.2315 O   0  0  0  0  0  0  0  0  0  0  0  0
   29.2318   33.3723   47.2713 P   0  0  1  0  0  0  0  0  0  0  0  0
   27.9331   32.9380   46.6501 O   0  5  0  0  0  0  0  0  0  0  0  0
   29.7689   33.0348   48.5715 O   0  0  0  0  0  0  0  0  0  0  0  0
   30.2011   33.5786   45.9981 O   0  0  0  0  0  0  0  0  0  0  0  0
   36.8663   30.8636   46.7387 O   0  0  0  0  0  0  0  0  0  0  0  0
   31.2556   32.6434   45.6833 C   0  0  0  0  0  0  0  0  0  0  0  0
   34.6089   31.2365   42.4669 C   0  0  0  0  0  0  0  0  0  0  0  0
   37.0090   31.2382   45.3571 C   0  0  0  0  0  0  0  0  0  0  0  0
   32.0207   33.0948   44.4304 C   0  0  0  0  0  0  0  0  0  0  0  0
   33.5883   32.3431   42.8210 C   0  0  0  0  0  0  0  0  0  0  0  0
   35.6700   31.0303   44.6114 C   0  0  0  0  0  0  0  0  0  0  0  0
  1 12  1  0  0  0  0
  1 11  1  0  0  0  0
  2 13  1  0  0  0  0
  2  9  1  0  0  0  0
  3  4  1  6  0  0  0
  3  5  2  0  0  0  0
  3  6  1  0  0  0  0
  6  8  1  0  0  0  0
  7 10  1  0  0  0  0
  8 11  1  0  0  0  0
  9 12  1  0  0  0  0
 10 13  1  0  0  0  0
M  CHG  1   4  -1
M  END
>  <CHROM.1>
179.92975636,179.73822808,-106.31990060,-179.58162241,-174.67595669,74.19125545
-76.37490288,179.89921917,171.85998881,32.51895589,32.31780548,45.42590628
0.37418354,0.29577288,-1.54437799

>  <Name>
ligand

>  <RI>
0

>  <Rbt.Current_Directory>
/home/itssahil/PROJECTS/Mol_Feturizer/New_Systems/rnas/3GS8

>  <Rbt.Executable>
rbdock ($Id: //depot/dev/client3/rdock/2013.1/src/exe/rbdock.cxx#4 $)

>  <Rbt.Library>
libRbt.so (2013.1, Build901 2013/11/27)

>  <Rbt.Parameter_File>
/export/apps/rDock/src/rDock_2013.1_src/data/scripts/dock_solv.prm

>  <Rbt.Receptor>
prm/pocket_docking_4.prm

>  <SCORE>
-11.5966

>  <SCORE.INTER>
2.45472

>  <SCORE.INTER.CONST>
1

>  <SCORE.INTER.POLAR>
0

>  <SCORE.INTER.ROT>
9

>  <SCORE.INTER.SOLV>
9.46462

>  <SCORE.INTER.VDW>
-11.1184

>  <SCORE.INTER.norm>
0.188824

>  <SCORE.INTRA>
-14.0513

>  <SCORE.INTRA.DIHEDRAL>
-28.8309

>  <SCORE.INTRA.DIHEDRAL.0>
31.9578

>  <SCORE.INTRA.POLAR>
0

>  <SCORE.INTRA.POLAR.0>
0

>  <SCORE.INTRA.REPUL>
0

>  <SCORE.INTRA.REPUL.0>
0

>  <SCORE.INTRA.SOLV>
-1.46037

>  <SCORE.INTRA.SOLV.lig_0>
-48.4032

>  <SCORE.INTRA.VDW>
1.09428

>  <SCORE.INTRA.VDW.0>
-1.65238

>  <SCORE.INTRA.norm>
-1.08087

>  <SCORE.RESTR>
0

>  <SCORE.RESTR.CAVITY>
0

>  <SCORE.RESTR.norm>
0

>  <SCORE.SYSTEM>
0

>  <SCORE.SYSTEM.CONST>
0

>  <SCORE.SYSTEM.DIHEDRAL>
0

>  <SCORE.SYSTEM.SOLV>
0

>  <SCORE.SYSTEM.norm>
0

>  <SCORE.heavy>
13

>  <SCORE.norm>
-0.892047

>  <RMSD>
7.411

$$$$
ligand
 OpenBabel11021811473D
libRbt.so/2013.1/901 2013/11/27
 13 12  0  0  0  0  0  0  0  0999 V2000
   33.1232   32.2391   44.3227 O   0  0  0  0  0  0  0  0  0  0  0  0
   35.8557   30.9539   43.9090 O   0  0  0  0  0  0  0  0  0  0  0  0
   29.9427   33.1083   47.3123 P   0  0  1  0  0  0  0  0  0  0  0  0
   28.6960   32.2873   47.1316 O   0  5  0  0  0  0  0  0  0  0  0  0
   30.6165   33.4696   48.5404 O   0  0  0  0  0  0  0  0  0  0  0  0
   30.7743   32.8223   45.9595 O   0  0  0  0  0  0  0  0  0  0  0  0
   38.0840   30.7090   45.7010 O   0  0  0  0  0  0  0  0  0  0  0  0
   31.6459   33.8151   45.3762 C   0  0  0  0  0  0  0  0  0  0  0  0
   34.5859   30.4801   43.4201 C   0  0  0  0  0  0  0  0  0  0  0  0
   37.2062   31.8483   45.7371 C   0  0  0  0  0  0  0  0  0  0  0  0
   32.2206   33.3123   44.0437 C   0  0  0  0  0  0  0  0  0  0  0  0
   33.6523   31.6729   43.1082 C   0  0  0  0  0  0  0  0  0  0  0  0
   35.7920   31.4421   45.2605 C   0  0  0  0  0  0  0  0  0  0  0  0
  1 12  1  0  0  0  0
  1 11  1  0  0  0  0
  2 13  1  0  0  0  0
  2  9  1  0  0  0  0
  3  4  1  1  0  0  0
  3  5  2  0  0  0  0
  3  6  1  0  0  0  0
  6  8  1  0  0  0  0
  7 10  1  0  0  0  0
  8 11  1  0  0  0  0
  9 12  1  0  0  0  0
 10 13  1  0  0  0  0
M  CHG  1   4  -1
M  END
>  <CHROM.1>
-177.90674414,176.52836880,148.64591788,-175.65797585,-68.65558592,74.21593719
-75.83147962,-60.52834975,177.16004661,32.95894232,32.23697289,45.55796650
0.38009667,0.23897525,-1.70699637

>  <Name>
ligand

>  <RI>
0

>  <Rbt.Current_Directory>
/home/itssahil/PROJECTS/Mol_Feturizer/New_Systems/rnas/3GS8

>  <Rbt.Executable>
rbdock ($Id: //depot/dev/client3/rdock/2013.1/src/exe/rbdock.cxx#4 $)

>  <Rbt.Library>
libRbt.so (2013.1, Build901 2013/11/27)

>  <Rbt.Parameter_File>
/export/apps/rDock/src/rDock_2013.1_src/data/scripts/dock_solv.prm

>  <Rbt.Receptor>
prm/pocket_docking_4.prm

>  <SCORE>
-11.3378

>  <SCORE.INTER>
3.04705

>  <SCORE.INTER.CONST>
1

>  <SCORE.INTER.POLAR>
0

>  <SCORE.INTER.ROT>
9

>  <SCORE.INTER.SOLV>
10.4556

>  <SCORE.INTER.VDW>
-11.0538

>  <SCORE.INTER.norm>
0.234388

>  <SCORE.INTRA>
-14.3849

>  <SCORE.INTRA.DIHEDRAL>
-29.1877

>  <SCORE.INTRA.DIHEDRAL.0>
31.9578

>  <SCORE.INTRA.POLAR>
0

>  <SCORE.INTRA.POLAR.0>
0

>  <SCORE.INTRA.REPUL>
0

>  <SCORE.INTRA.REPUL.0>
0

>  <SCORE.INTRA.SOLV>
-1.43565

>  <SCORE.INTRA.SOLV.lig_0>
-48.4032

>  <SCORE.INTRA.VDW>
0.926817

>  <SCORE.INTRA.VDW.0>
-1.65238

>  <SCORE.INTRA.norm>
-1.10653

>  <SCORE.RESTR>
0

>  <SCORE.RESTR.CAVITY>
0

>  <SCORE.RESTR.norm>
0

>  <SCORE.SYSTEM>
0

>  <SCORE.SYSTEM.CONST>
0

>  <SCORE.SYSTEM.DIHEDRAL>
0

>  <SCORE.SYSTEM.SOLV>
0

>  <SCORE.SYSTEM.norm>
0

>  <SCORE.heavy>
13

>  <SCORE.norm>
-0.872139

>  <RMSD>
7.418

$$$$
ligand
 OpenBabel11021811473D
libRbt.so/2013.1/901 2013/11/27
 13 12  0  0  0  0  0  0  0  0999 V2000
   37.0649   30.6204   49.5360 O   0  0  0  0  0  0  0  0  0  0  0  0
   34.5451   32.5090   51.5091 O   0  0  0  0  0  0  0  0  0  0  0  0
   40.4011   28.2799   48.1653 P   0  0  1  0  0  0  0  0  0  0  0  0
   41.6516   28.9649   47.6878 O   0  5  0  0  0  0  0  0  0  0  0  0
   40.2691   27.0049   48.8358 O   0  0  0  0  0  0  0  0  0  0  0  0
   39.4143   29.5086   48.5113 O   0  0  0  0  0  0  0  0  0  0  0  0
   32.1789   33.8930   50.5604 O   0  0  0  0  0  0  0  0  0  0  0  0
   39.4019   30.1330   49.8134 C   0  0  0  0  0  0  0  0  0  0  0  0
   35.7062   31.6853   51.2877 C   0  0  0  0  0  0  0  0  0  0  0  0
   32.1182   32.7830   51.4735 C   0  0  0  0  0  0  0  0  0  0  0  0
   38.3171   31.2181   49.8811 C   0  0  0  0  0  0  0  0  0  0  0  0
   35.9709   31.5276   49.7722 C   0  0  0  0  0  0  0  0  0  0  0  0
   33.3098   31.8285   51.2261 C   0  0  0  0  0  0  0  0  0  0  0  0
  1 12  1  0  0  0  0
  1 11  1  0  0  0  0
  2 13  1  0  0  0  0
  2  9  1  0  0  0  0
  3  4  1  1  0  0  0
  3  5  2  0  0  0  0
  3  6  1  0  0  0  0
  6  8  1  0  0  0  0
  7 10  1  0  0  0  0
  8 11  1  0  0  0  0
  9 12  1  0  0  0  0
 10 13  1  0  0  0  0
M  CHG  1   4  -1
M  END
>  <CHROM.1>
-72.79459085,-179.39095269,-88.27891703,-176.93204614,55.74363042,74.55885534
-175.43845041,63.67572089,171.31332347,37.25895205,30.54675189,49.70571185
-2.64387239,-0.36737264,3.12667807

>  <Name>
ligand

>  <RI>
0

>  <Rbt.Current_Directory>
/home/itssahil/PROJECTS/Mol_Feturizer/New_Systems/rnas/3GS8

>  <Rbt.Executable>
rbdock ($Id: //depot/dev/client3/rdock/2013.1/src/exe/rbdock.cxx#4 $)

>  <Rbt.Library>
libRbt.so (2013.1, Build901 2013/11/27)

>  <Rbt.Parameter_File>
/export/apps/rDock/src/rDock_2013.1_src/data/scripts/dock_solv.prm

>  <Rbt.Receptor>
prm/pocket_docking_8.prm

>  <SCORE>
-10.2291

>  <SCORE.INTER>
3.08425

>  <SCORE.INTER.CONST>
1

>  <SCORE.INTER.POLAR>
0

>  <SCORE.INTER.ROT>
9

>  <SCORE.INTER.SOLV>
8.2659

>  <SCORE.INTER.VDW>
-10.2991

>  <SCORE.INTER.norm>
0.23725

>  <SCORE.INTRA>
-13.3134

>  <SCORE.INTRA.DIHEDRAL>
-29.1953

>  <SCORE.INTRA.DIHEDRAL.0>
31.9578

>  <SCORE.INTRA.POLAR>
0

>  <SCORE.INTRA.POLAR.0>
0

>  <SCORE.INTRA.REPUL>
0

>  <SCORE.INTRA.REPUL.0>
0

>  <SCORE.INTRA.SOLV>
-1.21823

>  <SCORE.INTRA.SOLV.lig_0>
-48.4032

>  <SCORE.INTRA.VDW>
1.89339

>  <SCORE.INTRA.VDW.0>
-1.65238

>  <SCORE.INTRA.norm>
-1.0241

>  <SCORE.RESTR>
0

>  <SCORE.RESTR.CAVITY>
0

>  <SCORE.RESTR.norm>
0

>  <SCORE.SYSTEM>
0

>  <SCORE.SYSTEM.CONST>
0

>  <SCORE.SYSTEM.DIHEDRAL>
0

>  <SCORE.SYSTEM.SOLV>
0

>  <SCORE.SYSTEM.norm>
0

>  <SCORE.heavy>
13

>  <SCORE.norm>
-0.786855

>  <RMSD>
7.425

$$$$
ligand
 OpenBabel11021811473D
libRbt.so/2013.1/901 2013/11/27
 13 12  0  0  0  0  0  0  0  0999 V2000
   32.2022   30.9662   51.5346 O   0  0  0  0  0  0  0  0  0  0  0  0
   34.8601   31.6151   50.5722 O   0  0  0  0  0  0  0  0  0  0  0  0
   28.6691   31.0998   50.7040 P   0  0  1  0  0  0  0  0  0  0  0  0
   27.5051   30.3959   51.3449 O   0  5  0  0  0  0  0  0  0  0  0  0
   29.0543   32.4901   50.8106 O   0  0  0  0  0  0  0  0  0  0  0  0
   29.7790   29.9362   50.5720 O   0  0  0  0  0  0  0  0  0  0  0  0
   37.4122   31.4651   47.9017 O   0  0  0  0  0  0  0  0  0  0  0  0
   30.4232   29.3621   51.7300 C   0  0  0  0  0  0  0  0  0  0  0  0
   33.9807   32.6143   51.1238 C   0  0  0  0  0  0  0  0  0  0  0  0
   36.6930   31.0279   49.0683 C   0  0  0  0  0  0  0  0  0  0  0  0
   31.2603   30.4214   52.4622 C   0  0  0  0  0  0  0  0  0  0  0  0
   33.0224   31.9749   52.1555 C   0  0  0  0  0  0  0  0  0  0  0  0
   35.6931   32.1205   49.5140 C   0  0  0  0  0  0  0  0  0  0  0  0
  1 12  1  0  0  0  0
  1 11  1  0  0  0  0
  2 13  1  0  0  0  0
  2  9  1  0  0  0  0
  3  4  1  1  0  0  0
  3  5  2  0  0  0  0
  3  6  1  0  0  0  0
  6  8  1  0  0  0  0
  7 10  1  0  0  0  0
  8 11  1  0  0  0  0
  9 12  1  0  0  0  0
 10 13  1  0  0  0  0
M  CHG  1   4  -1
M  END
>  <CHROM.1>
-176.72349791,174.78768491,-68.43344390,-64.13626468,-56.75198739,174.51167446
-60.92734267,172.74697445,179.80693725,32.02412255,31.18150925,50.71280759
-2.91470694,-0.13766253,-1.66095813

>  <Name>
ligand

>  <RI>
0

>  <Rbt.Current_Directory>
/home/itssahil/PROJECTS/Mol_Feturizer/New_Systems/rnas/3GS8

>  <Rbt.Executable>
rbdock ($Id: //depot/dev/client3/rdock/2013.1/src/exe/rbdock.cxx#4 $)

>  <Rbt.Library>
libRbt.so (2013.1, Build901 2013/11/27)

>  <Rbt.Parameter_File>
/export/apps/rDock/src/rDock_2013.1_src/data/scripts/dock_solv.prm

>  <Rbt.Receptor>
prm/pocket_docking_8.prm

>  <SCORE>
-13.4521

>  <SCORE.INTER>
1.21481

>  <SCORE.INTER.CONST>
1

>  <SCORE.INTER.POLAR>
0

>  <SCORE.INTER.ROT>
9

>  <SCORE.INTER.SOLV>
6.70474

>  <SCORE.INTER.VDW>
-11.025

>  <SCORE.INTER.norm>
0.0934467

>  <SCORE.INTRA>
-14.6669

>  <SCORE.INTRA.DIHEDRAL>
-30.9729

>  <SCORE.INTRA.DIHEDRAL.0>
31.9578

>  <SCORE.INTRA.POLAR>
0

>  <SCORE.INTRA.POLAR.0>
0

>  <SCORE.INTRA.REPUL>
0

>  <SCORE.INTRA.REPUL.0>
0

>  <SCORE.INTRA.SOLV>
1.57255

>  <SCORE.INTRA.SOLV.lig_0>
-48.4032

>  <SCORE.INTRA.VDW>
0.0332793

>  <SCORE.INTRA.VDW.0>
-1.65238

>  <SCORE.INTRA.norm>
-1.12822

>  <SCORE.RESTR>
0

>  <SCORE.RESTR.CAVITY>
0

>  <SCORE.RESTR.norm>
0

>  <SCORE.SYSTEM>
0

>  <SCORE.SYSTEM.CONST>
0

>  <SCORE.SYSTEM.DIHEDRAL>
0

>  <SCORE.SYSTEM.SOLV>
0

>  <SCORE.SYSTEM.norm>
0

>  <SCORE.heavy>
13

>  <SCORE.norm>
-1.03478

>  <RMSD>
7.429

$$$$
ligand
 OpenBabel11021811473D
libRbt.so/2013.1/901 2013/11/27
 13 12  0  0  0  0  0  0  0  0999 V2000
   35.1139   31.4074   50.3682 O   0  0  0  0  0  0  0  0  0  0  0  0
   36.9251   31.4049   48.0750 O   0  0  0  0  0  0  0  0  0  0  0  0
   32.2615   33.7933   49.5866 P   0  0  1  0  0  0  0  0  0  0  0  0
   31.0007   34.1859   50.3059 O   0  5  0  0  0  0  0  0  0  0  0  0
   33.4249   34.6024   49.2955 O   0  0  0  0  0  0  0  0  0  0  0  0
   32.4029   32.2205   49.9176 O   0  0  0  0  0  0  0  0  0  0  0  0
   35.7627   31.2517   45.4553 O   0  0  0  0  0  0  0  0  0  0  0  0
   32.8838   31.7506   51.1958 C   0  0  0  0  0  0  0  0  0  0  0  0
   37.3174   30.9400   49.3811 C   0  0  0  0  0  0  0  0  0  0  0  0
   37.1865   31.3234   45.6479 C   0  0  0  0  0  0  0  0  0  0  0  0
   34.3690   32.0983   51.3743 C   0  0  0  0  0  0  0  0  0  0  0  0
   36.5229   31.6873   50.4774 C   0  0  0  0  0  0  0  0  0  0  0  0
   37.5695   30.6900   47.0059 C   0  0  0  0  0  0  0  0  0  0  0  0
  1 12  1  0  0  0  0
  1 11  1  0  0  0  0
  2 13  1  0  0  0  0
  2  9  1  0  0  0  0
  3  4  1  1  0  0  0
  3  5  2  0  0  0  0
  3  6  1  0  0  0  0
  6  8  1  0  0  0  0
  7 10  1  0  0  0  0
  8 11  1  0  0  0  0
  9 12  1  0  0  0  0
 10 13  1  0  0  0  0
M  CHG  1   4  -1
M  END
>  <CHROM.1>
-179.75153314,-175.35623304,-77.38367837,-68.03091273,-63.13908480,-176.40847179
63.20028025,-60.54827829,-179.91820585,34.57991510,32.26271844,49.11382284
-0.45124778,-0.53000933,1.72244349

>  <Name>
ligand

>  <RI>
0

>  <Rbt.Current_Directory>
/home/itssahil/PROJECTS/Mol_Feturizer/New_Systems/rnas/3GS8

>  <Rbt.Executable>
rbdock ($Id: //depot/dev/client3/rdock/2013.1/src/exe/rbdock.cxx#4 $)

>  <Rbt.Library>
libRbt.so (2013.1, Build901 2013/11/27)

>  <Rbt.Parameter_File>
/export/apps/rDock/src/rDock_2013.1_src/data/scripts/dock_solv.prm

>  <Rbt.Receptor>
prm/pocket_docking_7.prm

>  <SCORE>
-13.1664

>  <SCORE.INTER>
1.77999

>  <SCORE.INTER.CONST>
1

>  <SCORE.INTER.POLAR>
0

>  <SCORE.INTER.ROT>
9

>  <SCORE.INTER.SOLV>
5.40664

>  <SCORE.INTER.VDW>
-10.2156

>  <SCORE.INTER.norm>
0.136922

>  <SCORE.INTRA>
-14.9464

>  <SCORE.INTRA.DIHEDRAL>
-31.1157

>  <SCORE.INTRA.DIHEDRAL.0>
31.9578

>  <SCORE.INTRA.POLAR>
0

>  <SCORE.INTRA.POLAR.0>
0

>  <SCORE.INTRA.REPUL>
0

>  <SCORE.INTRA.REPUL.0>
0

>  <SCORE.INTRA.SOLV>
1.28422

>  <SCORE.INTRA.SOLV.lig_0>
-48.4032

>  <SCORE.INTRA.VDW>
-0.0306155

>  <SCORE.INTRA.VDW.0>
-1.65238

>  <SCORE.INTRA.norm>
-1.14972

>  <SCORE.RESTR>
0

>  <SCORE.RESTR.CAVITY>
0

>  <SCORE.RESTR.norm>
0

>  <SCORE.SYSTEM>
0

>  <SCORE.SYSTEM.CONST>
0

>  <SCORE.SYSTEM.DIHEDRAL>
0

>  <SCORE.SYSTEM.SOLV>
0

>  <SCORE.SYSTEM.norm>
0

>  <SCORE.heavy>
13

>  <SCORE.norm>
-1.0128

>  <RMSD>
7.436

$$$$
ligand
 OpenBabel11021811473D
libRbt.so/2013.1/901 2013/11/27
 13 12  0  0  0  0  0  0  0  0999 V2000
   34.4746   31.9752   44.4468 O   0  0  0  0  0  0  0  0  0  0  0  0
   36.3514   30.9561   46.3053 O   0  0  0  0  0  0  0  0  0  0  0  0
   30.7501   33.4146   46.2875 P   0  0  1  0  0  0  0  0  0  0  0  0
   31.5730   34.5512   46.8279 O   0  5  0  0  0  0  0  0  0  0  0  0
   29.3456   33.4008   45.9410 O   0  0  0  0  0  0  0  0  0  0  0  0
   31.8222   32.5448   45.4524 O   0  0  0  0  0  0  0  0  0  0  0  0
   38.1616   30.9038   49.5329 O   0  0  0  0  0  0  0  0  0  0  0  0
   32.3048   32.9677   44.1586 C   0  0  0  0  0  0  0  0  0  0  0  0
   36.7082   31.0578   44.9131 C   0  0  0  0  0  0  0  0  0  0  0  0
   37.0235   30.9378   48.6535 C   0  0  0  0  0  0  0  0  0  0  0  0
   33.3194   31.9566   43.6045 C   0  0  0  0  0  0  0  0  0  0  0  0
   35.4414   30.9925   44.0285 C   0  0  0  0  0  0  0  0  0  0  0  0
   37.4934   30.9452   47.1799 C   0  0  0  0  0  0  0  0  0  0  0  0
  1 12  1  0  0  0  0
  1 11  1  0  0  0  0
  2 13  1  0  0  0  0
  2  9  1  0  0  0  0
  3  4  1  6  0  0  0
  3  5  2  0  0  0  0
  3  6  1  0  0  0  0
  6  8  1  0  0  0  0
  7 10  1  0  0  0  0
  8 11  1  0  0  0  0
  9 12  1  0  0  0  0
 10 13  1  0  0  0  0
M  CHG  1   4  -1
M  END
>  <CHROM.1>
177.86189575,175.91934928,-75.73966959,179.57200125,-65.85241874,177.16170547
53.49065759,179.01822378,176.74737670,33.90188724,32.17546639,46.00211018
-0.17824253,0.39904971,-1.72964554

>  <Name>
ligand

>  <RI>
0

>  <Rbt.Current_Directory>
/home/itssahil/PROJECTS/Mol_Feturizer/New_Systems/rnas/3GS8

>  <Rbt.Executable>
rbdock ($Id: //depot/dev/client3/rdock/2013.1/src/exe/rbdock.cxx#4 $)

>  <Rbt.Library>
libRbt.so (2013.1, Build901 2013/11/27)

>  <Rbt.Parameter_File>
/export/apps/rDock/src/rDock_2013.1_src/data/scripts/dock_solv.prm

>  <Rbt.Receptor>
prm/pocket_docking_8.prm

>  <SCORE>
-14.6677

>  <SCORE.INTER>
1.49532

>  <SCORE.INTER.CONST>
1

>  <SCORE.INTER.POLAR>
0

>  <SCORE.INTER.ROT>
9

>  <SCORE.INTER.SOLV>
11.2781

>  <SCORE.INTER.VDW>
-12.3625

>  <SCORE.INTER.norm>
0.115025

>  <SCORE.INTRA>
-16.163

>  <SCORE.INTRA.DIHEDRAL>
-31.188

>  <SCORE.INTRA.DIHEDRAL.0>
31.9578

>  <SCORE.INTRA.POLAR>
0

>  <SCORE.INTRA.POLAR.0>
0

>  <SCORE.INTRA.REPUL>
0

>  <SCORE.INTRA.REPUL.0>
0

>  <SCORE.INTRA.SOLV>
-1.42113

>  <SCORE.INTRA.SOLV.lig_0>
-48.4032

>  <SCORE.INTRA.VDW>
0.141588

>  <SCORE.INTRA.VDW.0>
-1.65238

>  <SCORE.INTRA.norm>
-1.24331

>  <SCORE.RESTR>
0

>  <SCORE.RESTR.CAVITY>
0

>  <SCORE.RESTR.norm>
0

>  <SCORE.SYSTEM>
0

>  <SCORE.SYSTEM.CONST>
0

>  <SCORE.SYSTEM.DIHEDRAL>
0

>  <SCORE.SYSTEM.SOLV>
0

>  <SCORE.SYSTEM.norm>
0

>  <SCORE.heavy>
13

>  <SCORE.norm>
-1.12828

>  <RMSD>
7.436

$$$$
ligand
 OpenBabel11021811473D
libRbt.so/2013.1/901 2013/11/27
 13 12  0  0  0  0  0  0  0  0999 V2000
   33.8887   32.4320   44.6777 O   0  0  0  0  0  0  0  0  0  0  0  0
   36.1751   30.9770   45.5829 O   0  0  0  0  0  0  0  0  0  0  0  0
   29.2595   33.8131   46.2161 P   0  0  1  0  0  0  0  0  0  0  0  0
   29.2679   32.9114   47.4194 O   0  5  0  0  0  0  0  0  0  0  0  0
   29.0073   35.2363   46.1553 O   0  0  0  0  0  0  0  0  0  0  0  0
   30.3172   33.1117   45.2198 O   0  0  0  0  0  0  0  0  0  0  0  0
   36.6661   31.1705   48.3722 O   0  0  0  0  0  0  0  0  0  0  0  0
   31.7427   33.2113   45.4284 C   0  0  0  0  0  0  0  0  0  0  0  0
   36.1119   31.4789   44.2338 C   0  0  0  0  0  0  0  0  0  0  0  0
   37.4983   30.3464   47.5367 C   0  0  0  0  0  0  0  0  0  0  0  0
   32.5030   32.4590   44.3263 C   0  0  0  0  0  0  0  0  0  0  0  0
   34.6401   31.5985   43.7743 C   0  0  0  0  0  0  0  0  0  0  0  0
   37.5176   30.9044   46.0943 C   0  0  0  0  0  0  0  0  0  0  0  0
  1 12  1  0  0  0  0
  1 11  1  0  0  0  0
  2 13  1  0  0  0  0
  2  9  1  0  0  0  0
  3  4  1  1  0  0  0
  3  5  2  0  0  0  0
  3  6  1  0  0  0  0
  6  8  1  0  0  0  0
  7 10  1  0  0  0  0
  8 11  1  0  0  0  0
  9 12  1  0  0  0  0
 10 13  1  0  0  0  0
M  CHG  1   4  -1
M  END
>  <CHROM.1>
-175.13216522,-179.50290823,-75.92404173,-179.60811319,-172.15468945,-177.12334635
56.35492138,-57.27644208,172.79473094,33.04647570,32.42394229,45.83385513
-0.03245616,0.37604925,-1.50641255

>  <Name>
ligand

>  <RI>
0

>  <Rbt.Current_Directory>
/home/itssahil/PROJECTS/Mol_Feturizer/New_Systems/rnas/3GS8

>  <Rbt.Executable>
rbdock ($Id: //depot/dev/client3/rdock/2013.1/src/exe/rbdock.cxx#4 $)

>  <Rbt.Library>
libRbt.so (2013.1, Build901 2013/11/27)

>  <Rbt.Parameter_File>
/export/apps/rDock/src/rDock_2013.1_src/data/scripts/dock_solv.prm

>  <Rbt.Receptor>
prm/pocket_docking_7.prm

>  <SCORE>
-14.2506

>  <SCORE.INTER>
1.65179

>  <SCORE.INTER.CONST>
1

>  <SCORE.INTER.POLAR>
0

>  <SCORE.INTER.ROT>
9

>  <SCORE.INTER.SOLV>
9.74806

>  <SCORE.INTER.VDW>
-11.7482

>  <SCORE.INTER.norm>
0.127061

>  <SCORE.INTRA>
-15.9024

>  <SCORE.INTRA.DIHEDRAL>
-30.9563

>  <SCORE.INTRA.DIHEDRAL.0>
31.9578

>  <SCORE.INTRA.POLAR>
0

>  <SCORE.INTRA.POLAR.0>
0

>  <SCORE.INTRA.REPUL>
0

>  <SCORE.INTRA.REPUL.0>
0

>  <SCORE.INTRA.SOLV>
-1.2549

>  <SCORE.INTRA.SOLV.lig_0>
-48.4032

>  <SCORE.INTRA.VDW>
0.203203

>  <SCORE.INTRA.VDW.0>
-1.65238

>  <SCORE.INTRA.norm>
-1.22326

>  <SCORE.RESTR>
0

>  <SCORE.RESTR.CAVITY>
0

>  <SCORE.RESTR.norm>
0

>  <SCORE.SYSTEM>
0

>  <SCORE.SYSTEM.CONST>
0

>  <SCORE.SYSTEM.DIHEDRAL>
0

>  <SCORE.SYSTEM.SOLV>
0

>  <SCORE.SYSTEM.norm>
0

>  <SCORE.heavy>
13

>  <SCORE.norm>
-1.0962

>  <RMSD>
7.438

$$$$
ligand
 OpenBabel11021811473D
libRbt.so/2013.1/901 2013/11/27
 13 12  0  0  0  0  0  0  0  0999 V2000
   33.2366   32.2418   44.0215 O   0  0  0  0  0  0  0  0  0  0  0  0
   36.0993   31.6582   43.4728 O   0  0  0  0  0  0  0  0  0  0  0  0
   29.1301   33.1001   46.8555 P   0  0  1  0  0  0  0  0  0  0  0  0
   29.8711   33.5356   48.0893 O   0  5  0  0  0  0  0  0  0  0  0  0
   27.7036   33.0879   46.6153 O   0  0  0  0  0  0  0  0  0  0  0  0
   30.1720   33.4186   45.6654 O   0  0  0  0  0  0  0  0  0  0  0  0
   37.2108   32.6399   45.9454 O   0  0  0  0  0  0  0  0  0  0  0  0
   31.4045   32.6814   45.5136 C   0  0  0  0  0  0  0  0  0  0  0  0
   35.0380   31.5277   42.5071 C   0  0  0  0  0  0  0  0  0  0  0  0
   36.9697   31.2403   45.7164 C   0  0  0  0  0  0  0  0  0  0  0  0
   32.1707   33.1612   44.2720 C   0  0  0  0  0  0  0  0  0  0  0  0
   33.9216   32.5587   42.7943 C   0  0  0  0  0  0  0  0  0  0  0  0
   35.7820   31.0603   44.7421 C   0  0  0  0  0  0  0  0  0  0  0  0
  1 12  1  0  0  0  0
  1 11  1  0  0  0  0
  2 13  1  0  0  0  0
  2  9  1  0  0  0  0
  3  4  1  1  0  0  0
  3  5  2  0  0  0  0
  3  6  1  0  0  0  0
  6  8  1  0  0  0  0
  7 10  1  0  0  0  0
  8 11  1  0  0  0  0
  9 12  1  0  0  0  0
 10 13  1  0  0  0  0
M  CHG  1   4  -1
M  END
>  <CHROM.1>
-177.90956503,179.85891682,68.13763257,177.91012087,-169.03286223,77.84480752
-68.33022222,61.89164602,174.48698794,32.63547126,32.52385940,45.26496208
0.35210440,0.17254029,-1.66843097

>  <Name>
ligand

>  <RI>
0

>  <Rbt.Current_Directory>
/home/itssahil/PROJECTS/Mol_Feturizer/New_Systems/rnas/3GS8

>  <Rbt.Executable>
rbdock ($Id: //depot/dev/client3/rdock/2013.1/src/exe/rbdock.cxx#4 $)

>  <Rbt.Library>
libRbt.so (2013.1, Build901 2013/11/27)

>  <Rbt.Parameter_File>
/export/apps/rDock/src/rDock_2013.1_src/data/scripts/dock_solv.prm

>  <Rbt.Receptor>
prm/pocket_docking_4.prm

>  <SCORE>
-11.3215

>  <SCORE.INTER>
2.80113

>  <SCORE.INTER.CONST>
1

>  <SCORE.INTER.POLAR>
0

>  <SCORE.INTER.ROT>
9

>  <SCORE.INTER.SOLV>
8.04482

>  <SCORE.INTER.VDW>
-10.4142

>  <SCORE.INTER.norm>
0.215472

>  <SCORE.INTRA>
-14.1226

>  <SCORE.INTRA.DIHEDRAL>
-28.9337

>  <SCORE.INTRA.DIHEDRAL.0>
31.9578

>  <SCORE.INTRA.POLAR>
0

>  <SCORE.INTRA.POLAR.0>
0

>  <SCORE.INTRA.REPUL>
0

>  <SCORE.INTRA.REPUL.0>
0

>  <SCORE.INTRA.SOLV>
-1.25863

>  <SCORE.INTRA.SOLV.lig_0>
-48.4032

>  <SCORE.INTRA.VDW>
0.973543

>  <SCORE.INTRA.VDW.0>
-1.65238

>  <SCORE.INTRA.norm>
-1.08636

>  <SCORE.RESTR>
0

>  <SCORE.RESTR.CAVITY>
0

>  <SCORE.RESTR.norm>
0

>  <SCORE.SYSTEM>
0

>  <SCORE.SYSTEM.CONST>
0

>  <SCORE.SYSTEM.DIHEDRAL>
0

>  <SCORE.SYSTEM.SOLV>
0

>  <SCORE.SYSTEM.norm>
0

>  <SCORE.heavy>
13

>  <SCORE.norm>
-0.870886

>  <RMSD>
7.452

$$$$
ligand
 OpenBabel11021811473D
libRbt.so/2013.1/901 2013/11/27
 13 12  0  0  0  0  0  0  0  0999 V2000
   37.7621   32.4779   52.2026 O   0  0  0  0  0  0  0  0  0  0  0  0
   35.2624   32.0419   53.4882 O   0  0  0  0  0  0  0  0  0  0  0  0
   37.6438   31.4401   48.5527 P   0  0  1  0  0  0  0  0  0  0  0  0
   36.8962   32.7206   48.8027 O   0  5  0  0  0  0  0  0  0  0  0  0
   38.7304   31.1937   47.6299 O   0  0  0  0  0  0  0  0  0  0  0  0
   37.5740   30.6857   49.9772 O   0  0  0  0  0  0  0  0  0  0  0  0
   31.6519   32.7378   53.9067 O   0  0  0  0  0  0  0  0  0  0  0  0
   38.6885   30.6863   50.8956 C   0  0  0  0  0  0  0  0  0  0  0  0
   36.4569   32.2286   54.2720 C   0  0  0  0  0  0  0  0  0  0  0  0
   32.8444   32.2839   53.2422 C   0  0  0  0  0  0  0  0  0  0  0  0
   38.9222   32.0958   51.4593 C   0  0  0  0  0  0  0  0  0  0  0  0
   37.7014   31.7886   53.4662 C   0  0  0  0  0  0  0  0  0  0  0  0
   34.0782   32.5323   54.1412 C   0  0  0  0  0  0  0  0  0  0  0  0
  1 12  1  0  0  0  0
  1 11  1  0  0  0  0
  2 13  1  0  0  0  0
  2  9  1  0  0  0  0
  3  4  1  1  0  0  0
  3  5  2  0  0  0  0
  3  6  1  0  0  0  0
  6  8  1  0  0  0  0
  7 10  1  0  0  0  0
  8 11  1  0  0  0  0
  9 12  1  0  0  0  0
 10 13  1  0  0  0  0
M  CHG  1   4  -1
M  END
>  <CHROM.1>
178.97834529,-179.52812400,-100.89509681,68.06512051,62.89420084,-175.33114883
54.97494928,178.36350612,74.48468094,36.56219949,31.88152359,51.40396519
-0.83136410,-0.14416213,1.49761635

>  <Name>
ligand

>  <RI>
0

>  <Rbt.Current_Directory>
/home/itssahil/PROJECTS/Mol_Feturizer/New_Systems/rnas/3GS8

>  <Rbt.Executable>
rbdock ($Id: //depot/dev/client3/rdock/2013.1/src/exe/rbdock.cxx#4 $)

>  <Rbt.Library>
libRbt.so (2013.1, Build901 2013/11/27)

>  <Rbt.Parameter_File>
/export/apps/rDock/src/rDock_2013.1_src/data/scripts/dock_solv.prm

>  <Rbt.Receptor>
prm/pocket_docking_8.prm

>  <SCORE>
-11.1361

>  <SCORE.INTER>
2.10677

>  <SCORE.INTER.CONST>
1

>  <SCORE.INTER.POLAR>
0

>  <SCORE.INTER.ROT>
9

>  <SCORE.INTER.SOLV>
5.45273

>  <SCORE.INTER.VDW>
-10.0131

>  <SCORE.INTER.norm>
0.162059

>  <SCORE.INTRA>
-13.2428

>  <SCORE.INTRA.DIHEDRAL>
-29.7557

>  <SCORE.INTRA.DIHEDRAL.0>
31.9578

>  <SCORE.INTRA.POLAR>
0

>  <SCORE.INTRA.POLAR.0>
0

>  <SCORE.INTRA.REPUL>
0

>  <SCORE.INTRA.REPUL.0>
0

>  <SCORE.INTRA.SOLV>
1.0073

>  <SCORE.INTRA.SOLV.lig_0>
-48.4032

>  <SCORE.INTRA.VDW>
1.13135

>  <SCORE.INTRA.VDW.0>
-1.65238

>  <SCORE.INTRA.norm>
-1.01868

>  <SCORE.RESTR>
0

>  <SCORE.RESTR.CAVITY>
0

>  <SCORE.RESTR.norm>
0

>  <SCORE.SYSTEM>
0

>  <SCORE.SYSTEM.CONST>
0

>  <SCORE.SYSTEM.DIHEDRAL>
0

>  <SCORE.SYSTEM.SOLV>
0

>  <SCORE.SYSTEM.norm>
0

>  <SCORE.heavy>
13

>  <SCORE.norm>
-0.85662

>  <RMSD>
7.465

$$$$
ligand
 OpenBabel11021811473D
libRbt.so/2013.1/901 2013/11/27
 13 12  0  0  0  0  0  0  0  0999 V2000
   34.5070   31.4232   50.5795 O   0  0  0  0  0  0  0  0  0  0  0  0
   36.3006   31.5479   48.3227 O   0  0  0  0  0  0  0  0  0  0  0  0
   30.2350   32.1797   49.7155 P   0  0  1  0  0  0  0  0  0  0  0  0
   30.1735   33.1760   48.5909 O   0  5  0  0  0  0  0  0  0  0  0  0
   29.4278   30.9967   49.9198 O   0  0  0  0  0  0  0  0  0  0  0  0
   31.7861   32.2159   50.1585 O   0  0  0  0  0  0  0  0  0  0  0  0
   37.2694   30.8832   44.8132 O   0  0  0  0  0  0  0  0  0  0  0  0
   32.2458   31.5908   51.3765 C   0  0  0  0  0  0  0  0  0  0  0  0
   36.7550   31.1327   49.6254 C   0  0  0  0  0  0  0  0  0  0  0  0
   36.5252   31.4774   45.8915 C   0  0  0  0  0  0  0  0  0  0  0  0
   33.7144   31.9504   51.6463 C   0  0  0  0  0  0  0  0  0  0  0  0
   35.8925   31.7888   50.7287 C   0  0  0  0  0  0  0  0  0  0  0  0
   37.0607   30.9655   47.2492 C   0  0  0  0  0  0  0  0  0  0  0  0
  1 12  1  0  0  0  0
  1 11  1  0  0  0  0
  2 13  1  0  0  0  0
  2  9  1  0  0  0  0
  3  4  1  6  0  0  0
  3  5  2  0  0  0  0
  3  6  1  0  0  0  0
  6  8  1  0  0  0  0
  7 10  1  0  0  0  0
  8 11  1  0  0  0  0
  9 12  1  0  0  0  0
 10 13  1  0  0  0  0
M  CHG  1   4  -1
M  END
>  <CHROM.1>
176.06620000,-179.12037098,168.24944251,-171.90275114,-63.05722056,-179.73301274
59.36413214,-179.17797335,176.75485674,33.64831644,31.68763228,49.14980515
-0.43180653,-0.12706592,1.56041858

>  <Name>
ligand

>  <RI>
0

>  <Rbt.Current_Directory>
/home/itssahil/PROJECTS/Mol_Feturizer/New_Systems/rnas/3GS8

>  <Rbt.Executable>
rbdock ($Id: //depot/dev/client3/rdock/2013.1/src/exe/rbdock.cxx#4 $)

>  <Rbt.Library>
libRbt.so (2013.1, Build901 2013/11/27)

>  <Rbt.Parameter_File>
/export/apps/rDock/src/rDock_2013.1_src/data/scripts/dock_solv.prm

>  <Rbt.Receptor>
prm/pocket_docking_6.prm

>  <SCORE>
-15.1951

>  <SCORE.INTER>
1.09825

>  <SCORE.INTER.CONST>
1

>  <SCORE.INTER.POLAR>
0

>  <SCORE.INTER.ROT>
9

>  <SCORE.INTER.SOLV>
9.7146

>  <SCORE.INTER.VDW>
-12.106

>  <SCORE.INTER.norm>
0.084481

>  <SCORE.INTRA>
-16.2933

>  <SCORE.INTRA.DIHEDRAL>
-31.1702

>  <SCORE.INTRA.DIHEDRAL.0>
31.9578

>  <SCORE.INTRA.POLAR>
0

>  <SCORE.INTRA.POLAR.0>
0

>  <SCORE.INTRA.REPUL>
0

>  <SCORE.INTRA.REPUL.0>
0

>  <SCORE.INTRA.SOLV>
-1.74417

>  <SCORE.INTRA.SOLV.lig_0>
-48.4032

>  <SCORE.INTRA.VDW>
0.163827

>  <SCORE.INTRA.VDW.0>
-1.65238

>  <SCORE.INTRA.norm>
-1.25333

>  <SCORE.RESTR>
0

>  <SCORE.RESTR.CAVITY>
0

>  <SCORE.RESTR.norm>
0

>  <SCORE.SYSTEM>
0

>  <SCORE.SYSTEM.CONST>
0

>  <SCORE.SYSTEM.DIHEDRAL>
0

>  <SCORE.SYSTEM.SOLV>
0

>  <SCORE.SYSTEM.norm>
0

>  <SCORE.heavy>
13

>  <SCORE.norm>
-1.16885

>  <RMSD>
7.467

$$$$
ligand
 OpenBabel11021811473D
libRbt.so/2013.1/901 2013/11/27
 13 12  0  0  0  0  0  0  0  0999 V2000
   33.6636   32.3328   44.6844 O   0  0  0  0  0  0  0  0  0  0  0  0
   36.5065   32.0264   44.8988 O   0  0  0  0  0  0  0  0  0  0  0  0
   29.2012   34.3731   45.9681 P   0  0  1  0  0  0  0  0  0  0  0  0
   29.8633   35.5871   46.5587 O   0  5  0  0  0  0  0  0  0  0  0  0
   27.7913   34.1227   45.7629 O   0  0  0  0  0  0  0  0  0  0  0  0
   30.3052   33.8161   44.9316 O   0  0  0  0  0  0  0  0  0  0  0  0
   36.5389   31.5767   47.7152 O   0  0  0  0  0  0  0  0  0  0  0  0
   31.6041   33.3636   45.3715 C   0  0  0  0  0  0  0  0  0  0  0  0
   35.7041   31.0412   44.2193 C   0  0  0  0  0  0  0  0  0  0  0  0
   37.2278   30.6925   46.8135 C   0  0  0  0  0  0  0  0  0  0  0  0
   32.4214   32.8336   44.1840 C   0  0  0  0  0  0  0  0  0  0  0  0
   34.4269   31.6949   43.6423 C   0  0  0  0  0  0  0  0  0  0  0  0
   37.6618   31.4633   45.5448 C   0  0  0  0  0  0  0  0  0  0  0  0
  1 12  1  0  0  0  0
  1 11  1  0  0  0  0
  2 13  1  0  0  0  0
  2  9  1  0  0  0  0
  3  4  1  6  0  0  0
  3  5  2  0  0  0  0
  3  6  1  0  0  0  0
  6  8  1  0  0  0  0
  7 10  1  0  0  0  0
  8 11  1  0  0  0  0
  9 12  1  0  0  0  0
 10 13  1  0  0  0  0
M  CHG  1   4  -1
M  END
>  <CHROM.1>
-174.65895332,-73.73398821,62.31640584,177.55239289,-176.85516320,175.65344654
-57.43983412,-58.70079783,174.13972923,32.92412859,32.85310195,45.47201813
0.10835228,0.37511515,-1.82119905

>  <Name>
ligand

>  <RI>
0

>  <Rbt.Current_Directory>
/home/itssahil/PROJECTS/Mol_Feturizer/New_Systems/rnas/3GS8

>  <Rbt.Executable>
rbdock ($Id: //depot/dev/client3/rdock/2013.1/src/exe/rbdock.cxx#4 $)

>  <Rbt.Library>
libRbt.so (2013.1, Build901 2013/11/27)

>  <Rbt.Parameter_File>
/export/apps/rDock/src/rDock_2013.1_src/data/scripts/dock_solv.prm

>  <Rbt.Receptor>
prm/pocket_docking_5.prm

>  <SCORE>
-11.577

>  <SCORE.INTER>
3.00915

>  <SCORE.INTER.CONST>
1

>  <SCORE.INTER.POLAR>
0

>  <SCORE.INTER.ROT>
9

>  <SCORE.INTER.SOLV>
7.89755

>  <SCORE.INTER.VDW>
-10.2264

>  <SCORE.INTER.norm>
0.231473

>  <SCORE.INTRA>
-14.5861

>  <SCORE.INTRA.DIHEDRAL>
-30.0537

>  <SCORE.INTRA.DIHEDRAL.0>
31.9578

>  <SCORE.INTRA.POLAR>
0

>  <SCORE.INTRA.POLAR.0>
0

>  <SCORE.INTRA.REPUL>
0

>  <SCORE.INTRA.REPUL.0>
0

>  <SCORE.INTRA.SOLV>
-1.25547

>  <SCORE.INTRA.SOLV.lig_0>
-48.4032

>  <SCORE.INTRA.VDW>
1.06844

>  <SCORE.INTRA.VDW.0>
-1.65238

>  <SCORE.INTRA.norm>
-1.12201

>  <SCORE.RESTR>
0

>  <SCORE.RESTR.CAVITY>
0

>  <SCORE.RESTR.norm>
0

>  <SCORE.SYSTEM>
0

>  <SCORE.SYSTEM.CONST>
0

>  <SCORE.SYSTEM.DIHEDRAL>
0

>  <SCORE.SYSTEM.SOLV>
0

>  <SCORE.SYSTEM.norm>
0

>  <SCORE.heavy>
13

>  <SCORE.norm>
-0.890537

>  <RMSD>
7.469

$$$$
ligand
 OpenBabel11021811473D
libRbt.so/2013.1/901 2013/11/27
 13 12  0  0  0  0  0  0  0  0999 V2000
   33.9181   32.4187   44.6598 O   0  0  0  0  0  0  0  0  0  0  0  0
   36.2181   30.9413   45.5613 O   0  0  0  0  0  0  0  0  0  0  0  0
   29.2962   33.8509   46.1694 P   0  0  1  0  0  0  0  0  0  0  0  0
   29.3235   32.9820   47.3963 O   0  5  0  0  0  0  0  0  0  0  0  0
   29.0304   35.2696   46.0727 O   0  0  0  0  0  0  0  0  0  0  0  0
   30.3514   33.1325   45.1827 O   0  0  0  0  0  0  0  0  0  0  0  0
   36.7337   31.1408   48.3637 O   0  0  0  0  0  0  0  0  0  0  0  0
   31.7774   33.2335   45.3875 C   0  0  0  0  0  0  0  0  0  0  0  0
   36.1411   31.4628   44.2204 C   0  0  0  0  0  0  0  0  0  0  0  0
   37.5571   30.3271   47.5096 C   0  0  0  0  0  0  0  0  0  0  0  0
   32.5349   32.4573   44.3001 C   0  0  0  0  0  0  0  0  0  0  0  0
   34.6655   31.5676   43.7695 C   0  0  0  0  0  0  0  0  0  0  0  0
   37.5615   30.9027   46.0740 C   0  0  0  0  0  0  0  0  0  0  0  0
  1 12  1  0  0  0  0
  1 11  1  0  0  0  0
  2 13  1  0  0  0  0
  2  9  1  0  0  0  0
  3  4  1  1  0  0  0
  3  5  2  0  0  0  0
  3  6  1  0  0  0  0
  6  8  1  0  0  0  0
  7 10  1  0  0  0  0
  8 11  1  0  0  0  0
  9 12  1  0  0  0  0
 10 13  1  0  0  0  0
M  CHG  1   4  -1
M  END
>  <CHROM.1>
-176.43906472,-179.75983939,-74.95828391,-179.88027279,-171.35984768,-176.09597725
58.62017719,-59.12818163,172.98385967,33.08590594,32.42980343,45.80370221
-0.03555647,0.38294493,-1.51424406

>  <Name>
ligand

>  <RI>
0

>  <Rbt.Current_Directory>
/home/itssahil/PROJECTS/Mol_Feturizer/New_Systems/rnas/3GS8

>  <Rbt.Executable>
rbdock ($Id: //depot/dev/client3/rdock/2013.1/src/exe/rbdock.cxx#4 $)

>  <Rbt.Library>
libRbt.so (2013.1, Build901 2013/11/27)

>  <Rbt.Parameter_File>
/export/apps/rDock/src/rDock_2013.1_src/data/scripts/dock_solv.prm

>  <Rbt.Receptor>
prm/pocket_docking_5.prm

>  <SCORE>
-14.3223

>  <SCORE.INTER>
1.61431

>  <SCORE.INTER.CONST>
1

>  <SCORE.INTER.POLAR>
0

>  <SCORE.INTER.ROT>
9

>  <SCORE.INTER.SOLV>
9.66443

>  <SCORE.INTER.VDW>
-11.7453

>  <SCORE.INTER.norm>
0.124178

>  <SCORE.INTRA>
-15.9366

>  <SCORE.INTRA.DIHEDRAL>
-31.0092

>  <SCORE.INTRA.DIHEDRAL.0>
31.9578

>  <SCORE.INTRA.POLAR>
0

>  <SCORE.INTRA.POLAR.0>
0

>  <SCORE.INTRA.REPUL>
0

>  <SCORE.INTRA.REPUL.0>
0

>  <SCORE.INTRA.SOLV>
-1.26172

>  <SCORE.INTRA.SOLV.lig_0>
-48.4032

>  <SCORE.INTRA.VDW>
0.198827

>  <SCORE.INTRA.VDW.0>
-1.65238

>  <SCORE.INTRA.norm>
-1.22589

>  <SCORE.RESTR>
0

>  <SCORE.RESTR.CAVITY>
0

>  <SCORE.RESTR.norm>
0

>  <SCORE.SYSTEM>
0

>  <SCORE.SYSTEM.CONST>
0

>  <SCORE.SYSTEM.DIHEDRAL>
0

>  <SCORE.SYSTEM.SOLV>
0

>  <SCORE.SYSTEM.norm>
0

>  <SCORE.heavy>
13

>  <SCORE.norm>
-1.10172

>  <RMSD>
7.470

$$$$
ligand
 OpenBabel11021811473D
libRbt.so/2013.1/901 2013/11/27
 13 12  0  0  0  0  0  0  0  0999 V2000
   33.9096   32.4112   44.6372 O   0  0  0  0  0  0  0  0  0  0  0  0
   36.2436   30.9378   45.5087 O   0  0  0  0  0  0  0  0  0  0  0  0
   29.3103   33.8453   46.2152 P   0  0  1  0  0  0  0  0  0  0  0  0
   29.3827   33.0349   47.4797 O   0  5  0  0  0  0  0  0  0  0  0  0
   29.0216   35.2544   46.0603 O   0  0  0  0  0  0  0  0  0  0  0  0
   30.3492   33.0957   45.2343 O   0  0  0  0  0  0  0  0  0  0  0  0
   36.7687   31.1759   48.3100 O   0  0  0  0  0  0  0  0  0  0  0  0
   31.7786   33.2198   45.3994 C   0  0  0  0  0  0  0  0  0  0  0  0
   36.1291   31.4602   44.1708 C   0  0  0  0  0  0  0  0  0  0  0  0
   37.6249   30.4024   47.4507 C   0  0  0  0  0  0  0  0  0  0  0  0
   32.5180   32.4298   44.3094 C   0  0  0  0  0  0  0  0  0  0  0  0
   34.6426   31.5421   43.7523 C   0  0  0  0  0  0  0  0  0  0  0  0
   37.5897   30.9749   46.0143 C   0  0  0  0  0  0  0  0  0  0  0  0
  1 12  1  0  0  0  0
  1 11  1  0  0  0  0
  2 13  1  0  0  0  0
  2  9  1  0  0  0  0
  3  4  1  1  0  0  0
  3  5  2  0  0  0  0
  3  6  1  0  0  0  0
  6  8  1  0  0  0  0
  7 10  1  0  0  0  0
  8 11  1  0  0  0  0
  9 12  1  0  0  0  0
 10 13  1  0  0  0  0
M  CHG  1   4  -1
M  END
>  <CHROM.1>
-176.42776425,179.85003098,-74.65371788,-178.65128152,-171.05945381,-173.50009758
60.31459151,-59.49731454,172.54198401,33.09858412,32.43608070,45.79906400
-0.01493973,0.37906249,-1.53685139

>  <Name>
ligand

>  <RI>
0

>  <Rbt.Current_Directory>
/home/itssahil/PROJECTS/Mol_Feturizer/New_Systems/rnas/3GS8

>  <Rbt.Executable>
rbdock ($Id: //depot/dev/client3/rdock/2013.1/src/exe/rbdock.cxx#4 $)

>  <Rbt.Library>
libRbt.so (2013.1, Build901 2013/11/27)

>  <Rbt.Parameter_File>
/export/apps/rDock/src/rDock_2013.1_src/data/scripts/dock_solv.prm

>  <Rbt.Receptor>
prm/pocket_docking_5.prm

>  <SCORE>
-14.2019

>  <SCORE.INTER>
1.65021

>  <SCORE.INTER.CONST>
1

>  <SCORE.INTER.POLAR>
0

>  <SCORE.INTER.ROT>
9

>  <SCORE.INTER.SOLV>
9.32054

>  <SCORE.INTER.VDW>
-11.6067

>  <SCORE.INTER.norm>
0.126939

>  <SCORE.INTRA>
-15.8521

>  <SCORE.INTRA.DIHEDRAL>
-30.8264

>  <SCORE.INTRA.DIHEDRAL.0>
31.9578

>  <SCORE.INTRA.POLAR>
0

>  <SCORE.INTRA.POLAR.0>
0

>  <SCORE.INTRA.REPUL>
0

>  <SCORE.INTRA.REPUL.0>
0

>  <SCORE.INTRA.SOLV>
-1.26803

>  <SCORE.INTRA.SOLV.lig_0>
-48.4032

>  <SCORE.INTRA.VDW>
0.195106

>  <SCORE.INTRA.VDW.0>
-1.65238

>  <SCORE.INTRA.norm>
-1.21939

>  <SCORE.RESTR>
0

>  <SCORE.RESTR.CAVITY>
0

>  <SCORE.RESTR.norm>
0

>  <SCORE.SYSTEM>
0

>  <SCORE.SYSTEM.CONST>
0

>  <SCORE.SYSTEM.DIHEDRAL>
0

>  <SCORE.SYSTEM.SOLV>
0

>  <SCORE.SYSTEM.norm>
0

>  <SCORE.heavy>
13

>  <SCORE.norm>
-1.09245

>  <RMSD>
7.477

$$$$
ligand
 OpenBabel11021811473D
libRbt.so/2013.1/901 2013/11/27
 13 12  0  0  0  0  0  0  0  0999 V2000
   37.3216   30.3345   46.5863 O   0  0  0  0  0  0  0  0  0  0  0  0
   36.8239   31.1538   50.1779 O   0  0  0  0  0  0  0  0  0  0  0  0
   35.0020   30.8208   42.8311 P   0  0  1  0  0  0  0  0  0  0  0  0
   34.9247   29.3390   42.5877 O   0  5  0  0  0  0  0  0  0  0  0  0
   34.1236   31.8631   42.3465 O   0  0  0  0  0  0  0  0  0  0  0  0
   35.6899   30.9220   44.2870 O   0  0  0  0  0  0  0  0  0  0  0  0
   37.4126   32.6211   52.5845 O   0  0  0  0  0  0  0  0  0  0  0  0
   37.0336   31.4215   44.4622 C   0  0  0  0  0  0  0  0  0  0  0  0
   36.5032   31.1038   48.7742 C   0  0  0  0  0  0  0  0  0  0  0  0
   36.2283   31.8152   52.4525 C   0  0  0  0  0  0  0  0  0  0  0  0
   37.3466   31.6163   45.9532 C   0  0  0  0  0  0  0  0  0  0  0  0
   37.6534   30.4366   47.9846 C   0  0  0  0  0  0  0  0  0  0  0  0
   35.7880   31.7600   50.9708 C   0  0  0  0  0  0  0  0  0  0  0  0
  1 12  1  0  0  0  0
  1 11  1  0  0  0  0
  2 13  1  0  0  0  0
  2  9  1  0  0  0  0
  3  4  1  1  0  0  0
  3  5  2  0  0  0  0
  3  6  1  0  0  0  0
  6  8  1  0  0  0  0
  7 10  1  0  0  0  0
  8 11  1  0  0  0  0
  9 12  1  0  0  0  0
 10 13  1  0  0  0  0
M  CHG  1   4  -1
M  END
>  <CHROM.1>
71.51890372,-178.21131864,110.31617911,171.00169788,64.53537279,-179.74086466
177.78928815,61.50141975,178.01781527,36.17853149,31.13446371,46.69966608
-1.36587052,0.35650766,-1.76096219

>  <Name>
ligand

>  <RI>
0

>  <Rbt.Current_Directory>
/home/itssahil/PROJECTS/Mol_Feturizer/New_Systems/rnas/3GS8

>  <Rbt.Executable>
rbdock ($Id: //depot/dev/client3/rdock/2013.1/src/exe/rbdock.cxx#4 $)

>  <Rbt.Library>
libRbt.so (2013.1, Build901 2013/11/27)

>  <Rbt.Parameter_File>
/export/apps/rDock/src/rDock_2013.1_src/data/scripts/dock_solv.prm

>  <Rbt.Receptor>
prm/pocket_docking_8.prm

>  <SCORE>
-13.1125

>  <SCORE.INTER>
1.27113

>  <SCORE.INTER.CONST>
1

>  <SCORE.INTER.POLAR>
0

>  <SCORE.INTER.ROT>
9

>  <SCORE.INTER.SOLV>
12.1074

>  <SCORE.INTER.VDW>
-12.7884

>  <SCORE.INTER.norm>
0.0977793

>  <SCORE.INTRA>
-14.3836

>  <SCORE.INTRA.DIHEDRAL>
-29.5048

>  <SCORE.INTRA.DIHEDRAL.0>
31.9578

>  <SCORE.INTRA.POLAR>
0

>  <SCORE.INTRA.POLAR.0>
0

>  <SCORE.INTRA.REPUL>
0

>  <SCORE.INTRA.REPUL.0>
0

>  <SCORE.INTRA.SOLV>
-1.68728

>  <SCORE.INTRA.SOLV.lig_0>
-48.4032

>  <SCORE.INTRA.VDW>
1.21239

>  <SCORE.INTRA.VDW.0>
-1.65238

>  <SCORE.INTRA.norm>
-1.10643

>  <SCORE.RESTR>
0

>  <SCORE.RESTR.CAVITY>
0

>  <SCORE.RESTR.norm>
0

>  <SCORE.SYSTEM>
0

>  <SCORE.SYSTEM.CONST>
0

>  <SCORE.SYSTEM.DIHEDRAL>
0

>  <SCORE.SYSTEM.SOLV>
0

>  <SCORE.SYSTEM.norm>
0

>  <SCORE.heavy>
13

>  <SCORE.norm>
-1.00865

>  <RMSD>
7.481

$$$$
ligand
 OpenBabel11021811473D
libRbt.so/2013.1/901 2013/11/27
 13 12  0  0  0  0  0  0  0  0999 V2000
   34.7497   31.4274   50.4111 O   0  0  0  0  0  0  0  0  0  0  0  0
   36.3728   31.5443   48.0414 O   0  0  0  0  0  0  0  0  0  0  0  0
   30.4702   32.4122   49.8330 P   0  0  1  0  0  0  0  0  0  0  0  0
   30.3769   33.4401   48.7395 O   0  5  0  0  0  0  0  0  0  0  0  0
   29.6462   31.2423   50.0460 O   0  0  0  0  0  0  0  0  0  0  0  0
   32.0415   32.4016   50.1989 O   0  0  0  0  0  0  0  0  0  0  0  0
   36.9859   30.8775   44.4530 O   0  0  0  0  0  0  0  0  0  0  0  0
   32.5520   31.6907   51.3477 C   0  0  0  0  0  0  0  0  0  0  0  0
   36.9128   31.0798   49.2938 C   0  0  0  0  0  0  0  0  0  0  0  0
   36.3375   31.4535   45.6008 C   0  0  0  0  0  0  0  0  0  0  0  0
   34.0505   31.9712   51.5335 C   0  0  0  0  0  0  0  0  0  0  0  0
   36.1571   31.7281   50.4771 C   0  0  0  0  0  0  0  0  0  0  0  0
   37.0208   30.9602   46.8977 C   0  0  0  0  0  0  0  0  0  0  0  0
  1 12  1  0  0  0  0
  1 11  1  0  0  0  0
  2 13  1  0  0  0  0
  2  9  1  0  0  0  0
  3  4  1  6  0  0  0
  3  5  2  0  0  0  0
  3  6  1  0  0  0  0
  6  8  1  0  0  0  0
  7 10  1  0  0  0  0
  8 11  1  0  0  0  0
  9 12  1  0  0  0  0
 10 13  1  0  0  0  0
M  CHG  1   4  -1
M  END
>  <CHROM.1>
177.36740959,177.12746501,170.63661351,-174.17161008,-65.11768615,-179.07378993
58.22085079,179.71742388,176.37735376,33.79211916,31.77257946,49.03873225
-0.50152509,-0.17320584,1.56290773

>  <Name>
ligand

>  <RI>
0

>  <Rbt.Current_Directory>
/home/itssahil/PROJECTS/Mol_Feturizer/New_Systems/rnas/3GS8

>  <Rbt.Executable>
rbdock ($Id: //depot/dev/client3/rdock/2013.1/src/exe/rbdock.cxx#4 $)

>  <Rbt.Library>
libRbt.so (2013.1, Build901 2013/11/27)

>  <Rbt.Parameter_File>
/export/apps/rDock/src/rDock_2013.1_src/data/scripts/dock_solv.prm

>  <Rbt.Receptor>
prm/pocket_docking_6.prm

>  <SCORE>
-15.1244

>  <SCORE.INTER>
1.19112

>  <SCORE.INTER.CONST>
1

>  <SCORE.INTER.POLAR>
0

>  <SCORE.INTER.ROT>
9

>  <SCORE.INTER.SOLV>
8.3766

>  <SCORE.INTER.VDW>
-11.5981

>  <SCORE.INTER.norm>
0.0916246

>  <SCORE.INTRA>
-16.3155

>  <SCORE.INTRA.DIHEDRAL>
-31.2198

>  <SCORE.INTRA.DIHEDRAL.0>
31.9578

>  <SCORE.INTRA.POLAR>
0

>  <SCORE.INTRA.POLAR.0>
0

>  <SCORE.INTRA.REPUL>
0

>  <SCORE.INTRA.REPUL.0>
0

>  <SCORE.INTRA.SOLV>
-1.73657

>  <SCORE.INTRA.SOLV.lig_0>
-48.4032

>  <SCORE.INTRA.VDW>
0.162643

>  <SCORE.INTRA.VDW.0>
-1.65238

>  <SCORE.INTRA.norm>
-1.25504

>  <SCORE.RESTR>
0

>  <SCORE.RESTR.CAVITY>
0

>  <SCORE.RESTR.norm>
0

>  <SCORE.SYSTEM>
0

>  <SCORE.SYSTEM.CONST>
0

>  <SCORE.SYSTEM.DIHEDRAL>
0

>  <SCORE.SYSTEM.SOLV>
0

>  <SCORE.SYSTEM.norm>
0

>  <SCORE.heavy>
13

>  <SCORE.norm>
-1.16342

>  <RMSD>
7.483

$$$$
ligand
 OpenBabel11021811473D
libRbt.so/2013.1/901 2013/11/27
 13 12  0  0  0  0  0  0  0  0999 V2000
   34.4104   32.1022   44.1865 O   0  0  0  0  0  0  0  0  0  0  0  0
   36.9178   30.5738   44.8243 O   0  0  0  0  0  0  0  0  0  0  0  0
   30.0157   34.1465   45.6838 P   0  0  1  0  0  0  0  0  0  0  0  0
   29.8708   33.4050   46.9838 O   0  5  0  0  0  0  0  0  0  0  0  0
   30.0064   35.5744   45.4521 O   0  0  0  0  0  0  0  0  0  0  0  0
   30.9416   33.1655   44.7986 O   0  0  0  0  0  0  0  0  0  0  0  0
   36.7699   31.6421   48.3641 O   0  0  0  0  0  0  0  0  0  0  0  0
   32.3802   33.1551   44.9252 C   0  0  0  0  0  0  0  0  0  0  0  0
   36.5864   31.1514   43.5467 C   0  0  0  0  0  0  0  0  0  0  0  0
   37.1019   30.7949   47.2499 C   0  0  0  0  0  0  0  0  0  0  0  0
   32.9997   32.1372   43.9563 C   0  0  0  0  0  0  0  0  0  0  0  0
   35.0548   31.1373   43.3326 C   0  0  0  0  0  0  0  0  0  0  0  0
   36.6387   31.4523   45.9287 C   0  0  0  0  0  0  0  0  0  0  0  0
  1 12  1  0  0  0  0
  1 11  1  0  0  0  0
  2 13  1  0  0  0  0
  2  9  1  0  0  0  0
  3  4  1  1  0  0  0
  3  5  2  0  0  0  0
  3  6  1  0  0  0  0
  6  8  1  0  0  0  0
  7 10  1  0  0  0  0
  8 11  1  0  0  0  0
  9 12  1  0  0  0  0
 10 13  1  0  0  0  0
M  CHG  1   4  -1
M  END
>  <CHROM.1>
177.55341068,-176.51264572,-82.72732327,-179.49358901,-176.11374443,-75.50415993
71.56773682,-177.37515149,178.44393246,33.47952191,32.50881309,45.37914758
0.06362789,0.44000567,-1.71088793

>  <Name>
ligand

>  <RI>
0

>  <Rbt.Current_Directory>
/home/itssahil/PROJECTS/Mol_Feturizer/New_Systems/rnas/3GS8

>  <Rbt.Executable>
rbdock ($Id: //depot/dev/client3/rdock/2013.1/src/exe/rbdock.cxx#4 $)

>  <Rbt.Library>
libRbt.so (2013.1, Build901 2013/11/27)

>  <Rbt.Parameter_File>
/export/apps/rDock/src/rDock_2013.1_src/data/scripts/dock_solv.prm

>  <Rbt.Receptor>
prm/pocket_docking_4.prm

>  <SCORE>
-11.861

>  <SCORE.INTER>
2.6553

>  <SCORE.INTER.CONST>
1

>  <SCORE.INTER.POLAR>
0

>  <SCORE.INTER.ROT>
9

>  <SCORE.INTER.SOLV>
9.17684

>  <SCORE.INTER.VDW>
-10.8887

>  <SCORE.INTER.norm>
0.204254

>  <SCORE.INTRA>
-14.5163

>  <SCORE.INTRA.DIHEDRAL>
-29.8505

>  <SCORE.INTRA.DIHEDRAL.0>
31.9578

>  <SCORE.INTRA.POLAR>
0

>  <SCORE.INTRA.POLAR.0>
0

>  <SCORE.INTRA.REPUL>
0

>  <SCORE.INTRA.REPUL.0>
0

>  <SCORE.INTRA.SOLV>
-1.39815

>  <SCORE.INTRA.SOLV.lig_0>
-48.4032

>  <SCORE.INTRA.VDW>
1.10797

>  <SCORE.INTRA.VDW.0>
-1.65238

>  <SCORE.INTRA.norm>
-1.11664

>  <SCORE.RESTR>
0

>  <SCORE.RESTR.CAVITY>
0

>  <SCORE.RESTR.norm>
0

>  <SCORE.SYSTEM>
0

>  <SCORE.SYSTEM.CONST>
0

>  <SCORE.SYSTEM.DIHEDRAL>
0

>  <SCORE.SYSTEM.SOLV>
0

>  <SCORE.SYSTEM.norm>
0

>  <SCORE.heavy>
13

>  <SCORE.norm>
-0.912387

>  <RMSD>
7.487

$$$$
ligand
 OpenBabel11021811473D
libRbt.so/2013.1/901 2013/11/27
 13 12  0  0  0  0  0  0  0  0999 V2000
   32.9478   32.7839   44.9105 O   0  0  0  0  0  0  0  0  0  0  0  0
   35.3909   31.4827   44.9075 O   0  0  0  0  0  0  0  0  0  0  0  0
   28.8026   33.0144   47.8182 P   0  0  1  0  0  0  0  0  0  0  0  0
   29.4211   34.1957   48.5133 O   0  5  0  0  0  0  0  0  0  0  0  0
   27.4563   32.4987   47.9379 O   0  0  0  0  0  0  0  0  0  0  0  0
   29.5960   32.9529   46.4146 O   0  0  0  0  0  0  0  0  0  0  0  0
   38.5780   30.5097   46.5113 O   0  0  0  0  0  0  0  0  0  0  0  0
   31.0373   33.0152   46.3502 C   0  0  0  0  0  0  0  0  0  0  0  0
   34.9929   32.1560   43.6975 C   0  0  0  0  0  0  0  0  0  0  0  0
   37.1648   30.7648   46.4254 C   0  0  0  0  0  0  0  0  0  0  0  0
   31.5199   32.8570   44.9008 C   0  0  0  0  0  0  0  0  0  0  0  0
   33.4546   32.3074   43.6489 C   0  0  0  0  0  0  0  0  0  0  0  0
   36.8180   31.3626   45.0417 C   0  0  0  0  0  0  0  0  0  0  0  0
  1 12  1  0  0  0  0
  1 11  1  0  0  0  0
  2 13  1  0  0  0  0
  2  9  1  0  0  0  0
  3  4  1  6  0  0  0
  3  5  2  0  0  0  0
  3  6  1  0  0  0  0
  6  8  1  0  0  0  0
  7 10  1  0  0  0  0
  8 11  1  0  0  0  0
  9 12  1  0  0  0  0
 10 13  1  0  0  0  0
M  CHG  1   4  -1
M  END
>  <CHROM.1>
-176.78569054,174.16573312,48.73618863,176.85908738,-173.96609211,-177.42267423
46.21763201,173.90290668,165.66669005,32.49912114,32.36323065,46.11454753
0.23270871,0.27255040,-1.42732834

>  <Name>
ligand

>  <RI>
0

>  <Rbt.Current_Directory>
/home/itssahil/PROJECTS/Mol_Feturizer/New_Systems/rnas/3GS8

>  <Rbt.Executable>
rbdock ($Id: //depot/dev/client3/rdock/2013.1/src/exe/rbdock.cxx#4 $)

>  <Rbt.Library>
libRbt.so (2013.1, Build901 2013/11/27)

>  <Rbt.Parameter_File>
/export/apps/rDock/src/rDock_2013.1_src/data/scripts/dock_solv.prm

>  <Rbt.Receptor>
prm/pocket_docking_4.prm

>  <SCORE>
-11.2438

>  <SCORE.INTER>
3.69855

>  <SCORE.INTER.CONST>
1

>  <SCORE.INTER.POLAR>
0

>  <SCORE.INTER.ROT>
9

>  <SCORE.INTER.SOLV>
11.4191

>  <SCORE.INTER.VDW>
-10.9407

>  <SCORE.INTER.norm>
0.284504

>  <SCORE.INTRA>
-14.9424

>  <SCORE.INTRA.DIHEDRAL>
-29.4269

>  <SCORE.INTRA.DIHEDRAL.0>
31.9578

>  <SCORE.INTRA.POLAR>
0

>  <SCORE.INTRA.POLAR.0>
0

>  <SCORE.INTRA.REPUL>
0

>  <SCORE.INTRA.REPUL.0>
0

>  <SCORE.INTRA.SOLV>
-1.55155

>  <SCORE.INTRA.SOLV.lig_0>
-48.4032

>  <SCORE.INTRA.VDW>
0.54686

>  <SCORE.INTRA.VDW.0>
-1.65238

>  <SCORE.INTRA.norm>
-1.14941

>  <SCORE.RESTR>
0

>  <SCORE.RESTR.CAVITY>
0

>  <SCORE.RESTR.norm>
0

>  <SCORE.SYSTEM>
0

>  <SCORE.SYSTEM.CONST>
0

>  <SCORE.SYSTEM.DIHEDRAL>
0

>  <SCORE.SYSTEM.SOLV>
0

>  <SCORE.SYSTEM.norm>
0

>  <SCORE.heavy>
13

>  <SCORE.norm>
-0.86491

>  <RMSD>
7.503

$$$$
ligand
 OpenBabel11021811473D
libRbt.so/2013.1/901 2013/11/27
 13 12  0  0  0  0  0  0  0  0999 V2000
   36.3956   31.5238   48.2772 O   0  0  0  0  0  0  0  0  0  0  0  0
   35.9197   30.9158   45.5086 O   0  0  0  0  0  0  0  0  0  0  0  0
   32.9122   32.9168   50.4989 P   0  0  1  0  0  0  0  0  0  0  0  0
   32.7195   32.4382   51.9113 O   0  5  0  0  0  0  0  0  0  0  0  0
   32.6665   34.2322   49.9492 O   0  0  0  0  0  0  0  0  0  0  0  0
   34.1284   32.0034   49.9606 O   0  0  0  0  0  0  0  0  0  0  0  0
   33.6234   32.0962   44.1615 O   0  0  0  0  0  0  0  0  0  0  0  0
   35.4899   32.2145   50.3935 C   0  0  0  0  0  0  0  0  0  0  0  0
   37.2584   30.9979   46.0350 C   0  0  0  0  0  0  0  0  0  0  0  0
   34.3948   31.0178   43.6032 C   0  0  0  0  0  0  0  0  0  0  0  0
   36.4402   31.2426   49.6784 C   0  0  0  0  0  0  0  0  0  0  0  0
   37.2655   30.6431   47.5402 C   0  0  0  0  0  0  0  0  0  0  0  0
   35.8616   31.1119   44.0847 C   0  0  0  0  0  0  0  0  0  0  0  0
  1 12  1  0  0  0  0
  1 11  1  0  0  0  0
  2 13  1  0  0  0  0
  2  9  1  0  0  0  0
  3  4  1  1  0  0  0
  3  5  2  0  0  0  0
  3  6  1  0  0  0  0
  6  8  1  0  0  0  0
  7 10  1  0  0  0  0
  8 11  1  0  0  0  0
  9 12  1  0  0  0  0
 10 13  1  0  0  0  0
M  CHG  1   4  -1
M  END
>  <CHROM.1>
-177.42611957,-179.63043673,-73.44684237,-177.64737338,62.97104289,-174.50698464
-58.18224799,64.83639910,-179.87183126,34.79497374,31.90910953,48.05781834
-1.18665311,-0.41873918,1.46111687

>  <Name>
ligand

>  <RI>
0

>  <Rbt.Current_Directory>
/home/itssahil/PROJECTS/Mol_Feturizer/New_Systems/rnas/3GS8

>  <Rbt.Executable>
rbdock ($Id: //depot/dev/client3/rdock/2013.1/src/exe/rbdock.cxx#4 $)

>  <Rbt.Library>
libRbt.so (2013.1, Build901 2013/11/27)

>  <Rbt.Parameter_File>
/export/apps/rDock/src/rDock_2013.1_src/data/scripts/dock_solv.prm

>  <Rbt.Receptor>
prm/pocket_docking_5.prm

>  <SCORE>
-15.3613

>  <SCORE.INTER>
0.808951

>  <SCORE.INTER.CONST>
1

>  <SCORE.INTER.POLAR>
0

>  <SCORE.INTER.ROT>
9

>  <SCORE.INTER.SOLV>
7.49127

>  <SCORE.INTER.VDW>
-11.5578

>  <SCORE.INTER.norm>
0.062227

>  <SCORE.INTRA>
-16.1703

>  <SCORE.INTRA.DIHEDRAL>
-31.3274

>  <SCORE.INTRA.DIHEDRAL.0>
31.9578

>  <SCORE.INTRA.POLAR>
0

>  <SCORE.INTRA.POLAR.0>
0

>  <SCORE.INTRA.REPUL>
0

>  <SCORE.INTRA.REPUL.0>
0

>  <SCORE.INTRA.SOLV>
-1.16803

>  <SCORE.INTRA.SOLV.lig_0>
-48.4032

>  <SCORE.INTRA.VDW>
0.0774324

>  <SCORE.INTRA.VDW.0>
-1.65238

>  <SCORE.INTRA.norm>
-1.24387

>  <SCORE.RESTR>
0

>  <SCORE.RESTR.CAVITY>
0

>  <SCORE.RESTR.norm>
0

>  <SCORE.SYSTEM>
0

>  <SCORE.SYSTEM.CONST>
0

>  <SCORE.SYSTEM.DIHEDRAL>
0

>  <SCORE.SYSTEM.SOLV>
0

>  <SCORE.SYSTEM.norm>
0

>  <SCORE.heavy>
13

>  <SCORE.norm>
-1.18164

>  <RMSD>
7.507

$$$$
ligand
 OpenBabel11021811473D
libRbt.so/2013.1/901 2013/11/27
 13 12  0  0  0  0  0  0  0  0999 V2000
   36.2174   31.4577   48.2938 O   0  0  0  0  0  0  0  0  0  0  0  0
   35.9495   30.8415   45.5296 O   0  0  0  0  0  0  0  0  0  0  0  0
   33.8419   34.2746   50.5903 P   0  0  1  0  0  0  0  0  0  0  0  0
   34.3838   35.6549   50.3413 O   0  5  0  0  0  0  0  0  0  0  0  0
   32.4640   33.8340   50.6055 O   0  0  0  0  0  0  0  0  0  0  0  0
   35.0180   33.3114   50.0499 O   0  0  0  0  0  0  0  0  0  0  0  0
   33.5903   31.8379   44.1101 O   0  0  0  0  0  0  0  0  0  0  0  0
   35.0402   31.8973   50.3424 C   0  0  0  0  0  0  0  0  0  0  0  0
   37.2549   31.0556   46.1006 C   0  0  0  0  0  0  0  0  0  0  0  0
   34.4772   30.8365   43.5807 C   0  0  0  0  0  0  0  0  0  0  0  0
   36.2699   31.2338   49.7049 C   0  0  0  0  0  0  0  0  0  0  0  0
   37.2434   30.7136   47.6087 C   0  0  0  0  0  0  0  0  0  0  0  0
   35.9122   31.0676   44.1095 C   0  0  0  0  0  0  0  0  0  0  0  0
  1 12  1  0  0  0  0
  1 11  1  0  0  0  0
  2 13  1  0  0  0  0
  2  9  1  0  0  0  0
  3  4  1  6  0  0  0
  3  5  2  0  0  0  0
  3  6  1  0  0  0  0
  6  8  1  0  0  0  0
  7 10  1  0  0  0  0
  8 11  1  0  0  0  0
  9 12  1  0  0  0  0
 10 13  1  0  0  0  0
M  CHG  1   4  -1
M  END
>  <CHROM.1>
-175.17102553,-179.22007435,167.04068922,-179.92969768,-58.57947950,-176.58981861
-54.98674544,66.43071804,-172.33266552,35.06172385,32.36268605,48.01512732
-1.28617763,-0.62320877,1.25189981

>  <Name>
ligand

>  <RI>
0

>  <Rbt.Current_Directory>
/home/itssahil/PROJECTS/Mol_Feturizer/New_Systems/rnas/3GS8

>  <Rbt.Executable>
rbdock ($Id: //depot/dev/client3/rdock/2013.1/src/exe/rbdock.cxx#4 $)

>  <Rbt.Library>
libRbt.so (2013.1, Build901 2013/11/27)

>  <Rbt.Parameter_File>
/export/apps/rDock/src/rDock_2013.1_src/data/scripts/dock_solv.prm

>  <Rbt.Receptor>
prm/pocket_docking_6.prm

>  <SCORE>
-14.1149

>  <SCORE.INTER>
1.96968

>  <SCORE.INTER.CONST>
1

>  <SCORE.INTER.POLAR>
0

>  <SCORE.INTER.ROT>
9

>  <SCORE.INTER.SOLV>
6.09558

>  <SCORE.INTER.VDW>
-10.3187

>  <SCORE.INTER.norm>
0.151514

>  <SCORE.INTRA>
-16.0846

>  <SCORE.INTRA.DIHEDRAL>
-30.9494

>  <SCORE.INTRA.DIHEDRAL.0>
31.9578

>  <SCORE.INTRA.POLAR>
0

>  <SCORE.INTRA.POLAR.0>
0

>  <SCORE.INTRA.REPUL>
0

>  <SCORE.INTRA.REPUL.0>
0

>  <SCORE.INTRA.SOLV>
-1.43136

>  <SCORE.INTRA.SOLV.lig_0>
-48.4032

>  <SCORE.INTRA.VDW>
0.105775

>  <SCORE.INTRA.VDW.0>
-1.65238

>  <SCORE.INTRA.norm>
-1.23728

>  <SCORE.RESTR>
0

>  <SCORE.RESTR.CAVITY>
0

>  <SCORE.RESTR.norm>
0

>  <SCORE.SYSTEM>
0

>  <SCORE.SYSTEM.CONST>
0

>  <SCORE.SYSTEM.DIHEDRAL>
0

>  <SCORE.SYSTEM.SOLV>
0

>  <SCORE.SYSTEM.norm>
0

>  <SCORE.heavy>
13

>  <SCORE.norm>
-1.08576

>  <RMSD>
7.529

$$$$
ligand
 OpenBabel11021811473D
libRbt.so/2013.1/901 2013/11/27
 13 12  0  0  0  0  0  0  0  0999 V2000
   35.0614   31.4324   50.0980 O   0  0  0  0  0  0  0  0  0  0  0  0
   36.4388   31.6075   47.5960 O   0  0  0  0  0  0  0  0  0  0  0  0
   30.9089   32.9283   50.0360 P   0  0  1  0  0  0  0  0  0  0  0  0
   30.3976   33.3172   51.3956 O   0  5  0  0  0  0  0  0  0  0  0  0
   30.3873   33.2919   48.7366 O   0  0  0  0  0  0  0  0  0  0  0  0
   32.4938   32.7432   50.2749 O   0  0  0  0  0  0  0  0  0  0  0  0
   36.5220   31.2063   43.9179 O   0  0  0  0  0  0  0  0  0  0  0  0
   33.0135   31.8506   51.2843 C   0  0  0  0  0  0  0  0  0  0  0  0
   37.0469   30.9551   48.7276 C   0  0  0  0  0  0  0  0  0  0  0  0
   36.1064   31.7558   45.1808 C   0  0  0  0  0  0  0  0  0  0  0  0
   34.5464   31.9289   51.3360 C   0  0  0  0  0  0  0  0  0  0  0  0
   36.4967   31.5456   50.0468 C   0  0  0  0  0  0  0  0  0  0  0  0
   36.8717   31.0672   46.3351 C   0  0  0  0  0  0  0  0  0  0  0  0
  1 12  1  0  0  0  0
  1 11  1  0  0  0  0
  2 13  1  0  0  0  0
  2  9  1  0  0  0  0
  3  4  1  1  0  0  0
  3  5  2  0  0  0  0
  3  6  1  0  0  0  0
  6  8  1  0  0  0  0
  7 10  1  0  0  0  0
  8 11  1  0  0  0  0
  9 12  1  0  0  0  0
 10 13  1  0  0  0  0
M  CHG  1   4  -1
M  END
>  <CHROM.1>
177.77249888,176.30424509,55.25150147,-177.11242940,-65.35863411,-177.76247703
56.80872732,-179.21233313,176.79268589,34.01177184,32.06485875,48.92946279
-0.63590766,-0.31151995,1.60228178

>  <Name>
ligand

>  <RI>
0

>  <Rbt.Current_Directory>
/home/itssahil/PROJECTS/Mol_Feturizer/New_Systems/rnas/3GS8

>  <Rbt.Executable>
rbdock ($Id: //depot/dev/client3/rdock/2013.1/src/exe/rbdock.cxx#4 $)

>  <Rbt.Library>
libRbt.so (2013.1, Build901 2013/11/27)

>  <Rbt.Parameter_File>
/export/apps/rDock/src/rDock_2013.1_src/data/scripts/dock_solv.prm

>  <Rbt.Receptor>
prm/pocket_docking_5.prm

>  <SCORE>
-14.5063

>  <SCORE.INTER>
1.54615

>  <SCORE.INTER.CONST>
1

>  <SCORE.INTER.POLAR>
0

>  <SCORE.INTER.ROT>
9

>  <SCORE.INTER.SOLV>
5.81684

>  <SCORE.INTER.VDW>
-10.5082

>  <SCORE.INTER.norm>
0.118934

>  <SCORE.INTRA>
-16.0524

>  <SCORE.INTRA.DIHEDRAL>
-31.2242

>  <SCORE.INTRA.DIHEDRAL.0>
31.9578

>  <SCORE.INTRA.POLAR>
0

>  <SCORE.INTRA.POLAR.0>
0

>  <SCORE.INTRA.REPUL>
0

>  <SCORE.INTRA.REPUL.0>
0

>  <SCORE.INTRA.SOLV>
-1.516

>  <SCORE.INTRA.SOLV.lig_0>
-48.4032

>  <SCORE.INTRA.VDW>
0.317671

>  <SCORE.INTRA.VDW.0>
-1.65238

>  <SCORE.INTRA.norm>
-1.2348

>  <SCORE.RESTR>
0

>  <SCORE.RESTR.CAVITY>
0

>  <SCORE.RESTR.norm>
0

>  <SCORE.SYSTEM>
0

>  <SCORE.SYSTEM.CONST>
0

>  <SCORE.SYSTEM.DIHEDRAL>
0

>  <SCORE.SYSTEM.SOLV>
0

>  <SCORE.SYSTEM.norm>
0

>  <SCORE.heavy>
13

>  <SCORE.norm>
-1.11587

>  <RMSD>
7.533

$$$$
ligand
 OpenBabel11021811473D
libRbt.so/2013.1/901 2013/11/27
 13 12  0  0  0  0  0  0  0  0999 V2000
   33.2505   33.1405   44.1974 O   0  0  0  0  0  0  0  0  0  0  0  0
   35.3410   31.3529   45.0028 O   0  0  0  0  0  0  0  0  0  0  0  0
   28.9503   32.9229   46.8786 P   0  0  1  0  0  0  0  0  0  0  0  0
   29.7722   33.2875   48.0838 O   0  5  0  0  0  0  0  0  0  0  0  0
   27.5105   32.8611   46.7518 O   0  0  0  0  0  0  0  0  0  0  0  0
   29.8755   33.3926   45.6430 O   0  0  0  0  0  0  0  0  0  0  0  0
   38.6252   30.6294   46.5480 O   0  0  0  0  0  0  0  0  0  0  0  0
   31.2355   32.9315   45.4905 C   0  0  0  0  0  0  0  0  0  0  0  0
   34.7758   31.2821   43.6794 C   0  0  0  0  0  0  0  0  0  0  0  0
   37.2366   31.0029   46.5028 C   0  0  0  0  0  0  0  0  0  0  0  0
   31.8985   33.5987   44.2764 C   0  0  0  0  0  0  0  0  0  0  0  0
   33.3162   31.7931   43.6914 C   0  0  0  0  0  0  0  0  0  0  0  0
   36.7332   30.9929   45.0404 C   0  0  0  0  0  0  0  0  0  0  0  0
  1 12  1  0  0  0  0
  1 11  1  0  0  0  0
  2 13  1  0  0  0  0
  2  9  1  0  0  0  0
  3  4  1  1  0  0  0
  3  5  2  0  0  0  0
  3  6  1  0  0  0  0
  6  8  1  0  0  0  0
  7 10  1  0  0  0  0
  8 11  1  0  0  0  0
  9 12  1  0  0  0  0
 10 13  1  0  0  0  0
M  CHG  1   4  -1
M  END
>  <CHROM.1>
-177.06030814,-176.23553693,55.00617597,-176.80314434,178.20872413,-175.28071462
57.30427813,179.38340884,75.46071053,32.60925033,32.31077857,45.65982266
0.11035069,0.27261783,-1.42602522

>  <Name>
ligand

>  <RI>
0

>  <Rbt.Current_Directory>
/home/itssahil/PROJECTS/Mol_Feturizer/New_Systems/rnas/3GS8

>  <Rbt.Executable>
rbdock ($Id: //depot/dev/client3/rdock/2013.1/src/exe/rbdock.cxx#4 $)

>  <Rbt.Library>
libRbt.so (2013.1, Build901 2013/11/27)

>  <Rbt.Parameter_File>
/export/apps/rDock/src/rDock_2013.1_src/data/scripts/dock_solv.prm

>  <Rbt.Receptor>
prm/pocket_docking_6.prm

>  <SCORE>
-13.4461

>  <SCORE.INTER>
0.898225

>  <SCORE.INTER.CONST>
1

>  <SCORE.INTER.POLAR>
0

>  <SCORE.INTER.ROT>
9

>  <SCORE.INTER.SOLV>
10.2393

>  <SCORE.INTER.VDW>
-12.4143

>  <SCORE.INTER.norm>
0.0690943

>  <SCORE.INTRA>
-14.3443

>  <SCORE.INTRA.DIHEDRAL>
-30.1553

>  <SCORE.INTRA.DIHEDRAL.0>
31.9578

>  <SCORE.INTRA.POLAR>
0

>  <SCORE.INTRA.POLAR.0>
0

>  <SCORE.INTRA.REPUL>
0

>  <SCORE.INTRA.REPUL.0>
0

>  <SCORE.INTRA.SOLV>
-1.56786

>  <SCORE.INTRA.SOLV.lig_0>
-48.4032

>  <SCORE.INTRA.VDW>
1.51727

>  <SCORE.INTRA.VDW.0>
-1.65238

>  <SCORE.INTRA.norm>
-1.10341

>  <SCORE.RESTR>
0

>  <SCORE.RESTR.CAVITY>
0

>  <SCORE.RESTR.norm>
0

>  <SCORE.SYSTEM>
0

>  <SCORE.SYSTEM.CONST>
0

>  <SCORE.SYSTEM.DIHEDRAL>
0

>  <SCORE.SYSTEM.SOLV>
0

>  <SCORE.SYSTEM.norm>
0

>  <SCORE.heavy>
13

>  <SCORE.norm>
-1.03431

>  <RMSD>
7.565

$$$$
ligand
 OpenBabel11021811473D
libRbt.so/2013.1/901 2013/11/27
 13 12  0  0  0  0  0  0  0  0999 V2000
   31.9977   31.0101   51.1217 O   0  0  0  0  0  0  0  0  0  0  0  0
   34.4850   32.1273   49.8339 O   0  0  0  0  0  0  0  0  0  0  0  0
   27.7688   29.5232   51.4536 P   0  0  1  0  0  0  0  0  0  0  0  0
   27.8051   28.6813   52.6989 O   0  5  0  0  0  0  0  0  0  0  0  0
   26.6180   30.0398   50.7454 O   0  0  0  0  0  0  0  0  0  0  0  0
   29.1432   30.3646   51.5346 O   0  0  0  0  0  0  0  0  0  0  0  0
   36.9155   32.2437   48.3191 O   0  0  0  0  0  0  0  0  0  0  0  0
   29.7138   31.0064   50.3735 C   0  0  0  0  0  0  0  0  0  0  0  0
   33.6807   32.7803   50.8351 C   0  0  0  0  0  0  0  0  0  0  0  0
   36.6236   31.1375   49.1913 C   0  0  0  0  0  0  0  0  0  0  0  0
   30.9146   31.8762   50.7735 C   0  0  0  0  0  0  0  0  0  0  0  0
   33.0523   31.7338   51.7847 C   0  0  0  0  0  0  0  0  0  0  0  0
   35.7199   31.6058   50.3558 C   0  0  0  0  0  0  0  0  0  0  0  0
  1 12  1  0  0  0  0
  1 11  1  0  0  0  0
  2 13  1  0  0  0  0
  2  9  1  0  0  0  0
  3  4  1  1  0  0  0
  3  5  2  0  0  0  0
  3  6  1  0  0  0  0
  6  8  1  0  0  0  0
  7 10  1  0  0  0  0
  8 11  1  0  0  0  0
  9 12  1  0  0  0  0
 10 13  1  0  0  0  0
M  CHG  1   4  -1
M  END
>  <CHROM.1>
-64.13419693,-170.57081958,161.49801380,172.86333135,71.95051482,-72.81219564
-72.62312286,60.14005760,-167.24109242,31.50956582,30.94220857,50.75573772
-0.32212110,0.15426299,2.00059306

>  <Name>
ligand

>  <RI>
0

>  <Rbt.Current_Directory>
/home/itssahil/PROJECTS/Mol_Feturizer/New_Systems/rnas/3GS8

>  <Rbt.Executable>
rbdock ($Id: //depot/dev/client3/rdock/2013.1/src/exe/rbdock.cxx#4 $)

>  <Rbt.Library>
libRbt.so (2013.1, Build901 2013/11/27)

>  <Rbt.Parameter_File>
/export/apps/rDock/src/rDock_2013.1_src/data/scripts/dock_solv.prm

>  <Rbt.Receptor>
prm/pocket_docking_8.prm

>  <SCORE>
-8.97377

>  <SCORE.INTER>
3.3789

>  <SCORE.INTER.CONST>
1

>  <SCORE.INTER.POLAR>
0

>  <SCORE.INTER.ROT>
9

>  <SCORE.INTER.SOLV>
9.84398

>  <SCORE.INTER.VDW>
-10.6287

>  <SCORE.INTER.norm>
0.259916

>  <SCORE.INTRA>
-12.3527

>  <SCORE.INTRA.DIHEDRAL>
-28.2532

>  <SCORE.INTRA.DIHEDRAL.0>
31.9578

>  <SCORE.INTRA.POLAR>
0

>  <SCORE.INTRA.POLAR.0>
0

>  <SCORE.INTRA.REPUL>
0

>  <SCORE.INTRA.REPUL.0>
0

>  <SCORE.INTRA.SOLV>
-1.4317

>  <SCORE.INTRA.SOLV.lig_0>
-48.4032

>  <SCORE.INTRA.VDW>
2.48975

>  <SCORE.INTRA.VDW.0>
-1.65238

>  <SCORE.INTRA.norm>
-0.950206

>  <SCORE.RESTR>
0

>  <SCORE.RESTR.CAVITY>
0

>  <SCORE.RESTR.norm>
0

>  <SCORE.SYSTEM>
0

>  <SCORE.SYSTEM.CONST>
0

>  <SCORE.SYSTEM.DIHEDRAL>
0

>  <SCORE.SYSTEM.SOLV>
0

>  <SCORE.SYSTEM.norm>
0

>  <SCORE.heavy>
13

>  <SCORE.norm>
-0.69029

>  <RMSD>
7.582

$$$$
ligand
 OpenBabel11021811473D
libRbt.so/2013.1/901 2013/11/27
 13 12  0  0  0  0  0  0  0  0999 V2000
   35.7248   31.4155   49.5974 O   0  0  0  0  0  0  0  0  0  0  0  0
   36.6252   31.5647   46.8696 O   0  0  0  0  0  0  0  0  0  0  0  0
   31.7357   31.2740   51.3973 P   0  0  1  0  0  0  0  0  0  0  0  0
   31.6491   31.2672   52.8985 O   0  5  0  0  0  0  0  0  0  0  0  0
   30.8542   31.9125   50.4443 O   0  0  0  0  0  0  0  0  0  0  0  0
   33.3202   31.1564   51.1167 O   0  0  0  0  0  0  0  0  0  0  0  0
   34.7225   32.5997   45.0003 O   0  0  0  0  0  0  0  0  0  0  0  0
   34.2021   32.2938   51.2363 C   0  0  0  0  0  0  0  0  0  0  0  0
   37.1414   30.5690   47.7740 C   0  0  0  0  0  0  0  0  0  0  0  0
   36.0594   32.2552   44.5960 C   0  0  0  0  0  0  0  0  0  0  0  0
   35.6535   31.8838   50.9464 C   0  0  0  0  0  0  0  0  0  0  0  0
   37.0780   31.0833   49.2311 C   0  0  0  0  0  0  0  0  0  0  0  0
   36.6114   31.1275   45.4992 C   0  0  0  0  0  0  0  0  0  0  0  0
  1 12  1  0  0  0  0
  1 11  1  0  0  0  0
  2 13  1  0  0  0  0
  2  9  1  0  0  0  0
  3  4  1  1  0  0  0
  3  5  2  0  0  0  0
  3  6  1  0  0  0  0
  6  8  1  0  0  0  0
  7 10  1  0  0  0  0
  8 11  1  0  0  0  0
  9 12  1  0  0  0  0
 10 13  1  0  0  0  0
M  CHG  1   4  -1
M  END
>  <CHROM.1>
179.60320499,-179.41373456,-78.46890883,178.60114857,62.15612637,-177.86403555
58.41373389,-59.61552218,176.73586523,34.43093972,31.55040357,49.18431696
-0.91340450,-0.14154082,1.71402502

>  <Name>
ligand

>  <RI>
0

>  <Rbt.Current_Directory>
/home/itssahil/PROJECTS/Mol_Feturizer/New_Systems/rnas/3GS8

>  <Rbt.Executable>
rbdock ($Id: //depot/dev/client3/rdock/2013.1/src/exe/rbdock.cxx#4 $)

>  <Rbt.Library>
libRbt.so (2013.1, Build901 2013/11/27)

>  <Rbt.Parameter_File>
/export/apps/rDock/src/rDock_2013.1_src/data/scripts/dock_solv.prm

>  <Rbt.Receptor>
prm/pocket_docking_6.prm

>  <SCORE>
-14.7292

>  <SCORE.INTER>
1.58386

>  <SCORE.INTER.CONST>
1

>  <SCORE.INTER.POLAR>
0

>  <SCORE.INTER.ROT>
9

>  <SCORE.INTER.SOLV>
10.724

>  <SCORE.INTER.VDW>
-12.1188

>  <SCORE.INTER.norm>
0.121835

>  <SCORE.INTRA>
-16.313

>  <SCORE.INTRA.DIHEDRAL>
-31.5591

>  <SCORE.INTRA.DIHEDRAL.0>
31.9578

>  <SCORE.INTRA.POLAR>
0

>  <SCORE.INTRA.POLAR.0>
0

>  <SCORE.INTRA.REPUL>
0

>  <SCORE.INTRA.REPUL.0>
0

>  <SCORE.INTRA.SOLV>
-1.16604

>  <SCORE.INTRA.SOLV.lig_0>
-48.4032

>  <SCORE.INTRA.VDW>
0.0495545

>  <SCORE.INTRA.VDW.0>
-1.65238

>  <SCORE.INTRA.norm>
-1.25485

>  <SCORE.RESTR>
0

>  <SCORE.RESTR.CAVITY>
0

>  <SCORE.RESTR.norm>
0

>  <SCORE.SYSTEM>
0

>  <SCORE.SYSTEM.CONST>
0

>  <SCORE.SYSTEM.DIHEDRAL>
0

>  <SCORE.SYSTEM.SOLV>
0

>  <SCORE.SYSTEM.norm>
0

>  <SCORE.heavy>
13

>  <SCORE.norm>
-1.13301

>  <RMSD>
7.610

$$$$
ligand
 OpenBabel11021811473D
libRbt.so/2013.1/901 2013/11/27
 13 12  0  0  0  0  0  0  0  0999 V2000
   35.9447   31.1271   49.4227 O   0  0  0  0  0  0  0  0  0  0  0  0
   36.4208   31.3734   46.6000 O   0  0  0  0  0  0  0  0  0  0  0  0
   32.0609   32.6403   50.6027 P   0  0  1  0  0  0  0  0  0  0  0  0
   31.7084   33.8038   49.7179 O   0  5  0  0  0  0  0  0  0  0  0  0
   31.2206   31.5429   51.0300 O   0  0  0  0  0  0  0  0  0  0  0  0
   33.6344   32.4228   50.3199 O   0  0  0  0  0  0  0  0  0  0  0  0
   35.3898   31.4030   43.0459 O   0  0  0  0  0  0  0  0  0  0  0  0
   34.4821   31.7024   51.2409 C   0  0  0  0  0  0  0  0  0  0  0  0
   37.2696   30.5576   47.4306 C   0  0  0  0  0  0  0  0  0  0  0  0
   35.4322   31.8402   44.4158 C   0  0  0  0  0  0  0  0  0  0  0  0
   35.9333   31.6864   50.7385 C   0  0  0  0  0  0  0  0  0  0  0  0
   37.2790   31.0960   48.8803 C   0  0  0  0  0  0  0  0  0  0  0  0
   36.4120   30.9568   45.2232 C   0  0  0  0  0  0  0  0  0  0  0  0
  1 12  1  0  0  0  0
  1 11  1  0  0  0  0
  2 13  1  0  0  0  0
  2  9  1  0  0  0  0
  3  4  1  6  0  0  0
  3  5  2  0  0  0  0
  3  6  1  0  0  0  0
  6  8  1  0  0  0  0
  7 10  1  0  0  0  0
  8 11  1  0  0  0  0
  9 12  1  0  0  0  0
 10 13  1  0  0  0  0
M  CHG  1   4  -1
M  END
>  <CHROM.1>
-177.06843235,177.47522689,160.16467596,-178.34099945,-56.03629701,177.59593362
58.05886391,-178.32346685,179.30330972,34.59061805,31.79273524,48.53902187
-0.94671461,-0.33203369,1.59038211

>  <Name>
ligand

>  <RI>
0

>  <Rbt.Current_Directory>
/home/itssahil/PROJECTS/Mol_Feturizer/New_Systems/rnas/3GS8

>  <Rbt.Executable>
rbdock ($Id: //depot/dev/client3/rdock/2013.1/src/exe/rbdock.cxx#4 $)

>  <Rbt.Library>
libRbt.so (2013.1, Build901 2013/11/27)

>  <Rbt.Parameter_File>
/export/apps/rDock/src/rDock_2013.1_src/data/scripts/dock_solv.prm

>  <Rbt.Receptor>
prm/pocket_docking_7.prm

>  <SCORE>
-15.2151

>  <SCORE.INTER>
1.19235

>  <SCORE.INTER.CONST>
1

>  <SCORE.INTER.POLAR>
0

>  <SCORE.INTER.ROT>
9

>  <SCORE.INTER.SOLV>
7.48361

>  <SCORE.INTER.VDW>
-11.2996

>  <SCORE.INTER.norm>
0.0917195

>  <SCORE.INTRA>
-16.4074

>  <SCORE.INTRA.DIHEDRAL>
-31.4665

>  <SCORE.INTRA.DIHEDRAL.0>
31.9578

>  <SCORE.INTRA.POLAR>
0

>  <SCORE.INTRA.POLAR.0>
0

>  <SCORE.INTRA.REPUL>
0

>  <SCORE.INTRA.REPUL.0>
0

>  <SCORE.INTRA.SOLV>
-1.68464

>  <SCORE.INTRA.SOLV.lig_0>
-48.4032

>  <SCORE.INTRA.VDW>
0.168137

>  <SCORE.INTRA.VDW.0>
-1.65238

>  <SCORE.INTRA.norm>
-1.26211

>  <SCORE.RESTR>
0

>  <SCORE.RESTR.CAVITY>
0

>  <SCORE.RESTR.norm>
0

>  <SCORE.SYSTEM>
0

>  <SCORE.SYSTEM.CONST>
0

>  <SCORE.SYSTEM.DIHEDRAL>
0

>  <SCORE.SYSTEM.SOLV>
0

>  <SCORE.SYSTEM.norm>
0

>  <SCORE.heavy>
13

>  <SCORE.norm>
-1.17039

>  <RMSD>
7.627

$$$$
ligand
 OpenBabel11021811473D
libRbt.so/2013.1/901 2013/11/27
 13 12  0  0  0  0  0  0  0  0999 V2000
   35.7139   31.3957   49.6150 O   0  0  0  0  0  0  0  0  0  0  0  0
   36.5379   31.5368   46.9015 O   0  0  0  0  0  0  0  0  0  0  0  0
   31.7005   31.3706   51.4521 P   0  0  1  0  0  0  0  0  0  0  0  0
   31.1908   32.0215   50.1961 O   0  5  0  0  0  0  0  0  0  0  0  0
   31.0045   30.4797   52.3547 O   0  0  0  0  0  0  0  0  0  0  0  0
   33.2793   31.1997   51.1667 O   0  0  0  0  0  0  0  0  0  0  0  0
   36.4282   33.4411   44.7661 O   0  0  0  0  0  0  0  0  0  0  0  0
   34.1908   32.3182   51.2290 C   0  0  0  0  0  0  0  0  0  0  0  0
   37.1488   30.5820   47.7909 C   0  0  0  0  0  0  0  0  0  0  0  0
   35.8056   32.1491   44.6532 C   0  0  0  0  0  0  0  0  0  0  0  0
   35.6314   31.8554   50.9664 C   0  0  0  0  0  0  0  0  0  0  0  0
   37.0728   31.0846   49.2515 C   0  0  0  0  0  0  0  0  0  0  0  0
   36.5615   31.1193   45.5252 C   0  0  0  0  0  0  0  0  0  0  0  0
  1 12  1  0  0  0  0
  1 11  1  0  0  0  0
  2 13  1  0  0  0  0
  2  9  1  0  0  0  0
  3  4  1  6  0  0  0
  3  5  2  0  0  0  0
  3  6  1  0  0  0  0
  6  8  1  0  0  0  0
  7 10  1  0  0  0  0
  8 11  1  0  0  0  0
  9 12  1  0  0  0  0
 10 13  1  0  0  0  0
M  CHG  1   4  -1
M  END
>  <CHROM.1>
179.71789885,176.20254321,75.52941768,177.86913209,65.89379321,-179.28301820
54.41253099,59.83113739,173.56648421,34.49891269,31.56966917,49.13098793
-0.87335295,-0.13729172,1.79302904

>  <Name>
ligand

>  <RI>
0

>  <Rbt.Current_Directory>
/home/itssahil/PROJECTS/Mol_Feturizer/New_Systems/rnas/3GS8

>  <Rbt.Executable>
rbdock ($Id: //depot/dev/client3/rdock/2013.1/src/exe/rbdock.cxx#4 $)

>  <Rbt.Library>
libRbt.so (2013.1, Build901 2013/11/27)

>  <Rbt.Parameter_File>
/export/apps/rDock/src/rDock_2013.1_src/data/scripts/dock_solv.prm

>  <Rbt.Receptor>
prm/pocket_docking_7.prm

>  <SCORE>
-14.5465

>  <SCORE.INTER>
1.30346

>  <SCORE.INTER.CONST>
1

>  <SCORE.INTER.POLAR>
0

>  <SCORE.INTER.ROT>
9

>  <SCORE.INTER.SOLV>
10.467

>  <SCORE.INTER.VDW>
-12.22

>  <SCORE.INTER.norm>
0.100266

>  <SCORE.INTRA>
-15.85

>  <SCORE.INTRA.DIHEDRAL>
-30.5558

>  <SCORE.INTRA.DIHEDRAL.0>
31.9578

>  <SCORE.INTRA.POLAR>
0

>  <SCORE.INTRA.POLAR.0>
0

>  <SCORE.INTRA.REPUL>
0

>  <SCORE.INTRA.REPUL.0>
0

>  <SCORE.INTRA.SOLV>
-1.37193

>  <SCORE.INTRA.SOLV.lig_0>
-48.4032

>  <SCORE.INTRA.VDW>
0.113859

>  <SCORE.INTRA.VDW.0>
-1.65238

>  <SCORE.INTRA.norm>
-1.21923

>  <SCORE.RESTR>
0

>  <SCORE.RESTR.CAVITY>
0

>  <SCORE.RESTR.norm>
0

>  <SCORE.SYSTEM>
0

>  <SCORE.SYSTEM.CONST>
0

>  <SCORE.SYSTEM.DIHEDRAL>
0

>  <SCORE.SYSTEM.SOLV>
0

>  <SCORE.SYSTEM.norm>
0

>  <SCORE.heavy>
13

>  <SCORE.norm>
-1.11896

>  <RMSD>
7.634

$$$$
ligand
 OpenBabel11021811473D
libRbt.so/2013.1/901 2013/11/27
 13 12  0  0  0  0  0  0  0  0999 V2000
   34.4841   31.9046   44.3451 O   0  0  0  0  0  0  0  0  0  0  0  0
   36.7570   30.7184   45.6816 O   0  0  0  0  0  0  0  0  0  0  0  0
   31.9074   35.2180   45.4302 P   0  0  1  0  0  0  0  0  0  0  0  0
   32.9370   36.2939   45.6386 O   0  5  0  0  0  0  0  0  0  0  0  0
   30.4722   35.3523   45.3085 O   0  0  0  0  0  0  0  0  0  0  0  0
   32.7113   34.0908   44.6018 O   0  0  0  0  0  0  0  0  0  0  0  0
   36.8332   30.9822   48.5309 O   0  0  0  0  0  0  0  0  0  0  0  0
   32.2331   32.7318   44.5020 C   0  0  0  0  0  0  0  0  0  0  0  0
   36.8389   31.1957   44.3246 C   0  0  0  0  0  0  0  0  0  0  0  0
   37.8432   30.2466   47.8178 C   0  0  0  0  0  0  0  0  0  0  0  0
   33.2137   31.8730   43.6898 C   0  0  0  0  0  0  0  0  0  0  0  0
   35.4549   31.1069   43.6402 C   0  0  0  0  0  0  0  0  0  0  0  0
   38.0050   30.8182   46.3898 C   0  0  0  0  0  0  0  0  0  0  0  0
  1 12  1  0  0  0  0
  1 11  1  0  0  0  0
  2 13  1  0  0  0  0
  2  9  1  0  0  0  0
  3  4  1  6  0  0  0
  3  5  2  0  0  0  0
  3  6  1  0  0  0  0
  6  8  1  0  0  0  0
  7 10  1  0  0  0  0
  8 11  1  0  0  0  0
  9 12  1  0  0  0  0
 10 13  1  0  0  0  0
M  CHG  1   4  -1
M  END
>  <CHROM.1>
177.64749363,-178.23139339,162.50198291,-178.43555218,59.11375907,-177.97200498
59.97719469,-59.76697153,179.51819357,34.34482032,32.76089038,45.39850093
0.15086382,0.68440363,-2.10364650

>  <Name>
ligand

>  <RI>
0

>  <Rbt.Current_Directory>
/home/itssahil/PROJECTS/Mol_Feturizer/New_Systems/rnas/3GS8

>  <Rbt.Executable>
rbdock ($Id: //depot/dev/client3/rdock/2013.1/src/exe/rbdock.cxx#4 $)

>  <Rbt.Library>
libRbt.so (2013.1, Build901 2013/11/27)

>  <Rbt.Parameter_File>
/export/apps/rDock/src/rDock_2013.1_src/data/scripts/dock_solv.prm

>  <Rbt.Receptor>
prm/pocket_docking_6.prm

>  <SCORE>
-12.958

>  <SCORE.INTER>
3.47935

>  <SCORE.INTER.CONST>
1

>  <SCORE.INTER.POLAR>
0

>  <SCORE.INTER.ROT>
9

>  <SCORE.INTER.SOLV>
7.15558

>  <SCORE.INTER.VDW>
-9.66562

>  <SCORE.INTER.norm>
0.267643

>  <SCORE.INTRA>
-16.4374

>  <SCORE.INTRA.DIHEDRAL>
-31.5965

>  <SCORE.INTRA.DIHEDRAL.0>
31.9578

>  <SCORE.INTRA.POLAR>
0

>  <SCORE.INTRA.POLAR.0>
0

>  <SCORE.INTRA.REPUL>
0

>  <SCORE.INTRA.REPUL.0>
0

>  <SCORE.INTRA.SOLV>
-1.43306

>  <SCORE.INTRA.SOLV.lig_0>
-48.4032

>  <SCORE.INTRA.VDW>
0.0774168

>  <SCORE.INTRA.VDW.0>
-1.65238

>  <SCORE.INTRA.norm>
-1.26441

>  <SCORE.RESTR>
0

>  <SCORE.RESTR.CAVITY>
0

>  <SCORE.RESTR.norm>
0

>  <SCORE.SYSTEM>
0

>  <SCORE.SYSTEM.CONST>
0

>  <SCORE.SYSTEM.DIHEDRAL>
0

>  <SCORE.SYSTEM.SOLV>
0

>  <SCORE.SYSTEM.norm>
0

>  <SCORE.heavy>
13

>  <SCORE.norm>
-0.996769

>  <RMSD>
7.659

$$$$
ligand
 OpenBabel11021811473D
libRbt.so/2013.1/901 2013/11/27
 13 12  0  0  0  0  0  0  0  0999 V2000
   34.0039   32.0244   50.6143 O   0  0  0  0  0  0  0  0  0  0  0  0
   36.4849   31.0521   49.6211 O   0  0  0  0  0  0  0  0  0  0  0  0
   29.0104   31.8103   49.7816 P   0  0  1  0  0  0  0  0  0  0  0  0
   27.9253   31.3366   50.7086 O   0  5  0  0  0  0  0  0  0  0  0  0
   28.9133   32.7401   48.6775 O   0  0  0  0  0  0  0  0  0  0  0  0
   30.3370   31.7408   50.6973 O   0  0  0  0  0  0  0  0  0  0  0  0
   36.6354   30.8284   46.7624 O   0  0  0  0  0  0  0  0  0  0  0  0
   31.6414   32.0767   50.1763 C   0  0  0  0  0  0  0  0  0  0  0  0
   36.4490   31.8556   50.8165 C   0  0  0  0  0  0  0  0  0  0  0  0
   37.6694   30.3101   47.6180 C   0  0  0  0  0  0  0  0  0  0  0  0
   32.7308   31.7800   51.2174 C   0  0  0  0  0  0  0  0  0  0  0  0
   35.0794   31.7100   51.5198 C   0  0  0  0  0  0  0  0  0  0  0  0
   37.7399   31.1368   48.9233 C   0  0  0  0  0  0  0  0  0  0  0  0
  1 12  1  0  0  0  0
  1 11  1  0  0  0  0
  2 13  1  0  0  0  0
  2  9  1  0  0  0  0
  3  4  1  1  0  0  0
  3  5  2  0  0  0  0
  3  6  1  0  0  0  0
  6  8  1  0  0  0  0
  7 10  1  0  0  0  0
  8 11  1  0  0  0  0
  9 12  1  0  0  0  0
 10 13  1  0  0  0  0
M  CHG  1   4  -1
M  END
>  <CHROM.1>
174.88684847,-176.95416155,177.98870274,-174.01399625,175.28105517,-179.59776767
-54.89579213,60.67777755,-177.51769217,33.01856786,31.59158012,49.76478279
-0.15831509,-0.08189318,1.41281021

>  <Name>
ligand

>  <RI>
0

>  <Rbt.Current_Directory>
/home/itssahil/PROJECTS/Mol_Feturizer/New_Systems/rnas/3GS8

>  <Rbt.Executable>
rbdock ($Id: //depot/dev/client3/rdock/2013.1/src/exe/rbdock.cxx#4 $)

>  <Rbt.Library>
libRbt.so (2013.1, Build901 2013/11/27)

>  <Rbt.Parameter_File>
/export/apps/rDock/src/rDock_2013.1_src/data/scripts/dock_solv.prm

>  <Rbt.Receptor>
prm/pocket_docking_6.prm

>  <SCORE>
-14.2652

>  <SCORE.INTER>
1.74071

>  <SCORE.INTER.CONST>
1

>  <SCORE.INTER.POLAR>
0

>  <SCORE.INTER.ROT>
9

>  <SCORE.INTER.SOLV>
9.35376

>  <SCORE.INTER.VDW>
-11.5574

>  <SCORE.INTER.norm>
0.133901

>  <SCORE.INTRA>
-16.0059

>  <SCORE.INTRA.DIHEDRAL>
-30.9698

>  <SCORE.INTRA.DIHEDRAL.0>
31.9578

>  <SCORE.INTRA.POLAR>
0

>  <SCORE.INTRA.POLAR.0>
0

>  <SCORE.INTRA.REPUL>
0

>  <SCORE.INTRA.REPUL.0>
0

>  <SCORE.INTRA.SOLV>
-1.51247

>  <SCORE.INTRA.SOLV.lig_0>
-48.4032

>  <SCORE.INTRA.VDW>
0.235243

>  <SCORE.INTRA.VDW.0>
-1.65238

>  <SCORE.INTRA.norm>
-1.23122

>  <SCORE.RESTR>
0

>  <SCORE.RESTR.CAVITY>
0

>  <SCORE.RESTR.norm>
0

>  <SCORE.SYSTEM>
0

>  <SCORE.SYSTEM.CONST>
0

>  <SCORE.SYSTEM.DIHEDRAL>
0

>  <SCORE.SYSTEM.SOLV>
0

>  <SCORE.SYSTEM.norm>
0

>  <SCORE.heavy>
13

>  <SCORE.norm>
-1.09732

>  <RMSD>
7.660

$$$$
ligand
 OpenBabel11021811473D
libRbt.so/2013.1/901 2013/11/27
 13 12  0  0  0  0  0  0  0  0999 V2000
   33.5731   31.7828   44.0823 O   0  0  0  0  0  0  0  0  0  0  0  0
   36.4482   30.9777   43.7930 O   0  0  0  0  0  0  0  0  0  0  0  0
   29.4752   33.8002   46.2776 P   0  0  1  0  0  0  0  0  0  0  0  0
   28.5984   34.9117   45.7709 O   0  5  0  0  0  0  0  0  0  0  0  0
   29.1383   32.7266   47.1868 O   0  0  0  0  0  0  0  0  0  0  0  0
   30.5189   33.5708   45.0688 O   0  0  0  0  0  0  0  0  0  0  0  0
   37.7926   32.8201   45.5377 O   0  0  0  0  0  0  0  0  0  0  0  0
   31.7210   32.7883   45.2376 C   0  0  0  0  0  0  0  0  0  0  0  0
   35.3540   30.4761   43.0010 C   0  0  0  0  0  0  0  0  0  0  0  0
   37.3902   31.5124   45.9822 C   0  0  0  0  0  0  0  0  0  0  0  0
   32.5199   32.7372   43.9269 C   0  0  0  0  0  0  0  0  0  0  0  0
   34.2666   31.5637   42.8387 C   0  0  0  0  0  0  0  0  0  0  0  0
   36.1417   31.0473   45.1967 C   0  0  0  0  0  0  0  0  0  0  0  0
  1 12  1  0  0  0  0
  1 11  1  0  0  0  0
  2 13  1  0  0  0  0
  2  9  1  0  0  0  0
  3  4  1  6  0  0  0
  3  5  2  0  0  0  0
  3  6  1  0  0  0  0
  6  8  1  0  0  0  0
  7 10  1  0  0  0  0
  8 11  1  0  0  0  0
  9 12  1  0  0  0  0
 10 13  1  0  0  0  0
M  CHG  1   4  -1
M  END
>  <CHROM.1>
-177.02579389,176.62035383,166.54848836,179.88736546,-170.70234234,75.42847698
-71.04159262,60.69306299,173.07154139,32.96067912,32.50250419,45.04292664
0.31505474,0.21080779,-1.98146642

>  <Name>
ligand

>  <RI>
0

>  <Rbt.Current_Directory>
/home/itssahil/PROJECTS/Mol_Feturizer/New_Systems/rnas/3GS8

>  <Rbt.Executable>
rbdock ($Id: //depot/dev/client3/rdock/2013.1/src/exe/rbdock.cxx#4 $)

>  <Rbt.Library>
libRbt.so (2013.1, Build901 2013/11/27)

>  <Rbt.Parameter_File>
/export/apps/rDock/src/rDock_2013.1_src/data/scripts/dock_solv.prm

>  <Rbt.Receptor>
prm/pocket_docking_5.prm

>  <SCORE>
-11.3524

>  <SCORE.INTER>
3.00955

>  <SCORE.INTER.CONST>
1

>  <SCORE.INTER.POLAR>
0

>  <SCORE.INTER.ROT>
9

>  <SCORE.INTER.SOLV>
9.51818

>  <SCORE.INTER.VDW>
-10.7664

>  <SCORE.INTER.norm>
0.231504

>  <SCORE.INTRA>
-14.362

>  <SCORE.INTRA.DIHEDRAL>
-29.4525

>  <SCORE.INTRA.DIHEDRAL.0>
31.9578

>  <SCORE.INTRA.POLAR>
0

>  <SCORE.INTRA.POLAR.0>
0

>  <SCORE.INTRA.REPUL>
0

>  <SCORE.INTRA.REPUL.0>
0

>  <SCORE.INTRA.SOLV>
-1.40703

>  <SCORE.INTRA.SOLV.lig_0>
-48.4032

>  <SCORE.INTRA.VDW>
1.06781

>  <SCORE.INTRA.VDW.0>
-1.65238

>  <SCORE.INTRA.norm>
-1.10477

>  <SCORE.RESTR>
0

>  <SCORE.RESTR.CAVITY>
0

>  <SCORE.RESTR.norm>
0

>  <SCORE.SYSTEM>
0

>  <SCORE.SYSTEM.CONST>
0

>  <SCORE.SYSTEM.DIHEDRAL>
0

>  <SCORE.SYSTEM.SOLV>
0

>  <SCORE.SYSTEM.norm>
0

>  <SCORE.heavy>
13

>  <SCORE.norm>
-0.873262

>  <RMSD>
7.661

$$$$
ligand
 OpenBabel11021811473D
libRbt.so/2013.1/901 2013/11/27
 13 12  0  0  0  0  0  0  0  0999 V2000
   33.9426   32.3079   44.4925 O   0  0  0  0  0  0  0  0  0  0  0  0
   36.4042   31.1095   45.2535 O   0  0  0  0  0  0  0  0  0  0  0  0
   29.5172   33.7521   46.4890 P   0  0  1  0  0  0  0  0  0  0  0  0
   28.2215   33.9972   45.7664 O   0  5  0  0  0  0  0  0  0  0  0  0
   29.7300   33.4692   47.8917 O   0  0  0  0  0  0  0  0  0  0  0  0
   30.4550   33.0909   45.3547 O   0  0  0  0  0  0  0  0  0  0  0  0
   37.5036   29.7603   47.5426 O   0  0  0  0  0  0  0  0  0  0  0  0
   31.8960   33.1582   45.4224 C   0  0  0  0  0  0  0  0  0  0  0  0
   36.1023   31.3161   43.8599 C   0  0  0  0  0  0  0  0  0  0  0  0
   38.0498   30.9987   47.0551 C   0  0  0  0  0  0  0  0  0  0  0  0
   32.5282   32.3417   44.2856 C   0  0  0  0  0  0  0  0  0  0  0  0
   34.5717   31.3322   43.6394 C   0  0  0  0  0  0  0  0  0  0  0  0
   37.8157   31.1167   45.5308 C   0  0  0  0  0  0  0  0  0  0  0  0
  1 12  1  0  0  0  0
  1 11  1  0  0  0  0
  2 13  1  0  0  0  0
  2  9  1  0  0  0  0
  3  4  1  6  0  0  0
  3  5  2  0  0  0  0
  3  6  1  0  0  0  0
  6  8  1  0  0  0  0
  7 10  1  0  0  0  0
  8 11  1  0  0  0  0
  9 12  1  0  0  0  0
 10 13  1  0  0  0  0
M  CHG  1   4  -1
M  END
>  <CHROM.1>
179.33774839,175.66618147,155.71004739,174.93462115,-173.09033833,-178.57698939
54.66225484,61.10457145,167.65014193,33.21823542,32.27315218,45.68222252
0.04102168,0.35477896,-1.53110451

>  <Name>
ligand

>  <RI>
0

>  <Rbt.Current_Directory>
/home/itssahil/PROJECTS/Mol_Feturizer/New_Systems/rnas/3GS8

>  <Rbt.Executable>
rbdock ($Id: //depot/dev/client3/rdock/2013.1/src/exe/rbdock.cxx#4 $)

>  <Rbt.Library>
libRbt.so (2013.1, Build901 2013/11/27)

>  <Rbt.Parameter_File>
/export/apps/rDock/src/rDock_2013.1_src/data/scripts/dock_solv.prm

>  <Rbt.Receptor>
prm/pocket_docking_5.prm

>  <SCORE>
-13.0178

>  <SCORE.INTER>
2.74978

>  <SCORE.INTER.CONST>
1

>  <SCORE.INTER.POLAR>
0

>  <SCORE.INTER.ROT>
9

>  <SCORE.INTER.SOLV>
9.84018

>  <SCORE.INTER.VDW>
-11.0469

>  <SCORE.INTER.norm>
0.211521

>  <SCORE.INTRA>
-15.7676

>  <SCORE.INTRA.DIHEDRAL>
-30.3868

>  <SCORE.INTRA.DIHEDRAL.0>
31.9578

>  <SCORE.INTRA.POLAR>
0

>  <SCORE.INTRA.POLAR.0>
0

>  <SCORE.INTRA.REPUL>
0

>  <SCORE.INTRA.REPUL.0>
0

>  <SCORE.INTRA.SOLV>
-1.56969

>  <SCORE.INTRA.SOLV.lig_0>
-48.4032

>  <SCORE.INTRA.VDW>
0.210618

>  <SCORE.INTRA.VDW.0>
-1.65238

>  <SCORE.INTRA.norm>
-1.21289

>  <SCORE.RESTR>
0

>  <SCORE.RESTR.CAVITY>
0

>  <SCORE.RESTR.norm>
0

>  <SCORE.SYSTEM>
0

>  <SCORE.SYSTEM.CONST>
0

>  <SCORE.SYSTEM.DIHEDRAL>
0

>  <SCORE.SYSTEM.SOLV>
0

>  <SCORE.SYSTEM.norm>
0

>  <SCORE.heavy>
13

>  <SCORE.norm>
-1.00137

>  <RMSD>
7.676

$$$$
ligand
 OpenBabel11021811473D
libRbt.so/2013.1/901 2013/11/27
 13 12  0  0  0  0  0  0  0  0999 V2000
   33.9836   32.3274   44.4520 O   0  0  0  0  0  0  0  0  0  0  0  0
   36.4291   31.1319   45.2712 O   0  0  0  0  0  0  0  0  0  0  0  0
   29.5333   33.7869   46.3695 P   0  0  1  0  0  0  0  0  0  0  0  0
   29.5688   35.2293   45.9461 O   0  5  0  0  0  0  0  0  0  0  0  0
   28.4689   33.0659   47.0328 O   0  0  0  0  0  0  0  0  0  0  0  0
   30.4832   33.0592   45.2872 O   0  0  0  0  0  0  0  0  0  0  0  0
   37.5109   29.7662   47.5688 O   0  0  0  0  0  0  0  0  0  0  0  0
   31.9193   33.2099   45.3097 C   0  0  0  0  0  0  0  0  0  0  0  0
   36.1646   31.3502   43.8718 C   0  0  0  0  0  0  0  0  0  0  0  0
   38.0214   31.0344   47.1209 C   0  0  0  0  0  0  0  0  0  0  0  0
   32.5709   32.3312   44.2318 C   0  0  0  0  0  0  0  0  0  0  0  0
   34.6406   31.3610   43.6093 C   0  0  0  0  0  0  0  0  0  0  0  0
   37.8308   31.1715   45.5921 C   0  0  0  0  0  0  0  0  0  0  0  0
  1 12  1  0  0  0  0
  1 11  1  0  0  0  0
  2 13  1  0  0  0  0
  2  9  1  0  0  0  0
  3  4  1  6  0  0  0
  3  5  2  0  0  0  0
  3  6  1  0  0  0  0
  6  8  1  0  0  0  0
  7 10  1  0  0  0  0
  8 11  1  0  0  0  0
  9 12  1  0  0  0  0
 10 13  1  0  0  0  0
M  CHG  1   4  -1
M  END
>  <CHROM.1>
-179.11091236,175.81268952,73.08439736,175.98209988,-169.64756060,-177.33785057
54.77613906,61.91819648,171.03227697,33.24700877,32.35519485,45.60453625
-0.00660070,0.37256027,-1.45395341

>  <Name>
ligand

>  <RI>
0

>  <Rbt.Current_Directory>
/home/itssahil/PROJECTS/Mol_Feturizer/New_Systems/rnas/3GS8

>  <Rbt.Executable>
rbdock ($Id: //depot/dev/client3/rdock/2013.1/src/exe/rbdock.cxx#4 $)

>  <Rbt.Library>
libRbt.so (2013.1, Build901 2013/11/27)

>  <Rbt.Parameter_File>
/export/apps/rDock/src/rDock_2013.1_src/data/scripts/dock_solv.prm

>  <Rbt.Receptor>
prm/pocket_docking_5.prm

>  <SCORE>
-12.9722

>  <SCORE.INTER>
2.52276

>  <SCORE.INTER.CONST>
1

>  <SCORE.INTER.POLAR>
0

>  <SCORE.INTER.ROT>
9

>  <SCORE.INTER.SOLV>
9.54833

>  <SCORE.INTER.VDW>
-11.1009

>  <SCORE.INTER.norm>
0.194058

>  <SCORE.INTRA>
-15.495

>  <SCORE.INTRA.DIHEDRAL>
-30.0622

>  <SCORE.INTRA.DIHEDRAL.0>
31.9578

>  <SCORE.INTRA.POLAR>
0

>  <SCORE.INTRA.POLAR.0>
0

>  <SCORE.INTRA.REPUL>
0

>  <SCORE.INTRA.REPUL.0>
0

>  <SCORE.INTRA.SOLV>
-1.45191

>  <SCORE.INTRA.SOLV.lig_0>
-48.4032

>  <SCORE.INTRA.VDW>
0.262122

>  <SCORE.INTRA.VDW.0>
-1.65238

>  <SCORE.INTRA.norm>
-1.19192

>  <SCORE.RESTR>
0

>  <SCORE.RESTR.CAVITY>
0

>  <SCORE.RESTR.norm>
0

>  <SCORE.SYSTEM>
0

>  <SCORE.SYSTEM.CONST>
0

>  <SCORE.SYSTEM.DIHEDRAL>
0

>  <SCORE.SYSTEM.SOLV>
0

>  <SCORE.SYSTEM.norm>
0

>  <SCORE.heavy>
13

>  <SCORE.norm>
-0.997861

>  <RMSD>
7.708

$$$$
ligand
 OpenBabel11021811473D
libRbt.so/2013.1/901 2013/11/27
 13 12  0  0  0  0  0  0  0  0999 V2000
   36.0055   31.1046   49.4401 O   0  0  0  0  0  0  0  0  0  0  0  0
   36.4227   31.3923   46.5931 O   0  0  0  0  0  0  0  0  0  0  0  0
   32.1733   32.6786   50.8203 P   0  0  1  0  0  0  0  0  0  0  0  0
   31.5560   31.3080   50.8570 O   0  5  0  0  0  0  0  0  0  0  0  0
   31.8164   33.8512   51.5886 O   0  0  0  0  0  0  0  0  0  0  0  0
   33.7070   32.3837   50.4152 O   0  0  0  0  0  0  0  0  0  0  0  0
   35.3500   31.5227   43.0535 O   0  0  0  0  0  0  0  0  0  0  0  0
   34.6126   31.6977   51.3067 C   0  0  0  0  0  0  0  0  0  0  0  0
   37.2527   30.5334   47.3990 C   0  0  0  0  0  0  0  0  0  0  0  0
   35.4133   31.9241   44.4335 C   0  0  0  0  0  0  0  0  0  0  0  0
   36.0390   31.7051   50.7373 C   0  0  0  0  0  0  0  0  0  0  0  0
   37.3196   31.0607   48.8512 C   0  0  0  0  0  0  0  0  0  0  0  0
   36.3567   30.9811   45.2163 C   0  0  0  0  0  0  0  0  0  0  0  0
  1 12  1  0  0  0  0
  1 11  1  0  0  0  0
  2 13  1  0  0  0  0
  2  9  1  0  0  0  0
  3  4  1  1  0  0  0
  3  5  2  0  0  0  0
  3  6  1  0  0  0  0
  6  8  1  0  0  0  0
  7 10  1  0  0  0  0
  8 11  1  0  0  0  0
  9 12  1  0  0  0  0
 10 13  1  0  0  0  0
M  CHG  1   4  -1
M  END
>  <CHROM.1>
-174.65697244,178.15819102,-67.82632208,-173.20005527,-56.94603544,177.97346489
60.02892281,179.63330911,-179.18829310,34.66028650,31.79414107,48.70915966
-1.00240148,-0.32857449,1.56896527

>  <Name>
ligand

>  <RI>
0

>  <Rbt.Current_Directory>
/home/itssahil/PROJECTS/Mol_Feturizer/New_Systems/rnas/3GS8

>  <Rbt.Executable>
rbdock ($Id: //depot/dev/client3/rdock/2013.1/src/exe/rbdock.cxx#4 $)

>  <Rbt.Library>
libRbt.so (2013.1, Build901 2013/11/27)

>  <Rbt.Parameter_File>
/export/apps/rDock/src/rDock_2013.1_src/data/scripts/dock_solv.prm

>  <Rbt.Receptor>
prm/pocket_docking_7.prm

>  <SCORE>
-14.6115

>  <SCORE.INTER>
1.49318

>  <SCORE.INTER.CONST>
1

>  <SCORE.INTER.POLAR>
0

>  <SCORE.INTER.ROT>
9

>  <SCORE.INTER.SOLV>
7.95012

>  <SCORE.INTER.VDW>
-11.2546

>  <SCORE.INTER.norm>
0.11486

>  <SCORE.INTRA>
-16.1046

>  <SCORE.INTRA.DIHEDRAL>
-31.1819

>  <SCORE.INTRA.DIHEDRAL.0>
31.9578

>  <SCORE.INTRA.POLAR>
0

>  <SCORE.INTRA.POLAR.0>
0

>  <SCORE.INTRA.REPUL>
0

>  <SCORE.INTRA.REPUL.0>
0

>  <SCORE.INTRA.SOLV>
-1.40167

>  <SCORE.INTRA.SOLV.lig_0>
-48.4032

>  <SCORE.INTRA.VDW>
0.187157

>  <SCORE.INTRA.VDW.0>
-1.65238

>  <SCORE.INTRA.norm>
-1.23882

>  <SCORE.RESTR>
0

>  <SCORE.RESTR.CAVITY>
0

>  <SCORE.RESTR.norm>
0

>  <SCORE.SYSTEM>
0

>  <SCORE.SYSTEM.CONST>
0

>  <SCORE.SYSTEM.DIHEDRAL>
0

>  <SCORE.SYSTEM.SOLV>
0

>  <SCORE.SYSTEM.norm>
0

>  <SCORE.heavy>
13

>  <SCORE.norm>
-1.12396

>  <RMSD>
7.723

$$$$
ligand
 OpenBabel11021811473D
libRbt.so/2013.1/901 2013/11/27
 13 12  0  0  0  0  0  0  0  0999 V2000
   36.7835   31.3646   48.2444 O   0  0  0  0  0  0  0  0  0  0  0  0
   36.0529   31.0980   45.4665 O   0  0  0  0  0  0  0  0  0  0  0  0
   33.5770   32.1060   51.1957 P   0  0  1  0  0  0  0  0  0  0  0  0
   33.5708   33.5301   50.7132 O   0  5  0  0  0  0  0  0  0  0  0  0
   32.4702   31.3125   51.6839 O   0  0  0  0  0  0  0  0  0  0  0  0
   34.7743   31.4329   50.3492 O   0  0  0  0  0  0  0  0  0  0  0  0
   33.8622   30.2372   43.8049 O   0  0  0  0  0  0  0  0  0  0  0  0
   36.1487   31.8455   50.5120 C   0  0  0  0  0  0  0  0  0  0  0  0
   37.4313   31.1083   45.8859 C   0  0  0  0  0  0  0  0  0  0  0  0
   34.3625   31.5857   43.7722 C   0  0  0  0  0  0  0  0  0  0  0  0
   37.0709   31.0206   49.6021 C   0  0  0  0  0  0  0  0  0  0  0  0
   37.5571   30.5657   47.3286 C   0  0  0  0  0  0  0  0  0  0  0  0
   35.8667   31.6009   44.1318 C   0  0  0  0  0  0  0  0  0  0  0  0
  1 12  1  0  0  0  0
  1 11  1  0  0  0  0
  2 13  1  0  0  0  0
  2  9  1  0  0  0  0
  3  4  1  6  0  0  0
  3  5  2  0  0  0  0
  3  6  1  0  0  0  0
  6  8  1  0  0  0  0
  7 10  1  0  0  0  0
  8 11  1  0  0  0  0
  9 12  1  0  0  0  0
 10 13  1  0  0  0  0
M  CHG  1   4  -1
M  END
>  <CHROM.1>
-169.95700968,-178.74273616,64.81265371,178.98567266,67.55849047,179.61087358
-59.28709755,-61.67889161,-176.43747625,35.16338389,31.50242876,48.19064789
-1.30938867,-0.14204304,1.45496441

>  <Name>
ligand

>  <RI>
0

>  <Rbt.Current_Directory>
/home/itssahil/PROJECTS/Mol_Feturizer/New_Systems/rnas/3GS8

>  <Rbt.Executable>
rbdock ($Id: //depot/dev/client3/rdock/2013.1/src/exe/rbdock.cxx#4 $)

>  <Rbt.Library>
libRbt.so (2013.1, Build901 2013/11/27)

>  <Rbt.Parameter_File>
/export/apps/rDock/src/rDock_2013.1_src/data/scripts/dock_solv.prm

>  <Rbt.Receptor>
prm/pocket_docking_8.prm

>  <SCORE>
-15.1182

>  <SCORE.INTER>
0.698407

>  <SCORE.INTER.CONST>
1

>  <SCORE.INTER.POLAR>
0

>  <SCORE.INTER.ROT>
9

>  <SCORE.INTER.SOLV>
12.8445

>  <SCORE.INTER.VDW>
-13.4159

>  <SCORE.INTER.norm>
0.0537236

>  <SCORE.INTRA>
-15.8166

>  <SCORE.INTRA.DIHEDRAL>
-30.5967

>  <SCORE.INTRA.DIHEDRAL.0>
31.9578

>  <SCORE.INTRA.POLAR>
0

>  <SCORE.INTRA.POLAR.0>
0

>  <SCORE.INTRA.REPUL>
0

>  <SCORE.INTRA.REPUL.0>
0

>  <SCORE.INTRA.SOLV>
-1.34481

>  <SCORE.INTRA.SOLV.lig_0>
-48.4032

>  <SCORE.INTRA.VDW>
0.154198

>  <SCORE.INTRA.VDW.0>
-1.65238

>  <SCORE.INTRA.norm>
-1.21666

>  <SCORE.RESTR>
0

>  <SCORE.RESTR.CAVITY>
0

>  <SCORE.RESTR.norm>
0

>  <SCORE.SYSTEM>
0

>  <SCORE.SYSTEM.CONST>
0

>  <SCORE.SYSTEM.DIHEDRAL>
0

>  <SCORE.SYSTEM.SOLV>
0

>  <SCORE.SYSTEM.norm>
0

>  <SCORE.heavy>
13

>  <SCORE.norm>
-1.16293

>  <RMSD>
7.723

$$$$
ligand
 OpenBabel11021811473D
libRbt.so/2013.1/901 2013/11/27
 13 12  0  0  0  0  0  0  0  0999 V2000
   36.9207   30.7397   49.7641 O   0  0  0  0  0  0  0  0  0  0  0  0
   36.8149   31.3697   46.8278 O   0  0  0  0  0  0  0  0  0  0  0  0
   32.5153   32.7695   51.2514 P   0  0  1  0  0  0  0  0  0  0  0  0
   32.1528   34.2265   51.1698 O   0  5  0  0  0  0  0  0  0  0  0  0
   31.6436   31.6308   51.4417 O   0  0  0  0  0  0  0  0  0  0  0  0
   33.8342   32.6633   50.3280 O   0  0  0  0  0  0  0  0  0  0  0  0
   36.2522   33.4206   44.9144 O   0  0  0  0  0  0  0  0  0  0  0  0
   34.8435   31.6553   50.5535 C   0  0  0  0  0  0  0  0  0  0  0  0
   37.6750   30.3949   47.4489 C   0  0  0  0  0  0  0  0  0  0  0  0
   35.5829   32.1480   44.8676 C   0  0  0  0  0  0  0  0  0  0  0  0
   35.9712   31.7801   49.5184 C   0  0  0  0  0  0  0  0  0  0  0  0
   38.0525   30.8463   48.8791 C   0  0  0  0  0  0  0  0  0  0  0  0
   36.4937   31.0488   45.4629 C   0  0  0  0  0  0  0  0  0  0  0  0
  1 12  1  0  0  0  0
  1 11  1  0  0  0  0
  2 13  1  0  0  0  0
  2  9  1  0  0  0  0
  3  4  1  6  0  0  0
  3  5  2  0  0  0  0
  3  6  1  0  0  0  0
  6  8  1  0  0  0  0
  7 10  1  0  0  0  0
  8 11  1  0  0  0  0
  9 12  1  0  0  0  0
 10 13  1  0  0  0  0
M  CHG  1   4  -1
M  END
>  <CHROM.1>
-74.21170494,-179.41160466,152.31714685,179.29463200,-178.42387913,176.37840202
71.57227843,59.57567250,-176.41300157,35.02760616,31.99413640,48.88109979
-0.72120061,-0.52995009,1.85771974

>  <Name>
ligand

>  <RI>
0

>  <Rbt.Current_Directory>
/home/itssahil/PROJECTS/Mol_Feturizer/New_Systems/rnas/3GS8

>  <Rbt.Executable>
rbdock ($Id: //depot/dev/client3/rdock/2013.1/src/exe/rbdock.cxx#4 $)

>  <Rbt.Library>
libRbt.so (2013.1, Build901 2013/11/27)

>  <Rbt.Parameter_File>
/export/apps/rDock/src/rDock_2013.1_src/data/scripts/dock_solv.prm

>  <Rbt.Receptor>
prm/pocket_docking_7.prm

>  <SCORE>
-12.073

>  <SCORE.INTER>
2.32615

>  <SCORE.INTER.CONST>
1

>  <SCORE.INTER.POLAR>
0

>  <SCORE.INTER.ROT>
9

>  <SCORE.INTER.SOLV>
6.33056

>  <SCORE.INTER.VDW>
-10.1594

>  <SCORE.INTER.norm>
0.178934

>  <SCORE.INTRA>
-14.3992

>  <SCORE.INTRA.DIHEDRAL>
-30.0056

>  <SCORE.INTRA.DIHEDRAL.0>
31.9578

>  <SCORE.INTRA.POLAR>
0

>  <SCORE.INTRA.POLAR.0>
0

>  <SCORE.INTRA.REPUL>
0

>  <SCORE.INTRA.REPUL.0>
0

>  <SCORE.INTRA.SOLV>
-1.43992

>  <SCORE.INTRA.SOLV.lig_0>
-48.4032

>  <SCORE.INTRA.VDW>
1.32359

>  <SCORE.INTRA.VDW.0>
-1.65238

>  <SCORE.INTRA.norm>
-1.10763

>  <SCORE.RESTR>
0

>  <SCORE.RESTR.CAVITY>
0

>  <SCORE.RESTR.norm>
0

>  <SCORE.SYSTEM>
0

>  <SCORE.SYSTEM.CONST>
0

>  <SCORE.SYSTEM.DIHEDRAL>
0

>  <SCORE.SYSTEM.SOLV>
0

>  <SCORE.SYSTEM.norm>
0

>  <SCORE.heavy>
13

>  <SCORE.norm>
-0.928693

>  <RMSD>
7.729

$$$$
ligand
 OpenBabel11021811473D
libRbt.so/2013.1/901 2013/11/27
 13 12  0  0  0  0  0  0  0  0999 V2000
   33.8257   32.6929   51.6224 O   0  0  0  0  0  0  0  0  0  0  0  0
   36.1848   31.0666   49.2540 O   0  0  0  0  0  0  0  0  0  0  0  0
   29.6687   31.7110   50.5923 P   0  0  1  0  0  0  0  0  0  0  0  0
   28.8531   31.2241   51.7580 O   0  5  0  0  0  0  0  0  0  0  0  0
   29.2096   32.2455   49.3288 O   0  0  0  0  0  0  0  0  0  0  0  0
   31.0182   32.2586   51.2869 O   0  0  0  0  0  0  0  0  0  0  0  0
   38.4625   30.6556   46.3661 O   0  0  0  0  0  0  0  0  0  0  0  0
   31.8514   31.4110   52.1072 C   0  0  0  0  0  0  0  0  0  0  0  0
   35.4148   32.1402   49.8287 C   0  0  0  0  0  0  0  0  0  0  0  0
   37.7540   30.2736   47.5584 C   0  0  0  0  0  0  0  0  0  0  0  0
   33.0184   32.2137   52.7009 C   0  0  0  0  0  0  0  0  0  0  0  0
   34.6237   31.6347   51.0577 C   0  0  0  0  0  0  0  0  0  0  0  0
   36.9093   31.4615   48.0757 C   0  0  0  0  0  0  0  0  0  0  0  0
  1 12  1  0  0  0  0
  1 11  1  0  0  0  0
  2 13  1  0  0  0  0
  2  9  1  0  0  0  0
  3  4  1  1  0  0  0
  3  5  2  0  0  0  0
  3  6  1  0  0  0  0
  6  8  1  0  0  0  0
  7 10  1  0  0  0  0
  8 11  1  0  0  0  0
  9 12  1  0  0  0  0
 10 13  1  0  0  0  0
M  CHG  1   4  -1
M  END
>  <CHROM.1>
175.90431785,177.57594705,57.93540098,-176.72169599,-62.60652025,177.94914416
-178.68046164,178.98105615,-75.08918118,33.24624896,31.62655054,50.14606974
-2.72537484,0.01565170,-1.79389778

>  <Name>
ligand

>  <RI>
0

>  <Rbt.Current_Directory>
/home/itssahil/PROJECTS/Mol_Feturizer/New_Systems/rnas/3GS8

>  <Rbt.Executable>
rbdock ($Id: //depot/dev/client3/rdock/2013.1/src/exe/rbdock.cxx#4 $)

>  <Rbt.Library>
libRbt.so (2013.1, Build901 2013/11/27)

>  <Rbt.Parameter_File>
/export/apps/rDock/src/rDock_2013.1_src/data/scripts/dock_solv.prm

>  <Rbt.Receptor>
prm/pocket_docking_8.prm

>  <SCORE>
-12.1662

>  <SCORE.INTER>
2.31409

>  <SCORE.INTER.CONST>
1

>  <SCORE.INTER.POLAR>
0

>  <SCORE.INTER.ROT>
9

>  <SCORE.INTER.SOLV>
6.62677

>  <SCORE.INTER.VDW>
-10.2662

>  <SCORE.INTER.norm>
0.178007

>  <SCORE.INTRA>
-14.4803

>  <SCORE.INTRA.DIHEDRAL>
-30.2472

>  <SCORE.INTRA.DIHEDRAL.0>
31.9578

>  <SCORE.INTRA.POLAR>
0

>  <SCORE.INTRA.POLAR.0>
0

>  <SCORE.INTRA.REPUL>
0

>  <SCORE.INTRA.REPUL.0>
0

>  <SCORE.INTRA.SOLV>
-1.70223

>  <SCORE.INTRA.SOLV.lig_0>
-48.4032

>  <SCORE.INTRA.VDW>
1.49446

>  <SCORE.INTRA.VDW.0>
-1.65238

>  <SCORE.INTRA.norm>
-1.11387

>  <SCORE.RESTR>
0

>  <SCORE.RESTR.CAVITY>
0

>  <SCORE.RESTR.norm>
0

>  <SCORE.SYSTEM>
0

>  <SCORE.SYSTEM.CONST>
0

>  <SCORE.SYSTEM.DIHEDRAL>
0

>  <SCORE.SYSTEM.SOLV>
0

>  <SCORE.SYSTEM.norm>
0

>  <SCORE.heavy>
13

>  <SCORE.norm>
-0.935859

>  <RMSD>
7.774

$$$$
ligand
 OpenBabel11021811473D
libRbt.so/2013.1/901 2013/11/27
 13 12  0  0  0  0  0  0  0  0999 V2000
   37.4210   30.9653   48.1102 O   0  0  0  0  0  0  0  0  0  0  0  0
   35.6291   31.5708   44.9234 O   0  0  0  0  0  0  0  0  0  0  0  0
   35.6484   33.3071   51.5979 P   0  0  1  0  0  0  0  0  0  0  0  0
   37.0838   33.7513   51.5398 O   0  5  0  0  0  0  0  0  0  0  0  0
   34.4554   34.0622   51.2826 O   0  0  0  0  0  0  0  0  0  0  0  0
   35.7371   31.7252   51.2932 O   0  0  0  0  0  0  0  0  0  0  0  0
   33.0870   31.3846   43.6743 O   0  0  0  0  0  0  0  0  0  0  0  0
   35.8969   31.2150   49.9517 C   0  0  0  0  0  0  0  0  0  0  0  0
   36.6390   31.0013   45.7787 C   0  0  0  0  0  0  0  0  0  0  0  0
   34.2884   31.4483   42.8854 C   0  0  0  0  0  0  0  0  0  0  0  0
   37.3047   31.5240   49.4211 C   0  0  0  0  0  0  0  0  0  0  0  0
   36.6343   31.7046   47.1561 C   0  0  0  0  0  0  0  0  0  0  0  0
   35.4764   30.8601   43.6822 C   0  0  0  0  0  0  0  0  0  0  0  0
  1 12  1  0  0  0  0
  1 11  1  0  0  0  0
  2 13  1  0  0  0  0
  2  9  1  0  0  0  0
  3  4  1  6  0  0  0
  3  5  2  0  0  0  0
  3  6  1  0  0  0  0
  6  8  1  0  0  0  0
  7 10  1  0  0  0  0
  8 11  1  0  0  0  0
  9 12  1  0  0  0  0
 10 13  1  0  0  0  0
M  CHG  1   4  -1
M  END
>  <CHROM.1>
-173.60704081,174.61751674,-78.94524430,70.37872712,178.35053129,-173.25332587
167.35769105,-57.25241314,71.44217709,35.76833325,32.02021900,48.13557798
-1.72929295,-0.46302753,1.26238977

>  <Name>
ligand

>  <RI>
0

>  <Rbt.Current_Directory>
/home/itssahil/PROJECTS/Mol_Feturizer/New_Systems/rnas/3GS8

>  <Rbt.Executable>
rbdock ($Id: //depot/dev/client3/rdock/2013.1/src/exe/rbdock.cxx#4 $)

>  <Rbt.Library>
libRbt.so (2013.1, Build901 2013/11/27)

>  <Rbt.Parameter_File>
/export/apps/rDock/src/rDock_2013.1_src/data/scripts/dock_solv.prm

>  <Rbt.Receptor>
prm/pocket_docking_6.prm

>  <SCORE>
-10.7967

>  <SCORE.INTER>
2.00503

>  <SCORE.INTER.CONST>
1

>  <SCORE.INTER.POLAR>
0

>  <SCORE.INTER.ROT>
9

>  <SCORE.INTER.SOLV>
5.52096

>  <SCORE.INTER.VDW>
-10.1036

>  <SCORE.INTER.norm>
0.154233

>  <SCORE.INTRA>
-12.8018

>  <SCORE.INTRA.DIHEDRAL>
-29.3409

>  <SCORE.INTRA.DIHEDRAL.0>
31.9578

>  <SCORE.INTRA.POLAR>
0

>  <SCORE.INTRA.POLAR.0>
0

>  <SCORE.INTRA.REPUL>
0

>  <SCORE.INTRA.REPUL.0>
0

>  <SCORE.INTRA.SOLV>
0.185325

>  <SCORE.INTRA.SOLV.lig_0>
-48.4032

>  <SCORE.INTRA.VDW>
1.77603

>  <SCORE.INTRA.VDW.0>
-1.65238

>  <SCORE.INTRA.norm>
-0.984752

>  <SCORE.RESTR>
0

>  <SCORE.RESTR.CAVITY>
0

>  <SCORE.RESTR.norm>
0

>  <SCORE.SYSTEM>
0

>  <SCORE.SYSTEM.CONST>
0

>  <SCORE.SYSTEM.DIHEDRAL>
0

>  <SCORE.SYSTEM.SOLV>
0

>  <SCORE.SYSTEM.norm>
0

>  <SCORE.heavy>
13

>  <SCORE.norm>
-0.830519

>  <RMSD>
7.786

$$$$
ligand
 OpenBabel11021811473D
libRbt.so/2013.1/901 2013/11/27
 13 12  0  0  0  0  0  0  0  0999 V2000
   35.0873   31.6456   50.3954 O   0  0  0  0  0  0  0  0  0  0  0  0
   36.8068   32.2509   48.1033 O   0  0  0  0  0  0  0  0  0  0  0  0
   30.7936   31.0565   51.1312 P   0  0  1  0  0  0  0  0  0  0  0  0
   30.3478   30.7750   52.5394 O   0  5  0  0  0  0  0  0  0  0  0  0
   30.1168   31.8184   50.1045 O   0  0  0  0  0  0  0  0  0  0  0  0
   32.4030   31.0590   51.2452 O   0  0  0  0  0  0  0  0  0  0  0  0
   37.1533   30.8912   44.6803 O   0  0  0  0  0  0  0  0  0  0  0  0
   33.1353   32.2288   51.6705 C   0  0  0  0  0  0  0  0  0  0  0  0
   36.9754   31.0793   48.9248 C   0  0  0  0  0  0  0  0  0  0  0  0
   36.5275   31.1231   45.9548 C   0  0  0  0  0  0  0  0  0  0  0  0
   34.6414   31.9327   51.7232 C   0  0  0  0  0  0  0  0  0  0  0  0
   36.4998   31.3636   50.3687 C   0  0  0  0  0  0  0  0  0  0  0  0
   37.3795   32.1059   46.7917 C   0  0  0  0  0  0  0  0  0  0  0  0
  1 12  1  0  0  0  0
  1 11  1  0  0  0  0
  2 13  1  0  0  0  0
  2  9  1  0  0  0  0
  3  4  1  1  0  0  0
  3  5  2  0  0  0  0
  3  6  1  0  0  0  0
  6  8  1  0  0  0  0
  7 10  1  0  0  0  0
  8 11  1  0  0  0  0
  9 12  1  0  0  0  0
 10 13  1  0  0  0  0
M  CHG  1   4  -1
M  END
>  <CHROM.1>
-178.99848042,71.41017555,-83.38649953,178.43124808,64.14477043,172.88350681
63.86210246,-175.41567235,179.70784119,34.11296866,31.44787115,49.64040977
-0.65974698,0.10659453,1.47458294

>  <Name>
ligand

>  <RI>
0

>  <Rbt.Current_Directory>
/home/itssahil/PROJECTS/Mol_Feturizer/New_Systems/rnas/3GS8

>  <Rbt.Executable>
rbdock ($Id: //depot/dev/client3/rdock/2013.1/src/exe/rbdock.cxx#4 $)

>  <Rbt.Library>
libRbt.so (2013.1, Build901 2013/11/27)

>  <Rbt.Parameter_File>
/export/apps/rDock/src/rDock_2013.1_src/data/scripts/dock_solv.prm

>  <Rbt.Receptor>
prm/pocket_docking_6.prm

>  <SCORE>
-13.0147

>  <SCORE.INTER>
1.87471

>  <SCORE.INTER.CONST>
1

>  <SCORE.INTER.POLAR>
0

>  <SCORE.INTER.ROT>
9

>  <SCORE.INTER.SOLV>
8.23769

>  <SCORE.INTER.VDW>
-11.0961

>  <SCORE.INTER.norm>
0.144208

>  <SCORE.INTRA>
-14.8894

>  <SCORE.INTRA.DIHEDRAL>
-30.5552

>  <SCORE.INTRA.DIHEDRAL.0>
31.9578

>  <SCORE.INTRA.POLAR>
0

>  <SCORE.INTRA.POLAR.0>
0

>  <SCORE.INTRA.REPUL>
0

>  <SCORE.INTRA.REPUL.0>
0

>  <SCORE.INTRA.SOLV>
-1.38198

>  <SCORE.INTRA.SOLV.lig_0>
-48.4032

>  <SCORE.INTRA.VDW>
1.07919

>  <SCORE.INTRA.VDW.0>
-1.65238

>  <SCORE.INTRA.norm>
-1.14534

>  <SCORE.RESTR>
0

>  <SCORE.RESTR.CAVITY>
0

>  <SCORE.RESTR.norm>
0

>  <SCORE.SYSTEM>
0

>  <SCORE.SYSTEM.CONST>
0

>  <SCORE.SYSTEM.DIHEDRAL>
0

>  <SCORE.SYSTEM.SOLV>
0

>  <SCORE.SYSTEM.norm>
0

>  <SCORE.heavy>
13

>  <SCORE.norm>
-1.00113

>  <RMSD>
7.808

$$$$
ligand
 OpenBabel11021811473D
libRbt.so/2013.1/901 2013/11/27
 13 12  0  0  0  0  0  0  0  0999 V2000
   36.8360   31.3418   48.0695 O   0  0  0  0  0  0  0  0  0  0  0  0
   35.9570   30.8726   45.3205 O   0  0  0  0  0  0  0  0  0  0  0  0
   33.7834   32.1318   51.1259 P   0  0  1  0  0  0  0  0  0  0  0  0
   33.8214   33.5579   50.6510 O   0  5  0  0  0  0  0  0  0  0  0  0
   32.6573   31.3776   51.6318 O   0  0  0  0  0  0  0  0  0  0  0  0
   34.9378   31.4192   50.2525 O   0  0  0  0  0  0  0  0  0  0  0  0
   33.8185   31.3742   42.3419 O   0  0  0  0  0  0  0  0  0  0  0  0
   36.3271   31.7943   50.3744 C   0  0  0  0  0  0  0  0  0  0  0  0
   37.3316   31.1250   45.6704 C   0  0  0  0  0  0  0  0  0  0  0  0
   34.1449   30.9793   43.6862 C   0  0  0  0  0  0  0  0  0  0  0  0
   37.1935   30.9769   49.4049 C   0  0  0  0  0  0  0  0  0  0  0  0
   37.6222   30.6190   47.1026 C   0  0  0  0  0  0  0  0  0  0  0  0
   35.6341   31.2776   43.9785 C   0  0  0  0  0  0  0  0  0  0  0  0
  1 12  1  0  0  0  0
  1 11  1  0  0  0  0
  2 13  1  0  0  0  0
  2  9  1  0  0  0  0
  3  4  1  6  0  0  0
  3  5  2  0  0  0  0
  3  6  1  0  0  0  0
  6  8  1  0  0  0  0
  7 10  1  0  0  0  0
  8 11  1  0  0  0  0
  9 12  1  0  0  0  0
 10 13  1  0  0  0  0
M  CHG  1   4  -1
M  END
>  <CHROM.1>
-174.16017597,-179.74831210,63.76931263,-178.70923929,65.92018567,-177.88848069
-63.38283880,-179.61261332,179.46217729,35.22041987,31.51615522,47.96176209
-1.40554164,-0.20972376,1.47309020

>  <Name>
ligand

>  <RI>
0

>  <Rbt.Current_Directory>
/home/itssahil/PROJECTS/Mol_Feturizer/New_Systems/rnas/3GS8

>  <Rbt.Executable>
rbdock ($Id: //depot/dev/client3/rdock/2013.1/src/exe/rbdock.cxx#4 $)

>  <Rbt.Library>
libRbt.so (2013.1, Build901 2013/11/27)

>  <Rbt.Parameter_File>
/export/apps/rDock/src/rDock_2013.1_src/data/scripts/dock_solv.prm

>  <Rbt.Receptor>
prm/pocket_docking_7.prm

>  <SCORE>
-15.8582

>  <SCORE.INTER>
0.177366

>  <SCORE.INTER.CONST>
1

>  <SCORE.INTER.POLAR>
0

>  <SCORE.INTER.ROT>
9

>  <SCORE.INTER.SOLV>
12.2412

>  <SCORE.INTER.VDW>
-13.5622

>  <SCORE.INTER.norm>
0.0136435

>  <SCORE.INTRA>
-16.0356

>  <SCORE.INTRA.DIHEDRAL>
-31.036

>  <SCORE.INTRA.DIHEDRAL.0>
31.9578

>  <SCORE.INTRA.POLAR>
0

>  <SCORE.INTRA.POLAR.0>
0

>  <SCORE.INTRA.REPUL>
0

>  <SCORE.INTRA.REPUL.0>
0

>  <SCORE.INTRA.SOLV>
-1.5622

>  <SCORE.INTRA.SOLV.lig_0>
-48.4032

>  <SCORE.INTRA.VDW>
0.263502

>  <SCORE.INTRA.VDW.0>
-1.65238

>  <SCORE.INTRA.norm>
-1.23351

>  <SCORE.RESTR>
0

>  <SCORE.RESTR.CAVITY>
0

>  <SCORE.RESTR.norm>
0

>  <SCORE.SYSTEM>
0

>  <SCORE.SYSTEM.CONST>
0

>  <SCORE.SYSTEM.DIHEDRAL>
0

>  <SCORE.SYSTEM.SOLV>
0

>  <SCORE.SYSTEM.norm>
0

>  <SCORE.heavy>
13

>  <SCORE.norm>
-1.21986

>  <RMSD>
7.821

$$$$
ligand
 OpenBabel11021811473D
libRbt.so/2013.1/901 2013/11/27
 13 12  0  0  0  0  0  0  0  0999 V2000
   36.8294   31.3330   48.0292 O   0  0  0  0  0  0  0  0  0  0  0  0
   35.9397   30.8907   45.3180 O   0  0  0  0  0  0  0  0  0  0  0  0
   33.8143   32.3403   51.0775 P   0  0  1  0  0  0  0  0  0  0  0  0
   32.5274   31.9880   50.3842 O   0  5  0  0  0  0  0  0  0  0  0  0
   34.0363   32.6315   52.4771 O   0  0  0  0  0  0  0  0  0  0  0  0
   34.9303   31.5745   50.1993 O   0  0  0  0  0  0  0  0  0  0  0  0
   33.8230   31.3801   42.3218 O   0  0  0  0  0  0  0  0  0  0  0  0
   36.3363   31.8833   50.3161 C   0  0  0  0  0  0  0  0  0  0  0  0
   37.3363   31.0352   45.6412 C   0  0  0  0  0  0  0  0  0  0  0  0
   34.1354   31.0073   43.6757 C   0  0  0  0  0  0  0  0  0  0  0  0
   37.1638   30.9932   49.3771 C   0  0  0  0  0  0  0  0  0  0  0  0
   37.6035   30.5629   47.0894 C   0  0  0  0  0  0  0  0  0  0  0  0
   35.6353   31.2558   43.9604 C   0  0  0  0  0  0  0  0  0  0  0  0
  1 12  1  0  0  0  0
  1 11  1  0  0  0  0
  2 13  1  0  0  0  0
  2  9  1  0  0  0  0
  3  4  1  1  0  0  0
  3  5  2  0  0  0  0
  3  6  1  0  0  0  0
  6  8  1  0  0  0  0
  7 10  1  0  0  0  0
  8 11  1  0  0  0  0
  9 12  1  0  0  0  0
 10 13  1  0  0  0  0
M  CHG  1   4  -1
M  END
>  <CHROM.1>
-174.40482104,177.24977075,165.22670661,179.38112361,65.91565461,-177.28741184
-59.58420120,179.57633441,178.15545480,35.22647672,31.53342561,47.97926248
-1.42558062,-0.21341154,1.45348603

>  <Name>
ligand

>  <RI>
0

>  <Rbt.Current_Directory>
/home/itssahil/PROJECTS/Mol_Feturizer/New_Systems/rnas/3GS8

>  <Rbt.Executable>
rbdock ($Id: //depot/dev/client3/rdock/2013.1/src/exe/rbdock.cxx#4 $)

>  <Rbt.Library>
libRbt.so (2013.1, Build901 2013/11/27)

>  <Rbt.Parameter_File>
/export/apps/rDock/src/rDock_2013.1_src/data/scripts/dock_solv.prm

>  <Rbt.Receptor>
prm/pocket_docking_8.prm

>  <SCORE>
-15.8559

>  <SCORE.INTER>
0.479833

>  <SCORE.INTER.CONST>
1

>  <SCORE.INTER.POLAR>
0

>  <SCORE.INTER.ROT>
9

>  <SCORE.INTER.SOLV>
11.4207

>  <SCORE.INTER.VDW>
-13.087

>  <SCORE.INTER.norm>
0.0369102

>  <SCORE.INTRA>
-16.3357

>  <SCORE.INTRA.DIHEDRAL>
-31.2961

>  <SCORE.INTRA.DIHEDRAL.0>
31.9578

>  <SCORE.INTRA.POLAR>
0

>  <SCORE.INTRA.POLAR.0>
0

>  <SCORE.INTRA.REPUL>
0

>  <SCORE.INTRA.REPUL.0>
0

>  <SCORE.INTRA.SOLV>
-1.72893

>  <SCORE.INTRA.SOLV.lig_0>
-48.4032

>  <SCORE.INTRA.VDW>
0.176772

>  <SCORE.INTRA.VDW.0>
-1.65238

>  <SCORE.INTRA.norm>
-1.2566

>  <SCORE.RESTR>
0

>  <SCORE.RESTR.CAVITY>
0

>  <SCORE.RESTR.norm>
0

>  <SCORE.SYSTEM>
0

>  <SCORE.SYSTEM.CONST>
0

>  <SCORE.SYSTEM.DIHEDRAL>
0

>  <SCORE.SYSTEM.SOLV>
0

>  <SCORE.SYSTEM.norm>
0

>  <SCORE.heavy>
13

>  <SCORE.norm>
-1.21969

>  <RMSD>
7.827

$$$$
ligand
 OpenBabel11021811473D
libRbt.so/2013.1/901 2013/11/27
 13 12  0  0  0  0  0  0  0  0999 V2000
   36.7770   31.3252   47.9638 O   0  0  0  0  0  0  0  0  0  0  0  0
   35.8640   30.8486   45.2530 O   0  0  0  0  0  0  0  0  0  0  0  0
   33.7350   32.2775   50.9481 P   0  0  1  0  0  0  0  0  0  0  0  0
   34.0502   31.9653   52.3849 O   0  5  0  0  0  0  0  0  0  0  0  0
   33.1006   33.4554   50.3976 O   0  0  0  0  0  0  0  0  0  0  0  0
   34.8924   31.4993   50.1370 O   0  0  0  0  0  0  0  0  0  0  0  0
   33.7234   31.3701   42.2793 O   0  0  0  0  0  0  0  0  0  0  0  0
   36.2840   31.8678   50.2526 C   0  0  0  0  0  0  0  0  0  0  0  0
   37.2596   31.0093   45.5731 C   0  0  0  0  0  0  0  0  0  0  0  0
   34.0396   31.0178   43.6378 C   0  0  0  0  0  0  0  0  0  0  0  0
   37.1475   31.0167   49.3099 C   0  0  0  0  0  0  0  0  0  0  0  0
   37.5350   30.5422   47.0214 C   0  0  0  0  0  0  0  0  0  0  0  0
   35.5521   31.2121   43.8966 C   0  0  0  0  0  0  0  0  0  0  0  0
  1 12  1  0  0  0  0
  1 11  1  0  0  0  0
  2 13  1  0  0  0  0
  2  9  1  0  0  0  0
  3  4  1  1  0  0  0
  3  5  2  0  0  0  0
  3  6  1  0  0  0  0
  6  8  1  0  0  0  0
  7 10  1  0  0  0  0
  8 11  1  0  0  0  0
  9 12  1  0  0  0  0
 10 13  1  0  0  0  0
M  CHG  1   4  -1
M  END
>  <CHROM.1>
-172.74255180,-179.73165854,-65.19158176,-176.61671766,64.72477012,-177.46669477
-60.88225145,-179.55941622,-179.00608779,35.21312581,31.56992596,47.91198729
-1.44322387,-0.31280466,1.45431630

>  <Name>
ligand

>  <RI>
0

>  <Rbt.Current_Directory>
/home/itssahil/PROJECTS/Mol_Feturizer/New_Systems/rnas/3GS8

>  <Rbt.Executable>
rbdock ($Id: //depot/dev/client3/rdock/2013.1/src/exe/rbdock.cxx#4 $)

>  <Rbt.Library>
libRbt.so (2013.1, Build901 2013/11/27)

>  <Rbt.Parameter_File>
/export/apps/rDock/src/rDock_2013.1_src/data/scripts/dock_solv.prm

>  <Rbt.Receptor>
prm/pocket_docking_6.prm

>  <SCORE>
-15.8855

>  <SCORE.INTER>
0.178862

>  <SCORE.INTER.CONST>
1

>  <SCORE.INTER.POLAR>
0

>  <SCORE.INTER.ROT>
9

>  <SCORE.INTER.SOLV>
11.544

>  <SCORE.INTER.VDW>
-13.3287

>  <SCORE.INTER.norm>
0.0137586

>  <SCORE.INTRA>
-16.0644

>  <SCORE.INTRA.DIHEDRAL>
-31.1501

>  <SCORE.INTRA.DIHEDRAL.0>
31.9578

>  <SCORE.INTRA.POLAR>
0

>  <SCORE.INTRA.POLAR.0>
0

>  <SCORE.INTRA.REPUL>
0

>  <SCORE.INTRA.REPUL.0>
0

>  <SCORE.INTRA.SOLV>
-1.3927

>  <SCORE.INTRA.SOLV.lig_0>
-48.4032

>  <SCORE.INTRA.VDW>
0.207006

>  <SCORE.INTRA.VDW.0>
-1.65238

>  <SCORE.INTRA.norm>
-1.23572

>  <SCORE.RESTR>
0

>  <SCORE.RESTR.CAVITY>
0

>  <SCORE.RESTR.norm>
0

>  <SCORE.SYSTEM>
0

>  <SCORE.SYSTEM.CONST>
0

>  <SCORE.SYSTEM.DIHEDRAL>
0

>  <SCORE.SYSTEM.SOLV>
0

>  <SCORE.SYSTEM.norm>
0

>  <SCORE.heavy>
13

>  <SCORE.norm>
-1.22196

>  <RMSD>
7.847

$$$$
ligand
 OpenBabel11021811473D
libRbt.so/2013.1/901 2013/11/27
 13 12  0  0  0  0  0  0  0  0999 V2000
   36.7904   31.3597   47.9912 O   0  0  0  0  0  0  0  0  0  0  0  0
   35.9369   30.8616   45.2623 O   0  0  0  0  0  0  0  0  0  0  0  0
   33.7156   32.2785   50.9792 P   0  0  1  0  0  0  0  0  0  0  0  0
   34.0424   32.0487   52.4289 O   0  5  0  0  0  0  0  0  0  0  0  0
   33.0566   33.4134   50.3704 O   0  0  0  0  0  0  0  0  0  0  0  0
   34.8844   31.4803   50.2046 O   0  0  0  0  0  0  0  0  0  0  0  0
   33.8133   31.3719   42.2745 O   0  0  0  0  0  0  0  0  0  0  0  0
   36.2661   31.8944   50.2749 C   0  0  0  0  0  0  0  0  0  0  0  0
   37.3196   31.0754   45.6064 C   0  0  0  0  0  0  0  0  0  0  0  0
   34.1285   30.9911   43.6255 C   0  0  0  0  0  0  0  0  0  0  0  0
   37.1341   31.0379   49.3413 C   0  0  0  0  0  0  0  0  0  0  0  0
   37.5898   30.6098   47.0562 C   0  0  0  0  0  0  0  0  0  0  0  0
   35.6298   31.2343   43.9073 C   0  0  0  0  0  0  0  0  0  0  0  0
  1 12  1  0  0  0  0
  1 11  1  0  0  0  0
  2 13  1  0  0  0  0
  2  9  1  0  0  0  0
  3  4  1  1  0  0  0
  3  5  2  0  0  0  0
  3  6  1  0  0  0  0
  6  8  1  0  0  0  0
  7 10  1  0  0  0  0
  8 11  1  0  0  0  0
  9 12  1  0  0  0  0
 10 13  1  0  0  0  0
M  CHG  1   4  -1
M  END
>  <CHROM.1>
-173.83573428,-179.30003275,-66.28620259,-174.66362763,68.82125202,-178.05728360
-61.13525966,179.55890309,178.78514870,35.23571679,31.58727449,47.93336264
-1.42924459,-0.30029518,1.45753669

>  <Name>
ligand

>  <RI>
0

>  <Rbt.Current_Directory>
/home/itssahil/PROJECTS/Mol_Feturizer/New_Systems/rnas/3GS8

>  <Rbt.Executable>
rbdock ($Id: //depot/dev/client3/rdock/2013.1/src/exe/rbdock.cxx#4 $)

>  <Rbt.Library>
libRbt.so (2013.1, Build901 2013/11/27)

>  <Rbt.Parameter_File>
/export/apps/rDock/src/rDock_2013.1_src/data/scripts/dock_solv.prm

>  <Rbt.Receptor>
prm/pocket_docking_6.prm

>  <SCORE>
-15.8958

>  <SCORE.INTER>
0.093681

>  <SCORE.INTER.CONST>
1

>  <SCORE.INTER.POLAR>
0

>  <SCORE.INTER.ROT>
9

>  <SCORE.INTER.SOLV>
11.0288

>  <SCORE.INTER.VDW>
-13.2138

>  <SCORE.INTER.norm>
0.00720623

>  <SCORE.INTRA>
-15.9895

>  <SCORE.INTRA.DIHEDRAL>
-30.9551

>  <SCORE.INTRA.DIHEDRAL.0>
31.9578

>  <SCORE.INTRA.POLAR>
0

>  <SCORE.INTRA.POLAR.0>
0

>  <SCORE.INTRA.REPUL>
0

>  <SCORE.INTRA.REPUL.0>
0

>  <SCORE.INTRA.SOLV>
-1.41427

>  <SCORE.INTRA.SOLV.lig_0>
-48.4032

>  <SCORE.INTRA.VDW>
0.195179

>  <SCORE.INTRA.VDW.0>
-1.65238

>  <SCORE.INTRA.norm>
-1.22996

>  <SCORE.RESTR>
0

>  <SCORE.RESTR.CAVITY>
0

>  <SCORE.RESTR.norm>
0

>  <SCORE.SYSTEM>
0

>  <SCORE.SYSTEM.CONST>
0

>  <SCORE.SYSTEM.DIHEDRAL>
0

>  <SCORE.SYSTEM.SOLV>
0

>  <SCORE.SYSTEM.norm>
0

>  <SCORE.heavy>
13

>  <SCORE.norm>
-1.22276

>  <RMSD>
7.867

$$$$
ligand
 OpenBabel11021811473D
libRbt.so/2013.1/901 2013/11/27
 13 12  0  0  0  0  0  0  0  0999 V2000
   36.4077   31.4489   47.9606 O   0  0  0  0  0  0  0  0  0  0  0  0
   35.9686   30.8263   45.2293 O   0  0  0  0  0  0  0  0  0  0  0  0
   34.2713   32.2506   52.4921 P   0  0  1  0  0  0  0  0  0  0  0  0
   32.9514   31.6771   52.0560 O   0  5  0  0  0  0  0  0  0  0  0  0
   34.6784   32.6787   53.8126 O   0  0  0  0  0  0  0  0  0  0  0  0
   35.3244   31.5721   51.4753 O   0  0  0  0  0  0  0  0  0  0  0  0
   33.5241   31.8402   44.0591 O   0  0  0  0  0  0  0  0  0  0  0  0
   35.3405   31.8939   50.0675 C   0  0  0  0  0  0  0  0  0  0  0  0
   37.3096   31.0453   45.7085 C   0  0  0  0  0  0  0  0  0  0  0  0
   34.3540   30.8693   43.3970 C   0  0  0  0  0  0  0  0  0  0  0  0
   36.4768   31.1448   49.3559 C   0  0  0  0  0  0  0  0  0  0  0  0
   37.4006   30.7164   47.2169 C   0  0  0  0  0  0  0  0  0  0  0  0
   35.8303   31.0608   43.8168 C   0  0  0  0  0  0  0  0  0  0  0  0
  1 12  1  0  0  0  0
  1 11  1  0  0  0  0
  2 13  1  0  0  0  0
  2  9  1  0  0  0  0
  3  4  1  1  0  0  0
  3  5  2  0  0  0  0
  3  6  1  0  0  0  0
  6  8  1  0  0  0  0
  7 10  1  0  0  0  0
  8 11  1  0  0  0  0
  9 12  1  0  0  0  0
 10 13  1  0  0  0  0
M  CHG  1   4  -1
M  END
>  <CHROM.1>
179.58582879,-177.35914475,68.03590210,177.78600432,177.29757115,-177.52227443
-53.98942482,62.95432701,-176.66119798,35.25219912,31.53839219,48.59804889
-1.43804591,-0.18954210,1.46765496

>  <Name>
ligand

>  <RI>
0

>  <Rbt.Current_Directory>
/home/itssahil/PROJECTS/Mol_Feturizer/New_Systems/rnas/3GS8

>  <Rbt.Executable>
rbdock ($Id: //depot/dev/client3/rdock/2013.1/src/exe/rbdock.cxx#4 $)

>  <Rbt.Library>
libRbt.so (2013.1, Build901 2013/11/27)

>  <Rbt.Parameter_File>
/export/apps/rDock/src/rDock_2013.1_src/data/scripts/dock_solv.prm

>  <Rbt.Receptor>
prm/pocket_docking_8.prm

>  <SCORE>
-15.7953

>  <SCORE.INTER>
0.126667

>  <SCORE.INTER.CONST>
1

>  <SCORE.INTER.POLAR>
0

>  <SCORE.INTER.ROT>
9

>  <SCORE.INTER.SOLV>
14.3475

>  <SCORE.INTER.VDW>
-14.2981

>  <SCORE.INTER.norm>
0.00974361

>  <SCORE.INTRA>
-15.922

>  <SCORE.INTRA.DIHEDRAL>
-30.9629

>  <SCORE.INTRA.DIHEDRAL.0>
31.9578

>  <SCORE.INTRA.POLAR>
0

>  <SCORE.INTRA.POLAR.0>
0

>  <SCORE.INTRA.REPUL>
0

>  <SCORE.INTRA.REPUL.0>
0

>  <SCORE.INTRA.SOLV>
-1.42022

>  <SCORE.INTRA.SOLV.lig_0>
-48.4032

>  <SCORE.INTRA.VDW>
0.269605

>  <SCORE.INTRA.VDW.0>
-1.65238

>  <SCORE.INTRA.norm>
-1.22477

>  <SCORE.RESTR>
0

>  <SCORE.RESTR.CAVITY>
0

>  <SCORE.RESTR.norm>
0

>  <SCORE.SYSTEM>
0

>  <SCORE.SYSTEM.CONST>
0

>  <SCORE.SYSTEM.DIHEDRAL>
0

>  <SCORE.SYSTEM.SOLV>
0

>  <SCORE.SYSTEM.norm>
0

>  <SCORE.heavy>
13

>  <SCORE.norm>
-1.21502

>  <RMSD>
7.911

$$$$
ligand
 OpenBabel11021811473D
libRbt.so/2013.1/901 2013/11/27
 13 12  0  0  0  0  0  0  0  0999 V2000
   36.5347   31.5118   48.2843 O   0  0  0  0  0  0  0  0  0  0  0  0
   35.9841   31.0910   45.5024 O   0  0  0  0  0  0  0  0  0  0  0  0
   34.5021   32.3421   52.8582 P   0  0  1  0  0  0  0  0  0  0  0  0
   35.3948   33.4423   53.3618 O   0  5  0  0  0  0  0  0  0  0  0  0
   33.0609   32.3342   52.7324 O   0  0  0  0  0  0  0  0  0  0  0  0
   35.4348   31.5650   51.7955 O   0  0  0  0  0  0  0  0  0  0  0  0
   33.8043   30.2596   43.8319 O   0  0  0  0  0  0  0  0  0  0  0  0
   35.5290   31.9817   50.4159 C   0  0  0  0  0  0  0  0  0  0  0  0
   37.3365   31.0827   45.9993 C   0  0  0  0  0  0  0  0  0  0  0  0
   34.4080   31.5583   43.6959 C   0  0  0  0  0  0  0  0  0  0  0  0
   36.5325   31.1031   49.6544 C   0  0  0  0  0  0  0  0  0  0  0  0
   37.3604   30.6453   47.4824 C   0  0  0  0  0  0  0  0  0  0  0  0
   35.8924   31.4996   44.1263 C   0  0  0  0  0  0  0  0  0  0  0  0
  1 12  1  0  0  0  0
  1 11  1  0  0  0  0
  2 13  1  0  0  0  0
  2  9  1  0  0  0  0
  3  4  1  6  0  0  0
  3  5  2  0  0  0  0
  3  6  1  0  0  0  0
  6  8  1  0  0  0  0
  7 10  1  0  0  0  0
  8 11  1  0  0  0  0
  9 12  1  0  0  0  0
 10 13  1  0  0  0  0
M  CHG  1   4  -1
M  END
>  <CHROM.1>
179.06167989,-176.82690664,-86.44636234,177.46278501,177.02300166,179.58909972
-57.39397241,-60.46945274,-174.48160470,35.41208469,31.63975135,48.84148877
-1.47319494,-0.11056906,1.40721193

>  <Name>
ligand

>  <RI>
0

>  <Rbt.Current_Directory>
/home/itssahil/PROJECTS/Mol_Feturizer/New_Systems/rnas/3GS8

>  <Rbt.Executable>
rbdock ($Id: //depot/dev/client3/rdock/2013.1/src/exe/rbdock.cxx#4 $)

>  <Rbt.Library>
libRbt.so (2013.1, Build901 2013/11/27)

>  <Rbt.Parameter_File>
/export/apps/rDock/src/rDock_2013.1_src/data/scripts/dock_solv.prm

>  <Rbt.Receptor>
prm/pocket_docking_7.prm

>  <SCORE>
-15.8473

>  <SCORE.INTER>
0.280482

>  <SCORE.INTER.CONST>
1

>  <SCORE.INTER.POLAR>
0

>  <SCORE.INTER.ROT>
9

>  <SCORE.INTER.SOLV>
11.6224

>  <SCORE.INTER.VDW>
-13.2871

>  <SCORE.INTER.norm>
0.0215756

>  <SCORE.INTRA>
-16.1278

>  <SCORE.INTRA.DIHEDRAL>
-31.3125

>  <SCORE.INTRA.DIHEDRAL.0>
31.9578

>  <SCORE.INTRA.POLAR>
0

>  <SCORE.INTRA.POLAR.0>
0

>  <SCORE.INTRA.REPUL>
0

>  <SCORE.INTRA.REPUL.0>
0

>  <SCORE.INTRA.SOLV>
-1.29933

>  <SCORE.INTRA.SOLV.lig_0>
-48.4032

>  <SCORE.INTRA.VDW>
0.178129

>  <SCORE.INTRA.VDW.0>
-1.65238

>  <SCORE.INTRA.norm>
-1.2406

>  <SCORE.RESTR>
0

>  <SCORE.RESTR.CAVITY>
0

>  <SCORE.RESTR.norm>
0

>  <SCORE.SYSTEM>
0

>  <SCORE.SYSTEM.CONST>
0

>  <SCORE.SYSTEM.DIHEDRAL>
0

>  <SCORE.SYSTEM.SOLV>
0

>  <SCORE.SYSTEM.norm>
0

>  <SCORE.heavy>
13

>  <SCORE.norm>
-1.21902

>  <RMSD>
8.031

$$$$
ligand
 OpenBabel11021811473D
libRbt.so/2013.1/901 2013/11/27
 13 12  0  0  0  0  0  0  0  0999 V2000
   34.9920   31.3679   50.4213 O   0  0  0  0  0  0  0  0  0  0  0  0
   36.5788   31.4265   48.0280 O   0  0  0  0  0  0  0  0  0  0  0  0
   30.4461   31.8683   52.6170 P   0  0  1  0  0  0  0  0  0  0  0  0
   30.1969   32.1725   54.0683 O   0  5  0  0  0  0  0  0  0  0  0  0
   29.5337   31.9828   51.5002 O   0  0  0  0  0  0  0  0  0  0  0  0
   32.0210   32.1708   52.4398 O   0  0  0  0  0  0  0  0  0  0  0  0
   36.6752   32.7102   45.4471 O   0  0  0  0  0  0  0  0  0  0  0  0
   32.7960   31.5783   51.3749 C   0  0  0  0  0  0  0  0  0  0  0  0
   37.1551   31.0523   49.2944 C   0  0  0  0  0  0  0  0  0  0  0  0
   36.5751   31.2822   45.5897 C   0  0  0  0  0  0  0  0  0  0  0  0
   34.2717   31.9882   51.4893 C   0  0  0  0  0  0  0  0  0  0  0  0
   36.3866   31.7279   50.4540 C   0  0  0  0  0  0  0  0  0  0  0  0
   37.2537   30.8328   46.9049 C   0  0  0  0  0  0  0  0  0  0  0  0
  1 12  1  0  0  0  0
  1 11  1  0  0  0  0
  2 13  1  0  0  0  0
  2  9  1  0  0  0  0
  3  4  1  1  0  0  0
  3  5  2  0  0  0  0
  3  6  1  0  0  0  0
  6  8  1  0  0  0  0
  7 10  1  0  0  0  0
  8 11  1  0  0  0  0
  9 12  1  0  0  0  0
 10 13  1  0  0  0  0
M  CHG  1   4  -1
M  END
>  <CHROM.1>
-179.96477674,179.94591277,157.25845411,-177.32971030,179.54775591,179.79113816
57.95621037,61.97929449,179.06049597,33.86881532,31.73277097,50.20319678
-0.72869335,-0.13690923,1.64548186

>  <Name>
ligand

>  <RI>
0

>  <Rbt.Current_Directory>
/home/itssahil/PROJECTS/Mol_Feturizer/New_Systems/rnas/3GS8

>  <Rbt.Executable>
rbdock ($Id: //depot/dev/client3/rdock/2013.1/src/exe/rbdock.cxx#4 $)

>  <Rbt.Library>
libRbt.so (2013.1, Build901 2013/11/27)

>  <Rbt.Parameter_File>
/export/apps/rDock/src/rDock_2013.1_src/data/scripts/dock_solv.prm

>  <Rbt.Receptor>
prm/pocket_docking_7.prm

>  <SCORE>
-14.7073

>  <SCORE.INTER>
1.67026

>  <SCORE.INTER.CONST>
1

>  <SCORE.INTER.POLAR>
0

>  <SCORE.INTER.ROT>
9

>  <SCORE.INTER.SOLV>
4.50633

>  <SCORE.INTER.VDW>
-9.98861

>  <SCORE.INTER.norm>
0.128481

>  <SCORE.INTRA>
-16.3776

>  <SCORE.INTRA.DIHEDRAL>
-31.5782

>  <SCORE.INTRA.DIHEDRAL.0>
31.9578

>  <SCORE.INTRA.POLAR>
0

>  <SCORE.INTRA.POLAR.0>
0

>  <SCORE.INTRA.REPUL>
0

>  <SCORE.INTRA.REPUL.0>
0

>  <SCORE.INTRA.SOLV>
-1.5926

>  <SCORE.INTRA.SOLV.lig_0>
-48.4032

>  <SCORE.INTRA.VDW>
0.207853

>  <SCORE.INTRA.VDW.0>
-1.65238

>  <SCORE.INTRA.norm>
-1.25981

>  <SCORE.RESTR>
0

>  <SCORE.RESTR.CAVITY>
0

>  <SCORE.RESTR.norm>
0

>  <SCORE.SYSTEM>
0

>  <SCORE.SYSTEM.CONST>
0

>  <SCORE.SYSTEM.DIHEDRAL>
0

>  <SCORE.SYSTEM.SOLV>
0

>  <SCORE.SYSTEM.norm>
0

>  <SCORE.heavy>
13

>  <SCORE.norm>
-1.13133

>  <RMSD>
8.052

$$$$
ligand
 OpenBabel11021811473D
libRbt.so/2013.1/901 2013/11/27
 13 12  0  0  0  0  0  0  0  0999 V2000
   34.3723   31.3559   50.8241 O   0  0  0  0  0  0  0  0  0  0  0  0
   36.3997   31.4588   48.8144 O   0  0  0  0  0  0  0  0  0  0  0  0
   29.3854   31.7177   51.6448 P   0  0  1  0  0  0  0  0  0  0  0  0
   28.6642   32.4838   52.7190 O   0  5  0  0  0  0  0  0  0  0  0  0
   28.9172   31.3538   50.3252 O   0  0  0  0  0  0  0  0  0  0  0  0
   30.9354   32.0808   51.9074 O   0  0  0  0  0  0  0  0  0  0  0  0
   37.8810   30.6089   45.5311 O   0  0  0  0  0  0  0  0  0  0  0  0
   32.0069   31.3710   51.2489 C   0  0  0  0  0  0  0  0  0  0  0  0
   36.7485   31.2579   50.1979 C   0  0  0  0  0  0  0  0  0  0  0  0
   36.9185   31.1620   46.4462 C   0  0  0  0  0  0  0  0  0  0  0  0
   33.3678   31.9674   51.6373 C   0  0  0  0  0  0  0  0  0  0  0  0
   35.6779   31.8892   51.1181 C   0  0  0  0  0  0  0  0  0  0  0  0
   37.3551   30.8863   47.9041 C   0  0  0  0  0  0  0  0  0  0  0  0
  1 12  1  0  0  0  0
  1 11  1  0  0  0  0
  2 13  1  0  0  0  0
  2  9  1  0  0  0  0
  3  4  1  6  0  0  0
  3  5  2  0  0  0  0
  3  6  1  0  0  0  0
  6  8  1  0  0  0  0
  7 10  1  0  0  0  0
  8 11  1  0  0  0  0
  9 12  1  0  0  0  0
 10 13  1  0  0  0  0
M  CHG  1   4  -1
M  END
>  <CHROM.1>
-177.94935234,-179.22307479,168.75967532,177.45066487,-172.15280334,-179.67147994
56.27842387,179.14721184,178.88879324,33.34188451,31.52688817,50.15431439
-0.50813053,-0.00216573,1.37744720

>  <Name>
ligand

>  <RI>
0

>  <Rbt.Current_Directory>
/home/itssahil/PROJECTS/Mol_Feturizer/New_Systems/rnas/3GS8

>  <Rbt.Executable>
rbdock ($Id: //depot/dev/client3/rdock/2013.1/src/exe/rbdock.cxx#4 $)

>  <Rbt.Library>
libRbt.so (2013.1, Build901 2013/11/27)

>  <Rbt.Parameter_File>
/export/apps/rDock/src/rDock_2013.1_src/data/scripts/dock_solv.prm

>  <Rbt.Receptor>
prm/pocket_docking_7.prm

>  <SCORE>
-14.6306

>  <SCORE.INTER>
1.60914

>  <SCORE.INTER.CONST>
1

>  <SCORE.INTER.POLAR>
0

>  <SCORE.INTER.ROT>
9

>  <SCORE.INTER.SOLV>
6.6718

>  <SCORE.INTER.VDW>
-10.7512

>  <SCORE.INTER.norm>
0.12378

>  <SCORE.INTRA>
-16.2398

>  <SCORE.INTRA.DIHEDRAL>
-31.3097

>  <SCORE.INTRA.DIHEDRAL.0>
31.9578

>  <SCORE.INTRA.POLAR>
0

>  <SCORE.INTRA.POLAR.0>
0

>  <SCORE.INTRA.REPUL>
0

>  <SCORE.INTRA.REPUL.0>
0

>  <SCORE.INTRA.SOLV>
-1.78729

>  <SCORE.INTRA.SOLV.lig_0>
-48.4032

>  <SCORE.INTRA.VDW>
0.308716

>  <SCORE.INTRA.VDW.0>
-1.65238

>  <SCORE.INTRA.norm>
-1.24921

>  <SCORE.RESTR>
0

>  <SCORE.RESTR.CAVITY>
0

>  <SCORE.RESTR.norm>
0

>  <SCORE.SYSTEM>
0

>  <SCORE.SYSTEM.CONST>
0

>  <SCORE.SYSTEM.DIHEDRAL>
0

>  <SCORE.SYSTEM.SOLV>
0

>  <SCORE.SYSTEM.norm>
0

>  <SCORE.heavy>
13

>  <SCORE.norm>
-1.12543

>  <RMSD>
8.063

$$$$
ligand
 OpenBabel11021811473D
libRbt.so/2013.1/901 2013/11/27
 13 12  0  0  0  0  0  0  0  0999 V2000
   29.7300   33.1841   53.7466 O   0  0  0  0  0  0  0  0  0  0  0  0
   32.4201   32.2624   53.2700 O   0  0  0  0  0  0  0  0  0  0  0  0
   25.9427   31.1478   51.0540 P   0  0  1  0  0  0  0  0  0  0  0  0
   26.1421   29.7667   51.6142 O   0  5  0  0  0  0  0  0  0  0  0  0
   24.8972   31.6240   50.1748 O   0  0  0  0  0  0  0  0  0  0  0  0
   26.5748   32.1035   52.1898 O   0  0  0  0  0  0  0  0  0  0  0  0
   34.1005   31.4986   51.0950 O   0  0  0  0  0  0  0  0  0  0  0  0
   28.0002   32.1925   52.4047 C   0  0  0  0  0  0  0  0  0  0  0  0
   31.7737   32.0722   54.5435 C   0  0  0  0  0  0  0  0  0  0  0  0
   34.4643   32.5799   51.9713 C   0  0  0  0  0  0  0  0  0  0  0  0
   28.3104   33.1208   53.5882 C   0  0  0  0  0  0  0  0  0  0  0  0
   30.2408   31.9843   54.3592 C   0  0  0  0  0  0  0  0  0  0  0  0
   33.8520   32.3537   53.3735 C   0  0  0  0  0  0  0  0  0  0  0  0
  1 12  1  0  0  0  0
  1 11  1  0  0  0  0
  2 13  1  0  0  0  0
  2  9  1  0  0  0  0
  3  4  1  1  0  0  0
  3  5  2  0  0  0  0
  3  6  1  0  0  0  0
  6  8  1  0  0  0  0
  7 10  1  0  0  0  0
  8 11  1  0  0  0  0
  9 12  1  0  0  0  0
 10 13  1  0  0  0  0
M  CHG  1   4  -1
M  END
>  <CHROM.1>
-179.20241673,-179.06371041,72.32081833,-177.25135464,-179.37052059,179.93816297
-59.14408490,-58.73614007,-75.78955454,29.38107661,31.90974747,52.41551873
0.24182233,0.03106580,1.15618677

>  <Name>
ligand

>  <RI>
0

>  <Rbt.Current_Directory>
/home/itssahil/PROJECTS/Mol_Feturizer/New_Systems/rnas/3GS8

>  <Rbt.Executable>
rbdock ($Id: //depot/dev/client3/rdock/2013.1/src/exe/rbdock.cxx#4 $)

>  <Rbt.Library>
libRbt.so (2013.1, Build901 2013/11/27)

>  <Rbt.Parameter_File>
/export/apps/rDock/src/rDock_2013.1_src/data/scripts/dock_solv.prm

>  <Rbt.Receptor>
prm/pocket_docking_8.prm

>  <SCORE>
-8.21281

>  <SCORE.INTER>
6.17839

>  <SCORE.INTER.CONST>
1

>  <SCORE.INTER.POLAR>
0

>  <SCORE.INTER.ROT>
9

>  <SCORE.INTER.SOLV>
6.89791

>  <SCORE.INTER.VDW>
-7.78038

>  <SCORE.INTER.norm>
0.475261

>  <SCORE.INTRA>
-14.3912

>  <SCORE.INTRA.DIHEDRAL>
-29.9723

>  <SCORE.INTRA.DIHEDRAL.0>
31.9578

>  <SCORE.INTRA.POLAR>
0

>  <SCORE.INTRA.POLAR.0>
0

>  <SCORE.INTRA.REPUL>
0

>  <SCORE.INTRA.REPUL.0>
0

>  <SCORE.INTRA.SOLV>
-1.41239

>  <SCORE.INTRA.SOLV.lig_0>
-48.4032

>  <SCORE.INTRA.VDW>
1.30115

>  <SCORE.INTRA.VDW.0>
-1.65238

>  <SCORE.INTRA.norm>
-1.10701

>  <SCORE.RESTR>
0

>  <SCORE.RESTR.CAVITY>
0

>  <SCORE.RESTR.norm>
0

>  <SCORE.SYSTEM>
0

>  <SCORE.SYSTEM.CONST>
0

>  <SCORE.SYSTEM.DIHEDRAL>
0

>  <SCORE.SYSTEM.SOLV>
0

>  <SCORE.SYSTEM.norm>
0

>  <SCORE.heavy>
13

>  <SCORE.norm>
-0.631754

>  <RMSD>
8.072

$$$$
ligand
 OpenBabel11021811473D
libRbt.so/2013.1/901 2013/11/27
 13 12  0  0  0  0  0  0  0  0999 V2000
   36.0250   31.1657   49.2124 O   0  0  0  0  0  0  0  0  0  0  0  0
   36.8069   31.4774   46.4452 O   0  0  0  0  0  0  0  0  0  0  0  0
   32.9614   32.3829   53.0686 P   0  0  1  0  0  0  0  0  0  0  0  0
   33.3141   32.4897   54.5264 O   0  5  0  0  0  0  0  0  0  0  0  0
   31.8595   32.9945   52.3584 O   0  0  0  0  0  0  0  0  0  0  0  0
   34.3924   32.1644   52.3560 O   0  0  0  0  0  0  0  0  0  0  0  0
   34.7892   32.4865   44.7012 O   0  0  0  0  0  0  0  0  0  0  0  0
   34.5020   31.7634   50.9729 C   0  0  0  0  0  0  0  0  0  0  0  0
   37.4243   30.4984   47.3033 C   0  0  0  0  0  0  0  0  0  0  0  0
   36.1072   32.1797   44.2129 C   0  0  0  0  0  0  0  0  0  0  0  0
   35.9760   31.5992   50.5741 C   0  0  0  0  0  0  0  0  0  0  0  0
   37.3839   30.9731   48.7746 C   0  0  0  0  0  0  0  0  0  0  0  0
   36.7418   31.0597   45.0703 C   0  0  0  0  0  0  0  0  0  0  0  0
  1 12  1  0  0  0  0
  1 11  1  0  0  0  0
  2 13  1  0  0  0  0
  2  9  1  0  0  0  0
  3  4  1  1  0  0  0
  3  5  2  0  0  0  0
  3  6  1  0  0  0  0
  6  8  1  0  0  0  0
  7 10  1  0  0  0  0
  8 11  1  0  0  0  0
  9 12  1  0  0  0  0
 10 13  1  0  0  0  0
M  CHG  1   4  -1
M  END
>  <CHROM.1>
179.74050588,-178.30514517,168.18886124,-178.61631115,178.35464483,-176.56947388
60.10266521,-58.60915882,-179.22882835,35.02824499,31.85429522,49.55007530
-1.11705755,-0.45287227,1.66297757

>  <Name>
ligand

>  <RI>
0

>  <Rbt.Current_Directory>
/home/itssahil/PROJECTS/Mol_Feturizer/New_Systems/rnas/3GS8

>  <Rbt.Executable>
rbdock ($Id: //depot/dev/client3/rdock/2013.1/src/exe/rbdock.cxx#4 $)

>  <Rbt.Library>
libRbt.so (2013.1, Build901 2013/11/27)

>  <Rbt.Parameter_File>
/export/apps/rDock/src/rDock_2013.1_src/data/scripts/dock_solv.prm

>  <Rbt.Receptor>
prm/pocket_docking_7.prm

>  <SCORE>
-14.7912

>  <SCORE.INTER>
1.5385

>  <SCORE.INTER.CONST>
1

>  <SCORE.INTER.POLAR>
0

>  <SCORE.INTER.ROT>
9

>  <SCORE.INTER.SOLV>
9.38505

>  <SCORE.INTER.VDW>
-11.7027

>  <SCORE.INTER.norm>
0.118346

>  <SCORE.INTRA>
-16.3297

>  <SCORE.INTRA.DIHEDRAL>
-31.5584

>  <SCORE.INTRA.DIHEDRAL.0>
31.9578

>  <SCORE.INTRA.POLAR>
0

>  <SCORE.INTRA.POLAR.0>
0

>  <SCORE.INTRA.REPUL>
0

>  <SCORE.INTRA.REPUL.0>
0

>  <SCORE.INTRA.SOLV>
-1.55072

>  <SCORE.INTRA.SOLV.lig_0>
-48.4032

>  <SCORE.INTRA.VDW>
0.224842

>  <SCORE.INTRA.VDW.0>
-1.65238

>  <SCORE.INTRA.norm>
-1.25613

>  <SCORE.RESTR>
0

>  <SCORE.RESTR.CAVITY>
0

>  <SCORE.RESTR.norm>
0

>  <SCORE.SYSTEM>
0

>  <SCORE.SYSTEM.CONST>
0

>  <SCORE.SYSTEM.DIHEDRAL>
0

>  <SCORE.SYSTEM.SOLV>
0

>  <SCORE.SYSTEM.norm>
0

>  <SCORE.heavy>
13

>  <SCORE.norm>
-1.13779

>  <RMSD>
8.094

$$$$
ligand
 OpenBabel11021811473D
libRbt.so/2013.1/901 2013/11/27
 13 12  0  0  0  0  0  0  0  0999 V2000
   36.0397   31.1175   49.3236 O   0  0  0  0  0  0  0  0  0  0  0  0
   36.5555   31.4474   46.4833 O   0  0  0  0  0  0  0  0  0  0  0  0
   32.2234   32.7187   50.6364 P   0  0  1  0  0  0  0  0  0  0  0  0
   32.2542   33.4426   51.9540 O   0  5  0  0  0  0  0  0  0  0  0  0
   31.2399   32.8079   49.5792 O   0  0  0  0  0  0  0  0  0  0  0  0
   33.7852   32.4883   50.3032 O   0  0  0  0  0  0  0  0  0  0  0  0
   37.7004   30.7456   43.0346 O   0  0  0  0  0  0  0  0  0  0  0  0
   34.6499   31.7380   51.1835 C   0  0  0  0  0  0  0  0  0  0  0  0
   37.2914   30.5118   47.2951 C   0  0  0  0  0  0  0  0  0  0  0  0
   37.8161   31.1357   44.4145 C   0  0  0  0  0  0  0  0  0  0  0  0
   36.0816   31.6992   50.6291 C   0  0  0  0  0  0  0  0  0  0  0  0
   37.3602   31.0092   48.7579 C   0  0  0  0  0  0  0  0  0  0  0  0
   36.4390   31.0319   45.1110 C   0  0  0  0  0  0  0  0  0  0  0  0
  1 12  1  0  0  0  0
  1 11  1  0  0  0  0
  2 13  1  0  0  0  0
  2  9  1  0  0  0  0
  3  4  1  6  0  0  0
  3  5  2  0  0  0  0
  3  6  1  0  0  0  0
  6  8  1  0  0  0  0
  7 10  1  0  0  0  0
  8 11  1  0  0  0  0
  9 12  1  0  0  0  0
 10 13  1  0  0  0  0
M  CHG  1   4  -1
M  END
>  <CHROM.1>
-174.33910991,-70.45614624,59.65147319,-179.10765553,-57.90430611,-179.17555808
61.47405729,-178.90941450,-178.11947678,35.04922330,31.78535168,48.54923760
-0.86616315,-0.33745847,1.54550451

>  <Name>
ligand

>  <RI>
0

>  <Rbt.Current_Directory>
/home/itssahil/PROJECTS/Mol_Feturizer/New_Systems/rnas/3GS8

>  <Rbt.Executable>
rbdock ($Id: //depot/dev/client3/rdock/2013.1/src/exe/rbdock.cxx#4 $)

>  <Rbt.Library>
libRbt.so (2013.1, Build901 2013/11/27)

>  <Rbt.Parameter_File>
/export/apps/rDock/src/rDock_2013.1_src/data/scripts/dock_solv.prm

>  <Rbt.Receptor>
prm/pocket_docking_7.prm

>  <SCORE>
-13.514

>  <SCORE.INTER>
1.25971

>  <SCORE.INTER.CONST>
1

>  <SCORE.INTER.POLAR>
0

>  <SCORE.INTER.ROT>
9

>  <SCORE.INTER.SOLV>
7.58935

>  <SCORE.INTER.VDW>
-11.29

>  <SCORE.INTER.norm>
0.0969005

>  <SCORE.INTRA>
-14.7737

>  <SCORE.INTRA.DIHEDRAL>
-30.7641

>  <SCORE.INTRA.DIHEDRAL.0>
31.9578

>  <SCORE.INTRA.POLAR>
0

>  <SCORE.INTRA.POLAR.0>
0

>  <SCORE.INTRA.REPUL>
0

>  <SCORE.INTRA.REPUL.0>
0

>  <SCORE.INTRA.SOLV>
-1.41274

>  <SCORE.INTRA.SOLV.lig_0>
-48.4032

>  <SCORE.INTRA.VDW>
1.31473

>  <SCORE.INTRA.VDW.0>
-1.65238

>  <SCORE.INTRA.norm>
-1.13644

>  <SCORE.RESTR>
0

>  <SCORE.RESTR.CAVITY>
0

>  <SCORE.RESTR.norm>
0

>  <SCORE.SYSTEM>
0

>  <SCORE.SYSTEM.CONST>
0

>  <SCORE.SYSTEM.DIHEDRAL>
0

>  <SCORE.SYSTEM.SOLV>
0

>  <SCORE.SYSTEM.norm>
0

>  <SCORE.heavy>
13

>  <SCORE.norm>
-1.03954

>  <RMSD>
8.153

$$$$
ligand
 OpenBabel11021811473D
libRbt.so/2013.1/901 2013/11/27
 13 12  0  0  0  0  0  0  0  0999 V2000
   35.2731   31.4315   51.2644 O   0  0  0  0  0  0  0  0  0  0  0  0
   36.6245   31.4589   47.8060 O   0  0  0  0  0  0  0  0  0  0  0  0
   30.3273   32.5272   51.5026 P   0  0  1  0  0  0  0  0  0  0  0  0
   29.5806   33.1200   52.6654 O   0  5  0  0  0  0  0  0  0  0  0  0
   29.9540   32.5060   50.1051 O   0  0  0  0  0  0  0  0  0  0  0  0
   31.8723   32.6558   51.9497 O   0  0  0  0  0  0  0  0  0  0  0  0
   38.5901   30.4148   44.8493 O   0  0  0  0  0  0  0  0  0  0  0  0
   32.9057   31.8323   51.3670 C   0  0  0  0  0  0  0  0  0  0  0  0
   36.5631   31.0927   49.1981 C   0  0  0  0  0  0  0  0  0  0  0  0
   37.6039   31.1564   45.5890 C   0  0  0  0  0  0  0  0  0  0  0  0
   34.2790   32.1976   51.9493 C   0  0  0  0  0  0  0  0  0  0  0  0
   35.4689   31.9128   49.9207 C   0  0  0  0  0  0  0  0  0  0  0  0
   37.5878   30.6906   47.0638 C   0  0  0  0  0  0  0  0  0  0  0  0
  1 12  1  0  0  0  0
  1 11  1  0  0  0  0
  2 13  1  0  0  0  0
  2  9  1  0  0  0  0
  3  4  1  1  0  0  0
  3  5  2  0  0  0  0
  3  6  1  0  0  0  0
  6  8  1  0  0  0  0
  7 10  1  0  0  0  0
  8 11  1  0  0  0  0
  9 12  1  0  0  0  0
 10 13  1  0  0  0  0
M  CHG  1   4  -1
M  END
>  <CHROM.1>
179.01781534,-179.27151696,158.84514160,178.34821502,-175.44384355,-177.58794444
172.21911177,178.53074295,72.52057123,33.99315673,31.83892236,49.79102933
-0.63876639,-0.18268113,1.48687233

>  <Name>
ligand

>  <RI>
0

>  <Rbt.Current_Directory>
/home/itssahil/PROJECTS/Mol_Feturizer/New_Systems/rnas/3GS8

>  <Rbt.Executable>
rbdock ($Id: //depot/dev/client3/rdock/2013.1/src/exe/rbdock.cxx#4 $)

>  <Rbt.Library>
libRbt.so (2013.1, Build901 2013/11/27)

>  <Rbt.Parameter_File>
/export/apps/rDock/src/rDock_2013.1_src/data/scripts/dock_solv.prm

>  <Rbt.Receptor>
prm/pocket_docking_7.prm

>  <SCORE>
-12.7533

>  <SCORE.INTER>
1.77329

>  <SCORE.INTER.CONST>
1

>  <SCORE.INTER.POLAR>
0

>  <SCORE.INTER.ROT>
9

>  <SCORE.INTER.SOLV>
5.7338

>  <SCORE.INTER.VDW>
-10.3291

>  <SCORE.INTER.norm>
0.136407

>  <SCORE.INTRA>
-14.5266

>  <SCORE.INTRA.DIHEDRAL>
-30.5534

>  <SCORE.INTRA.DIHEDRAL.0>
31.9578

>  <SCORE.INTRA.POLAR>
0

>  <SCORE.INTRA.POLAR.0>
0

>  <SCORE.INTRA.REPUL>
0

>  <SCORE.INTRA.REPUL.0>
0

>  <SCORE.INTRA.SOLV>
-2.01154

>  <SCORE.INTRA.SOLV.lig_0>
-48.4032

>  <SCORE.INTRA.VDW>
1.75588

>  <SCORE.INTRA.VDW.0>
-1.65238

>  <SCORE.INTRA.norm>
-1.11743

>  <SCORE.RESTR>
0

>  <SCORE.RESTR.CAVITY>
0

>  <SCORE.RESTR.norm>
0

>  <SCORE.SYSTEM>
0

>  <SCORE.SYSTEM.CONST>
0

>  <SCORE.SYSTEM.DIHEDRAL>
0

>  <SCORE.SYSTEM.SOLV>
0

>  <SCORE.SYSTEM.norm>
0

>  <SCORE.heavy>
13

>  <SCORE.norm>
-0.981021

>  <RMSD>
8.179

$$$$
ligand
 OpenBabel11021811473D
libRbt.so/2013.1/901 2013/11/27
 13 12  0  0  0  0  0  0  0  0999 V2000
   36.2774   31.4558   48.4948 O   0  0  0  0  0  0  0  0  0  0  0  0
   36.2060   30.7360   45.7257 O   0  0  0  0  0  0  0  0  0  0  0  0
   33.7741   32.5606   52.7657 P   0  0  1  0  0  0  0  0  0  0  0  0
   32.5527   31.7252   52.4984 O   0  5  0  0  0  0  0  0  0  0  0  0
   34.1074   33.3206   53.9506 O   0  0  0  0  0  0  0  0  0  0  0  0
   34.9199   31.8313   51.8947 O   0  0  0  0  0  0  0  0  0  0  0  0
   36.2455   32.8550   42.6917 O   0  0  0  0  0  0  0  0  0  0  0  0
   34.9963   31.9781   50.4600 C   0  0  0  0  0  0  0  0  0  0  0  0
   37.4570   31.0217   46.3810 C   0  0  0  0  0  0  0  0  0  0  0  0
   36.2251   32.5581   44.0992 C   0  0  0  0  0  0  0  0  0  0  0  0
   36.2194   31.2326   49.9059 C   0  0  0  0  0  0  0  0  0  0  0  0
   37.3539   30.7115   47.8925 C   0  0  0  0  0  0  0  0  0  0  0  0
   36.2289   31.0268   44.3172 C   0  0  0  0  0  0  0  0  0  0  0  0
  1 12  1  0  0  0  0
  1 11  1  0  0  0  0
  2 13  1  0  0  0  0
  2  9  1  0  0  0  0
  3  4  1  1  0  0  0
  3  5  2  0  0  0  0
  3  6  1  0  0  0  0
  6  8  1  0  0  0  0
  7 10  1  0  0  0  0
  8 11  1  0  0  0  0
  9 12  1  0  0  0  0
 10 13  1  0  0  0  0
M  CHG  1   4  -1
M  END
>  <CHROM.1>
-176.82366908,-72.35738844,76.10964279,177.25878411,-177.65387414,178.96522460
-56.87212233,-179.89438936,-176.20047481,35.40696888,31.84585864,48.92053090
-1.18984391,-0.62549055,1.71838357

>  <Name>
ligand

>  <RI>
0

>  <Rbt.Current_Directory>
/home/itssahil/PROJECTS/Mol_Feturizer/New_Systems/rnas/3GS8

>  <Rbt.Executable>
rbdock ($Id: //depot/dev/client3/rdock/2013.1/src/exe/rbdock.cxx#4 $)

>  <Rbt.Library>
libRbt.so (2013.1, Build901 2013/11/27)

>  <Rbt.Parameter_File>
/export/apps/rDock/src/rDock_2013.1_src/data/scripts/dock_solv.prm

>  <Rbt.Receptor>
prm/pocket_docking_8.prm

>  <SCORE>
-12.5985

>  <SCORE.INTER>
2.06245

>  <SCORE.INTER.CONST>
1

>  <SCORE.INTER.POLAR>
0

>  <SCORE.INTER.ROT>
9

>  <SCORE.INTER.SOLV>
10.159

>  <SCORE.INTER.VDW>
-11.6114

>  <SCORE.INTER.norm>
0.15865

>  <SCORE.INTRA>
-14.6609

>  <SCORE.INTRA.DIHEDRAL>
-30.1381

>  <SCORE.INTRA.DIHEDRAL.0>
31.9578

>  <SCORE.INTRA.POLAR>
0

>  <SCORE.INTRA.POLAR.0>
0

>  <SCORE.INTRA.REPUL>
0

>  <SCORE.INTRA.REPUL.0>
0

>  <SCORE.INTRA.SOLV>
-1.62691

>  <SCORE.INTRA.SOLV.lig_0>
-48.4032

>  <SCORE.INTRA.VDW>
1.22156

>  <SCORE.INTRA.VDW.0>
-1.65238

>  <SCORE.INTRA.norm>
-1.12776

>  <SCORE.RESTR>
0

>  <SCORE.RESTR.CAVITY>
0

>  <SCORE.RESTR.norm>
0

>  <SCORE.SYSTEM>
0

>  <SCORE.SYSTEM.CONST>
0

>  <SCORE.SYSTEM.DIHEDRAL>
0

>  <SCORE.SYSTEM.SOLV>
0

>  <SCORE.SYSTEM.norm>
0

>  <SCORE.heavy>
13

>  <SCORE.norm>
-0.969114

>  <RMSD>
8.187

$$$$
ligand
 OpenBabel11021811473D
libRbt.so/2013.1/901 2013/11/27
 13 12  0  0  0  0  0  0  0  0999 V2000
   35.6545   31.4087   49.6032 O   0  0  0  0  0  0  0  0  0  0  0  0
   36.5111   31.5716   46.8566 O   0  0  0  0  0  0  0  0  0  0  0  0
   31.6686   31.2922   51.4210 P   0  0  1  0  0  0  0  0  0  0  0  0
   31.5904   31.3711   52.9206 O   0  5  0  0  0  0  0  0  0  0  0  0
   30.7822   31.8758   50.4380 O   0  0  0  0  0  0  0  0  0  0  0  0
   33.2515   31.1575   51.1389 O   0  0  0  0  0  0  0  0  0  0  0  0
   38.8396   30.3900   45.5586 O   0  0  0  0  0  0  0  0  0  0  0  0
   34.1453   32.2859   51.2552 C   0  0  0  0  0  0  0  0  0  0  0  0
   37.0625   30.5931   47.7591 C   0  0  0  0  0  0  0  0  0  0  0  0
   37.9308   31.2827   44.8901 C   0  0  0  0  0  0  0  0  0  0  0  0
   35.5912   31.8617   50.9579 C   0  0  0  0  0  0  0  0  0  0  0  0
   37.0102   31.1156   49.2138 C   0  0  0  0  0  0  0  0  0  0  0  0
   36.5110   31.1360   45.4857 C   0  0  0  0  0  0  0  0  0  0  0  0
  1 12  1  0  0  0  0
  1 11  1  0  0  0  0
  2 13  1  0  0  0  0
  2  9  1  0  0  0  0
  3  4  1  1  0  0  0
  3  5  2  0  0  0  0
  3  6  1  0  0  0  0
  6  8  1  0  0  0  0
  7 10  1  0  0  0  0
  8 11  1  0  0  0  0
  9 12  1  0  0  0  0
 10 13  1  0  0  0  0
M  CHG  1   4  -1
M  END
>  <CHROM.1>
178.58180456,-78.13848911,-75.24753791,178.87197228,62.82010335,-179.05807108
58.97418527,65.21756569,174.41451425,34.80402077,31.32848617,49.25097449
-0.77126608,-0.04448086,1.51848619

>  <Name>
ligand

>  <RI>
0

>  <Rbt.Current_Directory>
/home/itssahil/PROJECTS/Mol_Feturizer/New_Systems/rnas/3GS8

>  <Rbt.Executable>
rbdock ($Id: //depot/dev/client3/rdock/2013.1/src/exe/rbdock.cxx#4 $)

>  <Rbt.Library>
libRbt.so (2013.1, Build901 2013/11/27)

>  <Rbt.Parameter_File>
/export/apps/rDock/src/rDock_2013.1_src/data/scripts/dock_solv.prm

>  <Rbt.Receptor>
prm/pocket_docking_8.prm

>  <SCORE>
-13.0942

>  <SCORE.INTER>
1.13574

>  <SCORE.INTER.CONST>
1

>  <SCORE.INTER.POLAR>
0

>  <SCORE.INTER.ROT>
9

>  <SCORE.INTER.SOLV>
11.3146

>  <SCORE.INTER.VDW>
-12.6144

>  <SCORE.INTER.norm>
0.0873643

>  <SCORE.INTRA>
-14.23

>  <SCORE.INTRA.DIHEDRAL>
-29.8604

>  <SCORE.INTRA.DIHEDRAL.0>
31.9578

>  <SCORE.INTRA.POLAR>
0

>  <SCORE.INTRA.POLAR.0>
0

>  <SCORE.INTRA.REPUL>
0

>  <SCORE.INTRA.REPUL.0>
0

>  <SCORE.INTRA.SOLV>
-0.846131

>  <SCORE.INTRA.SOLV.lig_0>
-48.4032

>  <SCORE.INTRA.VDW>
1.12331

>  <SCORE.INTRA.VDW.0>
-1.65238

>  <SCORE.INTRA.norm>
-1.09461

>  <SCORE.RESTR>
0

>  <SCORE.RESTR.CAVITY>
0

>  <SCORE.RESTR.norm>
0

>  <SCORE.SYSTEM>
0

>  <SCORE.SYSTEM.CONST>
0

>  <SCORE.SYSTEM.DIHEDRAL>
0

>  <SCORE.SYSTEM.SOLV>
0

>  <SCORE.SYSTEM.norm>
0

>  <SCORE.heavy>
13

>  <SCORE.norm>
-1.00725

>  <RMSD>
8.188

$$$$
ligand
 OpenBabel11021811473D
libRbt.so/2013.1/901 2013/11/27
 13 12  0  0  0  0  0  0  0  0999 V2000
   35.8819   31.1203   49.3363 O   0  0  0  0  0  0  0  0  0  0  0  0
   36.5006   31.4063   46.5535 O   0  0  0  0  0  0  0  0  0  0  0  0
   32.6929   32.3207   53.0951 P   0  0  1  0  0  0  0  0  0  0  0  0
   32.9945   33.0211   54.3911 O   0  5  0  0  0  0  0  0  0  0  0  0
   31.4839   32.3687   52.3022 O   0  0  0  0  0  0  0  0  0  0  0  0
   34.1418   32.1925   52.3970 O   0  0  0  0  0  0  0  0  0  0  0  0
   35.5263   31.3409   42.9844 O   0  0  0  0  0  0  0  0  0  0  0  0
   34.2988   31.6851   51.0540 C   0  0  0  0  0  0  0  0  0  0  0  0
   37.3332   30.6090   47.4178 C   0  0  0  0  0  0  0  0  0  0  0  0
   35.5446   31.8134   44.3430 C   0  0  0  0  0  0  0  0  0  0  0  0
   35.7833   31.6458   50.6623 C   0  0  0  0  0  0  0  0  0  0  0  0
   37.2460   31.1258   48.8728 C   0  0  0  0  0  0  0  0  0  0  0  0
   36.5376   30.9751   45.1817 C   0  0  0  0  0  0  0  0  0  0  0  0
  1 12  1  0  0  0  0
  1 11  1  0  0  0  0
  2 13  1  0  0  0  0
  2  9  1  0  0  0  0
  3  4  1  6  0  0  0
  3  5  2  0  0  0  0
  3  6  1  0  0  0  0
  6  8  1  0  0  0  0
  7 10  1  0  0  0  0
  8 11  1  0  0  0  0
  9 12  1  0  0  0  0
 10 13  1  0  0  0  0
M  CHG  1   4  -1
M  END
>  <CHROM.1>
-177.71588541,175.96148082,-173.96815955,-178.74393876,179.20945171,-179.98833559
57.19412378,-177.03477472,176.71076719,34.84652273,31.72992894,49.47145282
-1.16294342,-0.27341202,1.54020475

>  <Name>
ligand

>  <RI>
0

>  <Rbt.Current_Directory>
/home/itssahil/PROJECTS/Mol_Feturizer/New_Systems/rnas/3GS8

>  <Rbt.Executable>
rbdock ($Id: //depot/dev/client3/rdock/2013.1/src/exe/rbdock.cxx#4 $)

>  <Rbt.Library>
libRbt.so (2013.1, Build901 2013/11/27)

>  <Rbt.Parameter_File>
/export/apps/rDock/src/rDock_2013.1_src/data/scripts/dock_solv.prm

>  <Rbt.Receptor>
prm/pocket_docking_7.prm

>  <SCORE>
-15.0606

>  <SCORE.INTER>
1.04388

>  <SCORE.INTER.CONST>
1

>  <SCORE.INTER.POLAR>
0

>  <SCORE.INTER.ROT>
9

>  <SCORE.INTER.SOLV>
8.60915

>  <SCORE.INTER.VDW>
-11.7738

>  <SCORE.INTER.norm>
0.0802986

>  <SCORE.INTRA>
-16.1045

>  <SCORE.INTRA.DIHEDRAL>
-31.1226

>  <SCORE.INTRA.DIHEDRAL.0>
31.9578

>  <SCORE.INTRA.POLAR>
0

>  <SCORE.INTRA.POLAR.0>
0

>  <SCORE.INTRA.REPUL>
0

>  <SCORE.INTRA.REPUL.0>
0

>  <SCORE.INTRA.SOLV>
-1.74689

>  <SCORE.INTRA.SOLV.lig_0>
-48.4032

>  <SCORE.INTRA.VDW>
0.330274

>  <SCORE.INTRA.VDW.0>
-1.65238

>  <SCORE.INTRA.norm>
-1.23881

>  <SCORE.RESTR>
0

>  <SCORE.RESTR.CAVITY>
0

>  <SCORE.RESTR.norm>
0

>  <SCORE.SYSTEM>
0

>  <SCORE.SYSTEM.CONST>
0

>  <SCORE.SYSTEM.DIHEDRAL>
0

>  <SCORE.SYSTEM.SOLV>
0

>  <SCORE.SYSTEM.norm>
0

>  <SCORE.heavy>
13

>  <SCORE.norm>
-1.15851

>  <RMSD>
8.199

$$$$
ligand
 OpenBabel11021811473D
libRbt.so/2013.1/901 2013/11/27
 13 12  0  0  0  0  0  0  0  0999 V2000
   36.5371   31.3906   47.9137 O   0  0  0  0  0  0  0  0  0  0  0  0
   35.8647   30.8358   45.1732 O   0  0  0  0  0  0  0  0  0  0  0  0
   35.1434   32.2324   52.7150 P   0  0  1  0  0  0  0  0  0  0  0  0
   36.0217   32.1298   53.9311 O   0  5  0  0  0  0  0  0  0  0  0  0
   34.1480   33.2341   52.4012 O   0  0  0  0  0  0  0  0  0  0  0  0
   36.0358   31.5534   51.5548 O   0  0  0  0  0  0  0  0  0  0  0  0
   33.7828   31.2672   42.1439 O   0  0  0  0  0  0  0  0  0  0  0  0
   35.7494   31.7585   50.1543 C   0  0  0  0  0  0  0  0  0  0  0  0
   37.2157   31.1517   45.5619 C   0  0  0  0  0  0  0  0  0  0  0  0
   34.0889   30.8860   43.4969 C   0  0  0  0  0  0  0  0  0  0  0  0
   36.8105   31.0731   49.2807 C   0  0  0  0  0  0  0  0  0  0  0  0
   37.4638   30.7313   47.0293 C   0  0  0  0  0  0  0  0  0  0  0  0
   35.5669   31.2109   43.8168 C   0  0  0  0  0  0  0  0  0  0  0  0
  1 12  1  0  0  0  0
  1 11  1  0  0  0  0
  2 13  1  0  0  0  0
  2  9  1  0  0  0  0
  3  4  1  1  0  0  0
  3  5  2  0  0  0  0
  3  6  1  0  0  0  0
  6  8  1  0  0  0  0
  7 10  1  0  0  0  0
  8 11  1  0  0  0  0
  9 12  1  0  0  0  0
 10 13  1  0  0  0  0
M  CHG  1   4  -1
M  END
>  <CHROM.1>
-176.41278152,-177.96072019,-162.55719189,176.23036788,-175.71720321,179.63957020
-58.33935369,179.62356388,-177.53304252,35.66025439,31.56895107,48.50419767
-1.59972088,-0.32081820,1.42758386

>  <Name>
ligand

>  <RI>
0

>  <Rbt.Current_Directory>
/home/itssahil/PROJECTS/Mol_Feturizer/New_Systems/rnas/3GS8

>  <Rbt.Executable>
rbdock ($Id: //depot/dev/client3/rdock/2013.1/src/exe/rbdock.cxx#4 $)

>  <Rbt.Library>
libRbt.so (2013.1, Build901 2013/11/27)

>  <Rbt.Parameter_File>
/export/apps/rDock/src/rDock_2013.1_src/data/scripts/dock_solv.prm

>  <Rbt.Receptor>
prm/pocket_docking_8.prm

>  <SCORE>
-16.1658

>  <SCORE.INTER>
-0.254356

>  <SCORE.INTER.CONST>
1

>  <SCORE.INTER.POLAR>
0

>  <SCORE.INTER.ROT>
9

>  <SCORE.INTER.SOLV>
13.4812

>  <SCORE.INTER.VDW>
-14.2633

>  <SCORE.INTER.norm>
-0.0195659

>  <SCORE.INTRA>
-15.9115

>  <SCORE.INTRA.DIHEDRAL>
-30.7864

>  <SCORE.INTRA.DIHEDRAL.0>
31.9578

>  <SCORE.INTRA.POLAR>
0

>  <SCORE.INTRA.POLAR.0>
0

>  <SCORE.INTRA.REPUL>
0

>  <SCORE.INTRA.REPUL.0>
0

>  <SCORE.INTRA.SOLV>
-1.71967

>  <SCORE.INTRA.SOLV.lig_0>
-48.4032

>  <SCORE.INTRA.VDW>
0.341557

>  <SCORE.INTRA.VDW.0>
-1.65238

>  <SCORE.INTRA.norm>
-1.22396

>  <SCORE.RESTR>
0

>  <SCORE.RESTR.CAVITY>
0

>  <SCORE.RESTR.norm>
0

>  <SCORE.SYSTEM>
0

>  <SCORE.SYSTEM.CONST>
0

>  <SCORE.SYSTEM.DIHEDRAL>
0

>  <SCORE.SYSTEM.SOLV>
0

>  <SCORE.SYSTEM.norm>
0

>  <SCORE.heavy>
13

>  <SCORE.norm>
-1.24352

>  <RMSD>
8.212

$$$$
ligand
 OpenBabel11021811473D
libRbt.so/2013.1/901 2013/11/27
 13 12  0  0  0  0  0  0  0  0999 V2000
   30.2750   30.6514   52.4809 O   0  0  0  0  0  0  0  0  0  0  0  0
   33.6296   31.3449   51.0517 O   0  0  0  0  0  0  0  0  0  0  0  0
   27.1966   32.5195   52.7285 P   0  0  1  0  0  0  0  0  0  0  0  0
   26.0528   31.8416   52.0263 O   0  5  0  0  0  0  0  0  0  0  0  0
   27.3222   33.9066   53.1197 O   0  0  0  0  0  0  0  0  0  0  0  0
   27.8305   31.3401   53.6287 O   0  0  0  0  0  0  0  0  0  0  0  0
   37.2509   32.0980   51.0104 O   0  0  0  0  0  0  0  0  0  0  0  0
   28.0438   30.0115   53.1042 C   0  0  0  0  0  0  0  0  0  0  0  0
   32.5560   31.4397   52.0078 C   0  0  0  0  0  0  0  0  0  0  0  0
   35.9733   31.7144   50.4716 C   0  0  0  0  0  0  0  0  0  0  0  0
   29.0861   30.0377   51.9765 C   0  0  0  0  0  0  0  0  0  0  0  0
   31.2869   30.7463   51.4598 C   0  0  0  0  0  0  0  0  0  0  0  0
   34.8805   31.8424   51.5586 C   0  0  0  0  0  0  0  0  0  0  0  0
  1 12  1  0  0  0  0
  1 11  1  0  0  0  0
  2 13  1  0  0  0  0
  2  9  1  0  0  0  0
  3  4  1  1  0  0  0
  3  5  2  0  0  0  0
  3  6  1  0  0  0  0
  6  8  1  0  0  0  0
  7 10  1  0  0  0  0
  8 11  1  0  0  0  0
  9 12  1  0  0  0  0
 10 13  1  0  0  0  0
M  CHG  1   4  -1
M  END
>  <CHROM.1>
178.73951290,-179.59658531,44.12819155,64.61586614,55.01433906,-173.64454988
171.09559577,-174.86769515,-178.26424771,30.55335910,31.60184108,52.11228837
3.10243454,0.20389232,0.03944099

>  <Name>
ligand

>  <RI>
0

>  <Rbt.Current_Directory>
/home/itssahil/PROJECTS/Mol_Feturizer/New_Systems/rnas/3GS8

>  <Rbt.Executable>
rbdock ($Id: //depot/dev/client3/rdock/2013.1/src/exe/rbdock.cxx#4 $)

>  <Rbt.Library>
libRbt.so (2013.1, Build901 2013/11/27)

>  <Rbt.Parameter_File>
/export/apps/rDock/src/rDock_2013.1_src/data/scripts/dock_solv.prm

>  <Rbt.Receptor>
prm/pocket_docking_7.prm

>  <SCORE>
-11.1613

>  <SCORE.INTER>
3.46779

>  <SCORE.INTER.CONST>
1

>  <SCORE.INTER.POLAR>
0

>  <SCORE.INTER.ROT>
9

>  <SCORE.INTER.SOLV>
14.7276

>  <SCORE.INTER.VDW>
-12.1973

>  <SCORE.INTER.norm>
0.266753

>  <SCORE.INTRA>
-14.6308

>  <SCORE.INTRA.DIHEDRAL>
-30.8635

>  <SCORE.INTRA.DIHEDRAL.0>
31.9578

>  <SCORE.INTRA.POLAR>
0

>  <SCORE.INTRA.POLAR.0>
0

>  <SCORE.INTRA.REPUL>
0

>  <SCORE.INTRA.REPUL.0>
0

>  <SCORE.INTRA.SOLV>
0.422342

>  <SCORE.INTRA.SOLV.lig_0>
-48.4032

>  <SCORE.INTRA.VDW>
0.589743

>  <SCORE.INTRA.VDW.0>
-1.65238

>  <SCORE.INTRA.norm>
-1.12545

>  <SCORE.RESTR>
0.00175726

>  <SCORE.RESTR.CAVITY>
0.00175726

>  <SCORE.RESTR.norm>
0.000135174

>  <SCORE.SYSTEM>
0

>  <SCORE.SYSTEM.CONST>
0

>  <SCORE.SYSTEM.DIHEDRAL>
0

>  <SCORE.SYSTEM.SOLV>
0

>  <SCORE.SYSTEM.norm>
0

>  <SCORE.heavy>
13

>  <SCORE.norm>
-0.858559

>  <RMSD>
8.213

$$$$
ligand
 OpenBabel11021811473D
libRbt.so/2013.1/901 2013/11/27
 13 12  0  0  0  0  0  0  0  0999 V2000
   36.0164   31.0984   49.2346 O   0  0  0  0  0  0  0  0  0  0  0  0
   36.6150   31.3690   46.4727 O   0  0  0  0  0  0  0  0  0  0  0  0
   33.0107   32.4560   53.0892 P   0  0  1  0  0  0  0  0  0  0  0  0
   32.1246   31.3105   52.6847 O   0  5  0  0  0  0  0  0  0  0  0  0
   32.9522   33.2641   54.2877 O   0  0  0  0  0  0  0  0  0  0  0  0
   34.4225   32.0953   52.3964 O   0  0  0  0  0  0  0  0  0  0  0  0
   35.6005   31.5385   42.9175 O   0  0  0  0  0  0  0  0  0  0  0  0
   34.5220   31.7703   50.9928 C   0  0  0  0  0  0  0  0  0  0  0  0
   37.3897   30.4727   47.2927 C   0  0  0  0  0  0  0  0  0  0  0  0
   35.6599   31.9388   44.2980 C   0  0  0  0  0  0  0  0  0  0  0  0
   35.9865   31.5309   50.5971 C   0  0  0  0  0  0  0  0  0  0  0  0
   37.3698   30.9415   48.7663 C   0  0  0  0  0  0  0  0  0  0  0  0
   36.5610   30.9651   45.0931 C   0  0  0  0  0  0  0  0  0  0  0  0
  1 12  1  0  0  0  0
  1 11  1  0  0  0  0
  2 13  1  0  0  0  0
  2  9  1  0  0  0  0
  3  4  1  1  0  0  0
  3  5  2  0  0  0  0
  3  6  1  0  0  0  0
  6  8  1  0  0  0  0
  7 10  1  0  0  0  0
  8 11  1  0  0  0  0
  9 12  1  0  0  0  0
 10 13  1  0  0  0  0
M  CHG  1   4  -1
M  END
>  <CHROM.1>
179.95799687,177.35672296,51.57964562,177.56104994,174.92071108,-178.27412945
54.36491102,-179.91480161,176.07060298,35.03377174,31.67551253,49.44014147
-1.18318701,-0.32038029,1.57070909

>  <Name>
ligand

>  <RI>
0

>  <Rbt.Current_Directory>
/home/itssahil/PROJECTS/Mol_Feturizer/New_Systems/rnas/3GS8

>  <Rbt.Executable>
rbdock ($Id: //depot/dev/client3/rdock/2013.1/src/exe/rbdock.cxx#4 $)

>  <Rbt.Library>
libRbt.so (2013.1, Build901 2013/11/27)

>  <Rbt.Parameter_File>
/export/apps/rDock/src/rDock_2013.1_src/data/scripts/dock_solv.prm

>  <Rbt.Receptor>
prm/pocket_docking_8.prm

>  <SCORE>
-14.6783

>  <SCORE.INTER>
1.25045

>  <SCORE.INTER.CONST>
1

>  <SCORE.INTER.POLAR>
0

>  <SCORE.INTER.ROT>
9

>  <SCORE.INTER.SOLV>
10.0266

>  <SCORE.INTER.VDW>
-12.1086

>  <SCORE.INTER.norm>
0.0961888

>  <SCORE.INTRA>
-15.9288

>  <SCORE.INTRA.DIHEDRAL>
-31.2598

>  <SCORE.INTRA.DIHEDRAL.0>
31.9578

>  <SCORE.INTRA.POLAR>
0

>  <SCORE.INTRA.POLAR.0>
0

>  <SCORE.INTRA.REPUL>
0

>  <SCORE.INTRA.REPUL.0>
0

>  <SCORE.INTRA.SOLV>
-1.58495

>  <SCORE.INTRA.SOLV.lig_0>
-48.4032

>  <SCORE.INTRA.VDW>
0.493582

>  <SCORE.INTRA.VDW.0>
-1.65238

>  <SCORE.INTRA.norm>
-1.22529

>  <SCORE.RESTR>
0

>  <SCORE.RESTR.CAVITY>
0

>  <SCORE.RESTR.norm>
0

>  <SCORE.SYSTEM>
0

>  <SCORE.SYSTEM.CONST>
0

>  <SCORE.SYSTEM.DIHEDRAL>
0

>  <SCORE.SYSTEM.SOLV>
0

>  <SCORE.SYSTEM.norm>
0

>  <SCORE.heavy>
13

>  <SCORE.norm>
-1.1291

>  <RMSD>
8.242

$$$$
ligand
 OpenBabel11021811473D
libRbt.so/2013.1/901 2013/11/27
 13 12  0  0  0  0  0  0  0  0999 V2000
   34.3607   31.7629   50.4059 O   0  0  0  0  0  0  0  0  0  0  0  0
   36.3890   30.6952   48.7182 O   0  0  0  0  0  0  0  0  0  0  0  0
   29.4401   31.8161   51.6411 P   0  0  1  0  0  0  0  0  0  0  0  0
   28.8159   31.6884   53.0031 O   0  5  0  0  0  0  0  0  0  0  0  0
   28.9189   32.4815   50.4671 O   0  0  0  0  0  0  0  0  0  0  0  0
   31.0226   31.8006   51.9555 O   0  0  0  0  0  0  0  0  0  0  0  0
   39.3166   30.7319   48.9245 O   0  0  0  0  0  0  0  0  0  0  0  0
   32.0095   31.8117   50.9012 C   0  0  0  0  0  0  0  0  0  0  0  0
   36.7172   31.6914   49.7060 C   0  0  0  0  0  0  0  0  0  0  0  0
   38.5901   29.9873   47.9309 C   0  0  0  0  0  0  0  0  0  0  0  0
   33.4269   31.7419   51.4884 C   0  0  0  0  0  0  0  0  0  0  0  0
   35.7143   31.6320   50.8816 C   0  0  0  0  0  0  0  0  0  0  0  0
   37.2714   30.7164   47.5823 C   0  0  0  0  0  0  0  0  0  0  0  0
  1 12  1  0  0  0  0
  1 11  1  0  0  0  0
  2 13  1  0  0  0  0
  2  9  1  0  0  0  0
  3  4  1  1  0  0  0
  3  5  2  0  0  0  0
  3  6  1  0  0  0  0
  6  8  1  0  0  0  0
  7 10  1  0  0  0  0
  8 11  1  0  0  0  0
  9 12  1  0  0  0  0
 10 13  1  0  0  0  0
M  CHG  1   4  -1
M  END
>  <CHROM.1>
-178.58509561,79.68147396,175.72476213,-177.97758500,-179.70625328,178.82662478
-55.18407950,-67.13146410,-177.09378599,33.58517221,31.46424879,50.40374875
-0.37037596,-0.08303738,1.41676817

>  <Name>
ligand

>  <RI>
0

>  <Rbt.Current_Directory>
/home/itssahil/PROJECTS/Mol_Feturizer/New_Systems/rnas/3GS8

>  <Rbt.Executable>
rbdock ($Id: //depot/dev/client3/rdock/2013.1/src/exe/rbdock.cxx#4 $)

>  <Rbt.Library>
libRbt.so (2013.1, Build901 2013/11/27)

>  <Rbt.Parameter_File>
/export/apps/rDock/src/rDock_2013.1_src/data/scripts/dock_solv.prm

>  <Rbt.Receptor>
prm/pocket_docking_8.prm

>  <SCORE>
-12.2254

>  <SCORE.INTER>
1.99172

>  <SCORE.INTER.CONST>
1

>  <SCORE.INTER.POLAR>
0

>  <SCORE.INTER.ROT>
9

>  <SCORE.INTER.SOLV>
5.43778

>  <SCORE.INTER.VDW>
-10.0848

>  <SCORE.INTER.norm>
0.153209

>  <SCORE.INTRA>
-14.2171

>  <SCORE.INTRA.DIHEDRAL>
-29.4689

>  <SCORE.INTRA.DIHEDRAL.0>
31.9578

>  <SCORE.INTRA.POLAR>
0

>  <SCORE.INTRA.POLAR.0>
0

>  <SCORE.INTRA.REPUL>
0

>  <SCORE.INTRA.REPUL.0>
0

>  <SCORE.INTRA.SOLV>
-1.22565

>  <SCORE.INTRA.SOLV.lig_0>
-48.4032

>  <SCORE.INTRA.VDW>
1.13021

>  <SCORE.INTRA.VDW.0>
-1.65238

>  <SCORE.INTRA.norm>
-1.09362

>  <SCORE.RESTR>
0

>  <SCORE.RESTR.CAVITY>
0

>  <SCORE.RESTR.norm>
0

>  <SCORE.SYSTEM>
0

>  <SCORE.SYSTEM.CONST>
0

>  <SCORE.SYSTEM.DIHEDRAL>
0

>  <SCORE.SYSTEM.SOLV>
0

>  <SCORE.SYSTEM.norm>
0

>  <SCORE.heavy>
13

>  <SCORE.norm>
-0.940413

>  <RMSD>
8.262

$$$$
ligand
 OpenBabel11021811473D
libRbt.so/2013.1/901 2013/11/27
 13 12  0  0  0  0  0  0  0  0999 V2000
   33.8170   31.8390   52.9988 O   0  0  0  0  0  0  0  0  0  0  0  0
   36.6634   32.1179   53.0167 O   0  0  0  0  0  0  0  0  0  0  0  0
   29.5487   31.0825   50.3626 P   0  0  1  0  0  0  0  0  0  0  0  0
   28.2964   30.6824   51.0925 O   0  5  0  0  0  0  0  0  0  0  0  0
   29.7039   31.4610   48.9750 O   0  0  0  0  0  0  0  0  0  0  0  0
   30.4496   31.7609   51.5164 O   0  0  0  0  0  0  0  0  0  0  0  0
   40.0390   31.0611   51.9311 O   0  0  0  0  0  0  0  0  0  0  0  0
   31.8357   31.4045   51.7097 C   0  0  0  0  0  0  0  0  0  0  0  0
   35.9174   32.1086   54.2493 C   0  0  0  0  0  0  0  0  0  0  0  0
   38.7166   31.6109   51.7948 C   0  0  0  0  0  0  0  0  0  0  0  0
   32.4670   32.2705   52.8098 C   0  0  0  0  0  0  0  0  0  0  0  0
   34.4790   32.6235   54.0097 C   0  0  0  0  0  0  0  0  0  0  0  0
   38.0125   31.6437   53.1715 C   0  0  0  0  0  0  0  0  0  0  0  0
  1 12  1  0  0  0  0
  1 11  1  0  0  0  0
  2 13  1  0  0  0  0
  2  9  1  0  0  0  0
  3  4  1  1  0  0  0
  3  5  2  0  0  0  0
  3  6  1  0  0  0  0
  6  8  1  0  0  0  0
  7 10  1  0  0  0  0
  8 11  1  0  0  0  0
  9 12  1  0  0  0  0
 10 13  1  0  0  0  0
M  CHG  1   4  -1
M  END
>  <CHROM.1>
177.52654090,176.85908858,131.46782494,176.20005539,177.57379715,-179.77522422
56.66149634,-176.52664768,179.24286467,33.45925793,31.60969572,51.95431826
0.25602104,-0.02531187,1.26348627

>  <Name>
ligand

>  <RI>
0

>  <Rbt.Current_Directory>
/home/itssahil/PROJECTS/Mol_Feturizer/New_Systems/rnas/3GS8

>  <Rbt.Executable>
rbdock ($Id: //depot/dev/client3/rdock/2013.1/src/exe/rbdock.cxx#4 $)

>  <Rbt.Library>
libRbt.so (2013.1, Build901 2013/11/27)

>  <Rbt.Parameter_File>
/export/apps/rDock/src/rDock_2013.1_src/data/scripts/dock_solv.prm

>  <Rbt.Receptor>
prm/pocket_docking_8.prm

>  <SCORE>
-11.6583

>  <SCORE.INTER>
4.42223

>  <SCORE.INTER.CONST>
1

>  <SCORE.INTER.POLAR>
0

>  <SCORE.INTER.ROT>
9

>  <SCORE.INTER.SOLV>
10.3848

>  <SCORE.INTER.VDW>
-10.1135

>  <SCORE.INTER.norm>
0.340171

>  <SCORE.INTRA>
-16.0806

>  <SCORE.INTRA.DIHEDRAL>
-30.8409

>  <SCORE.INTRA.DIHEDRAL.0>
31.9578

>  <SCORE.INTRA.POLAR>
0

>  <SCORE.INTRA.POLAR.0>
0

>  <SCORE.INTRA.REPUL>
0

>  <SCORE.INTRA.REPUL.0>
0

>  <SCORE.INTRA.SOLV>
-1.88078

>  <SCORE.INTRA.SOLV.lig_0>
-48.4032

>  <SCORE.INTRA.VDW>
0.280257

>  <SCORE.INTRA.VDW.0>
-1.65238

>  <SCORE.INTRA.norm>
-1.23697

>  <SCORE.RESTR>
0

>  <SCORE.RESTR.CAVITY>
0

>  <SCORE.RESTR.norm>
0

>  <SCORE.SYSTEM>
0

>  <SCORE.SYSTEM.CONST>
0

>  <SCORE.SYSTEM.DIHEDRAL>
0

>  <SCORE.SYSTEM.SOLV>
0

>  <SCORE.SYSTEM.norm>
0

>  <SCORE.heavy>
13

>  <SCORE.norm>
-0.896795

>  <RMSD>
8.405

$$$$
ligand
 OpenBabel11021811473D
libRbt.so/2013.1/901 2013/11/27
 13 12  0  0  0  0  0  0  0  0999 V2000
   35.0929   32.1362   49.5449 O   0  0  0  0  0  0  0  0  0  0  0  0
   38.1921   30.1667   48.9726 O   0  0  0  0  0  0  0  0  0  0  0  0
   31.3488   33.6345   48.1513 P   0  0  1  0  0  0  0  0  0  0  0  0
   30.1028   33.4406   48.9705 O   0  5  0  0  0  0  0  0  0  0  0  0
   31.7464   34.7852   47.3699 O   0  0  0  0  0  0  0  0  0  0  0  0
   32.4429   32.7327   48.9213 O   0  0  0  0  0  0  0  0  0  0  0  0
   39.5350   27.6343   48.5570 O   0  0  0  0  0  0  0  0  0  0  0  0
   33.0034   33.1326   50.1908 C   0  0  0  0  0  0  0  0  0  0  0  0
   37.1480   31.1109   48.6655 C   0  0  0  0  0  0  0  0  0  0  0  0
   40.1590   28.8989   48.2726 C   0  0  0  0  0  0  0  0  0  0  0  0
   34.1346   32.1800   50.6051 C   0  0  0  0  0  0  0  0  0  0  0  0
   36.1954   31.2690   49.8735 C   0  0  0  0  0  0  0  0  0  0  0  0
   39.0875   29.9392   47.8701 C   0  0  0  0  0  0  0  0  0  0  0  0
  1 12  1  0  0  0  0
  1 11  1  0  0  0  0
  2 13  1  0  0  0  0
  2  9  1  0  0  0  0
  3  4  1  1  0  0  0
  3  5  2  0  0  0  0
  3  6  1  0  0  0  0
  6  8  1  0  0  0  0
  7 10  1  0  0  0  0
  8 11  1  0  0  0  0
  9 12  1  0  0  0  0
 10 13  1  0  0  0  0
M  CHG  1   4  -1
M  END
>  <CHROM.1>
173.99077692,-178.99770232,-72.91033810,-173.12545739,55.01385221,177.96047035
-175.83067628,63.23734098,179.33309353,34.89178654,31.79273659,48.84756280
3.04913111,0.51840043,-1.37951905

>  <Name>
ligand

>  <RI>
0

>  <Rbt.Current_Directory>
/home/itssahil/PROJECTS/Mol_Feturizer/New_Systems/rnas/3GS8

>  <Rbt.Executable>
rbdock ($Id: //depot/dev/client3/rdock/2013.1/src/exe/rbdock.cxx#4 $)

>  <Rbt.Library>
libRbt.so (2013.1, Build901 2013/11/27)

>  <Rbt.Parameter_File>
/export/apps/rDock/src/rDock_2013.1_src/data/scripts/dock_solv.prm

>  <Rbt.Receptor>
prm/pocket_docking_8.prm

>  <SCORE>
-12.6746

>  <SCORE.INTER>
3.24496

>  <SCORE.INTER.CONST>
1

>  <SCORE.INTER.POLAR>
0

>  <SCORE.INTER.ROT>
9

>  <SCORE.INTER.SOLV>
4.92013

>  <SCORE.INTER.VDW>
-9.07673

>  <SCORE.INTER.norm>
0.249613

>  <SCORE.INTRA>
-15.9196

>  <SCORE.INTRA.DIHEDRAL>
-31.0336

>  <SCORE.INTRA.DIHEDRAL.0>
31.9578

>  <SCORE.INTRA.POLAR>
0

>  <SCORE.INTRA.POLAR.0>
0

>  <SCORE.INTRA.REPUL>
0

>  <SCORE.INTRA.REPUL.0>
0

>  <SCORE.INTRA.SOLV>
-1.27023

>  <SCORE.INTRA.SOLV.lig_0>
-48.4032

>  <SCORE.INTRA.VDW>
0.232317

>  <SCORE.INTRA.VDW.0>
-1.65238

>  <SCORE.INTRA.norm>
-1.22458

>  <SCORE.RESTR>
0

>  <SCORE.RESTR.CAVITY>
0

>  <SCORE.RESTR.norm>
0

>  <SCORE.SYSTEM>
0

>  <SCORE.SYSTEM.CONST>
0

>  <SCORE.SYSTEM.DIHEDRAL>
0

>  <SCORE.SYSTEM.SOLV>
0

>  <SCORE.SYSTEM.norm>
0

>  <SCORE.heavy>
13

>  <SCORE.norm>
-0.97497

>  <RMSD>
8.418

$$$$
ligand
 OpenBabel11021811473D
libRbt.so/2013.1/901 2013/11/27
 13 12  0  0  0  0  0  0  0  0999 V2000
   34.2396   32.1270   51.8488 O   0  0  0  0  0  0  0  0  0  0  0  0
   36.9464   30.9660   49.5883 O   0  0  0  0  0  0  0  0  0  0  0  0
   30.8068   34.5215   52.8249 P   0  0  1  0  0  0  0  0  0  0  0  0
   30.9525   35.8843   52.2064 O   0  5  0  0  0  0  0  0  0  0  0  0
   29.6514   33.6510   52.8315 O   0  0  0  0  0  0  0  0  0  0  0  0
   32.3021   33.9197   52.7524 O   0  0  0  0  0  0  0  0  0  0  0  0
   39.5490   31.0122   48.3644 O   0  0  0  0  0  0  0  0  0  0  0  0
   32.7188   32.8115   53.5794 C   0  0  0  0  0  0  0  0  0  0  0  0
   35.6625   31.5190   49.9373 C   0  0  0  0  0  0  0  0  0  0  0  0
   38.4978   30.1551   47.8850 C   0  0  0  0  0  0  0  0  0  0  0  0
   34.1626   32.4050   53.2492 C   0  0  0  0  0  0  0  0  0  0  0  0
   35.5768   31.7545   51.4634 C   0  0  0  0  0  0  0  0  0  0  0  0
   37.1199   30.7971   48.1704 C   0  0  0  0  0  0  0  0  0  0  0  0
  1 12  1  0  0  0  0
  1 11  1  0  0  0  0
  2 13  1  0  0  0  0
  2  9  1  0  0  0  0
  3  4  1  6  0  0  0
  3  5  2  0  0  0  0
  3  6  1  0  0  0  0
  6  8  1  0  0  0  0
  7 10  1  0  0  0  0
  8 11  1  0  0  0  0
  9 12  1  0  0  0  0
 10 13  1  0  0  0  0
M  CHG  1   4  -1
M  END
>  <CHROM.1>
-177.41563820,-178.01797899,161.03981288,177.08671562,-55.32437003,-176.52417600
-171.86888127,-61.19994450,179.23772053,34.15133139,32.62133088,51.27438500
-2.83774542,0.59803407,-1.21359510

>  <Name>
ligand

>  <RI>
0

>  <Rbt.Current_Directory>
/home/itssahil/PROJECTS/Mol_Feturizer/New_Systems/rnas/3GS8

>  <Rbt.Executable>
rbdock ($Id: //depot/dev/client3/rdock/2013.1/src/exe/rbdock.cxx#4 $)

>  <Rbt.Library>
libRbt.so (2013.1, Build901 2013/11/27)

>  <Rbt.Parameter_File>
/export/apps/rDock/src/rDock_2013.1_src/data/scripts/dock_solv.prm

>  <Rbt.Receptor>
prm/pocket_docking_7.prm

>  <SCORE>
-13.1218

>  <SCORE.INTER>
3.01809

>  <SCORE.INTER.CONST>
1

>  <SCORE.INTER.POLAR>
0

>  <SCORE.INTER.ROT>
9

>  <SCORE.INTER.SOLV>
3.85163

>  <SCORE.INTER.VDW>
-8.87181

>  <SCORE.INTER.norm>
0.232161

>  <SCORE.INTRA>
-16.1399

>  <SCORE.INTRA.DIHEDRAL>
-31.1818

>  <SCORE.INTRA.DIHEDRAL.0>
31.9578

>  <SCORE.INTRA.POLAR>
0

>  <SCORE.INTRA.POLAR.0>
0

>  <SCORE.INTRA.REPUL>
0

>  <SCORE.INTRA.REPUL.0>
0

>  <SCORE.INTRA.SOLV>
-1.57841

>  <SCORE.INTRA.SOLV.lig_0>
-48.4032

>  <SCORE.INTRA.VDW>
0.240218

>  <SCORE.INTRA.VDW.0>
-1.65238

>  <SCORE.INTRA.norm>
-1.24153

>  <SCORE.RESTR>
0

>  <SCORE.RESTR.CAVITY>
0

>  <SCORE.RESTR.norm>
0

>  <SCORE.SYSTEM>
0

>  <SCORE.SYSTEM.CONST>
0

>  <SCORE.SYSTEM.DIHEDRAL>
0

>  <SCORE.SYSTEM.SOLV>
0

>  <SCORE.SYSTEM.norm>
0

>  <SCORE.heavy>
13

>  <SCORE.norm>
-1.00937

>  <RMSD>
8.524

$$$$
ligand
 OpenBabel11021811473D
libRbt.so/2013.1/901 2013/11/27
 13 12  0  0  0  0  0  0  0  0999 V2000
   33.7387   32.0851   50.6743 O   0  0  0  0  0  0  0  0  0  0  0  0
   37.1577   30.9251   49.8053 O   0  0  0  0  0  0  0  0  0  0  0  0
   29.1157   32.8148   52.6309 P   0  0  1  0  0  0  0  0  0  0  0  0
   28.4615   31.7560   51.7871 O   0  5  0  0  0  0  0  0  0  0  0  0
   28.5414   33.5991   53.7022 O   0  0  0  0  0  0  0  0  0  0  0  0
   30.6610   32.3526   52.6734 O   0  0  0  0  0  0  0  0  0  0  0  0
   40.0068   29.8593   47.6978 O   0  0  0  0  0  0  0  0  0  0  0  0
   31.5077   32.4148   51.5052 C   0  0  0  0  0  0  0  0  0  0  0  0
   35.8776   31.5488   49.5855 C   0  0  0  0  0  0  0  0  0  0  0  0
   39.2487   30.0378   48.9073 C   0  0  0  0  0  0  0  0  0  0  0  0
   32.9261   31.9306   51.8406 C   0  0  0  0  0  0  0  0  0  0  0  0
   35.0831   31.6242   50.9102 C   0  0  0  0  0  0  0  0  0  0  0  0
   37.9314   30.7880   48.6004 C   0  0  0  0  0  0  0  0  0  0  0  0
  1 12  1  0  0  0  0
  1 11  1  0  0  0  0
  2 13  1  0  0  0  0
  2  9  1  0  0  0  0
  3  4  1  1  0  0  0
  3  5  2  0  0  0  0
  3  6  1  0  0  0  0
  6  8  1  0  0  0  0
  7 10  1  0  0  0  0
  8 11  1  0  0  0  0
  9 12  1  0  0  0  0
 10 13  1  0  0  0  0
M  CHG  1   4  -1
M  END
>  <CHROM.1>
169.50107592,-176.67682409,69.47595136,179.31694234,-176.71749656,178.23782442
-172.54470789,178.13486526,-178.89848593,33.44142950,31.76882247,50.95603839
-0.45245002,0.03266948,0.98228023

>  <Name>
ligand

>  <RI>
0

>  <Rbt.Current_Directory>
/home/itssahil/PROJECTS/Mol_Feturizer/New_Systems/rnas/3GS8

>  <Rbt.Executable>
rbdock ($Id: //depot/dev/client3/rdock/2013.1/src/exe/rbdock.cxx#4 $)

>  <Rbt.Library>
libRbt.so (2013.1, Build901 2013/11/27)

>  <Rbt.Parameter_File>
/export/apps/rDock/src/rDock_2013.1_src/data/scripts/dock_solv.prm

>  <Rbt.Receptor>
prm/pocket_docking_8.prm

>  <SCORE>
-12.8733

>  <SCORE.INTER>
2.75635

>  <SCORE.INTER.CONST>
1

>  <SCORE.INTER.POLAR>
0

>  <SCORE.INTER.ROT>
9

>  <SCORE.INTER.SOLV>
3.97387

>  <SCORE.INTER.VDW>
-9.08706

>  <SCORE.INTER.norm>
0.212027

>  <SCORE.INTRA>
-15.6297

>  <SCORE.INTRA.DIHEDRAL>
-30.3958

>  <SCORE.INTRA.DIHEDRAL.0>
31.9578

>  <SCORE.INTRA.POLAR>
0

>  <SCORE.INTRA.POLAR.0>
0

>  <SCORE.INTRA.REPUL>
0

>  <SCORE.INTRA.REPUL.0>
0

>  <SCORE.INTRA.SOLV>
-1.86376

>  <SCORE.INTRA.SOLV.lig_0>
-48.4032

>  <SCORE.INTRA.VDW>
0.500097

>  <SCORE.INTRA.VDW.0>
-1.65238

>  <SCORE.INTRA.norm>
-1.20228

>  <SCORE.RESTR>
0

>  <SCORE.RESTR.CAVITY>
0

>  <SCORE.RESTR.norm>
0

>  <SCORE.SYSTEM>
0

>  <SCORE.SYSTEM.CONST>
0

>  <SCORE.SYSTEM.DIHEDRAL>
0

>  <SCORE.SYSTEM.SOLV>
0

>  <SCORE.SYSTEM.norm>
0

>  <SCORE.heavy>
13

>  <SCORE.norm>
-0.990257

>  <RMSD>
8.704

$$$$
ligand
 OpenBabel11021811473D
libRbt.so/2013.1/901 2013/11/27
 13 12  0  0  0  0  0  0  0  0999 V2000
   36.7005   31.7387   48.1321 O   0  0  0  0  0  0  0  0  0  0  0  0
   36.1440   30.6899   44.6225 O   0  0  0  0  0  0  0  0  0  0  0  0
   37.0354   31.9993   53.1875 P   0  0  1  0  0  0  0  0  0  0  0  0
   38.4840   32.0114   53.5907 O   0  5  0  0  0  0  0  0  0  0  0  0
   35.9981   32.9527   53.5160 O   0  0  0  0  0  0  0  0  0  0  0  0
   37.0543   31.2486   51.7595 O   0  0  0  0  0  0  0  0  0  0  0  0
   34.8603   30.7945   41.1536 O   0  0  0  0  0  0  0  0  0  0  0  0
   36.8493   31.9617   50.5205 C   0  0  0  0  0  0  0  0  0  0  0  0
   36.2828   31.6233   45.7113 C   0  0  0  0  0  0  0  0  0  0  0  0
   35.3882   30.1994   42.3523 C   0  0  0  0  0  0  0  0  0  0  0  0
   37.0608   31.0282   49.3194 C   0  0  0  0  0  0  0  0  0  0  0  0
   36.8401   30.9075   46.9638 C   0  0  0  0  0  0  0  0  0  0  0  0
   35.5511   31.2763   43.4504 C   0  0  0  0  0  0  0  0  0  0  0  0
  1 12  1  0  0  0  0
  1 11  1  0  0  0  0
  2 13  1  0  0  0  0
  2  9  1  0  0  0  0
  3  4  1  6  0  0  0
  3  5  2  0  0  0  0
  3  6  1  0  0  0  0
  6  8  1  0  0  0  0
  7 10  1  0  0  0  0
  8 11  1  0  0  0  0
  9 12  1  0  0  0  0
 10 13  1  0  0  0  0
M  CHG  1   4  -1
M  END
>  <CHROM.1>
172.92592698,-177.83185999,-106.98975841,174.23394920,173.56573148,176.37095334
-166.94298887,-177.01414903,-178.41881698,36.52854926,31.47317115,48.47957226
-1.75845100,-0.54834135,1.34529450

>  <Name>
ligand

>  <RI>
0

>  <Rbt.Current_Directory>
/home/itssahil/PROJECTS/Mol_Feturizer/New_Systems/rnas/3GS8

>  <Rbt.Executable>
rbdock ($Id: //depot/dev/client3/rdock/2013.1/src/exe/rbdock.cxx#4 $)

>  <Rbt.Library>
libRbt.so (2013.1, Build901 2013/11/27)

>  <Rbt.Parameter_File>
/export/apps/rDock/src/rDock_2013.1_src/data/scripts/dock_solv.prm

>  <Rbt.Receptor>
prm/pocket_docking_8.prm

>  <SCORE>
-13.6992

>  <SCORE.INTER>
1.67708

>  <SCORE.INTER.CONST>
1

>  <SCORE.INTER.POLAR>
0

>  <SCORE.INTER.ROT>
9

>  <SCORE.INTER.SOLV>
10.895

>  <SCORE.INTER.VDW>
-12.1136

>  <SCORE.INTER.norm>
0.129006

>  <SCORE.INTRA>
-15.3768

>  <SCORE.INTRA.DIHEDRAL>
-29.8289

>  <SCORE.INTRA.DIHEDRAL.0>
31.9578

>  <SCORE.INTRA.POLAR>
0

>  <SCORE.INTRA.POLAR.0>
0

>  <SCORE.INTRA.REPUL>
0

>  <SCORE.INTRA.REPUL.0>
0

>  <SCORE.INTRA.SOLV>
-1.76754

>  <SCORE.INTRA.SOLV.lig_0>
-48.4032

>  <SCORE.INTRA.VDW>
0.421419

>  <SCORE.INTRA.VDW.0>
-1.65238

>  <SCORE.INTRA.norm>
-1.18283

>  <SCORE.RESTR>
0.000539065

>  <SCORE.RESTR.CAVITY>
0.000539065

>  <SCORE.RESTR.norm>
4.14665e-05

>  <SCORE.SYSTEM>
0

>  <SCORE.SYSTEM.CONST>
0

>  <SCORE.SYSTEM.DIHEDRAL>
0

>  <SCORE.SYSTEM.SOLV>
0

>  <SCORE.SYSTEM.norm>
0

>  <SCORE.heavy>
13

>  <SCORE.norm>
-1.05378

>  <RMSD>
8.800

$$$$
ligand
 OpenBabel11021811473D
libRbt.so/2013.1/901 2013/11/27
 13 12  0  0  0  0  0  0  0  0999 V2000
   35.0244   31.8223   51.5380 O   0  0  0  0  0  0  0  0  0  0  0  0
   36.7173   31.3805   48.2582 O   0  0  0  0  0  0  0  0  0  0  0  0
   32.3679   33.3063   55.5966 P   0  0  1  0  0  0  0  0  0  0  0  0
   31.9165   34.7202   55.8373 O   0  5  0  0  0  0  0  0  0  0  0  0
   31.9364   32.0948   56.2591 O   0  0  0  0  0  0  0  0  0  0  0  0
   32.7625   33.3043   54.0321 O   0  0  0  0  0  0  0  0  0  0  0  0
   36.8114   30.6780   45.4914 O   0  0  0  0  0  0  0  0  0  0  0  0
   33.7837   32.4299   53.5045 C   0  0  0  0  0  0  0  0  0  0  0  0
   36.4638   31.1555   49.6586 C   0  0  0  0  0  0  0  0  0  0  0  0
   38.0160   30.8929   46.2479 C   0  0  0  0  0  0  0  0  0  0  0  0
   33.9301   32.6249   51.9882 C   0  0  0  0  0  0  0  0  0  0  0  0
   35.2498   31.9924   50.1252 C   0  0  0  0  0  0  0  0  0  0  0  0
   37.7732   30.5541   47.7374 C   0  0  0  0  0  0  0  0  0  0  0  0
  1 12  1  0  0  0  0
  1 11  1  0  0  0  0
  2 13  1  0  0  0  0
  2  9  1  0  0  0  0
  3  4  1  6  0  0  0
  3  5  2  0  0  0  0
  3  6  1  0  0  0  0
  6  8  1  0  0  0  0
  7 10  1  0  0  0  0
  8 11  1  0  0  0  0
  9 12  1  0  0  0  0
 10 13  1  0  0  0  0
M  CHG  1   4  -1
M  END
>  <CHROM.1>
178.15620711,-177.94005789,150.40720656,179.01488730,175.21646061,-175.61384113
-177.37998959,-59.09817923,-178.00018063,34.59429867,32.18707428,51.63711187
-0.59015426,-0.93995034,2.16822605

>  <Name>
ligand

>  <RI>
0

>  <Rbt.Current_Directory>
/home/itssahil/PROJECTS/Mol_Feturizer/New_Systems/rnas/3GS8

>  <Rbt.Executable>
rbdock ($Id: //depot/dev/client3/rdock/2013.1/src/exe/rbdock.cxx#4 $)

>  <Rbt.Library>
libRbt.so (2013.1, Build901 2013/11/27)

>  <Rbt.Parameter_File>
/export/apps/rDock/src/rDock_2013.1_src/data/scripts/dock_solv.prm

>  <Rbt.Receptor>
prm/pocket_docking_8.prm

>  <SCORE>
-13.2791

>  <SCORE.INTER>
2.89296

>  <SCORE.INTER.CONST>
1

>  <SCORE.INTER.POLAR>
0

>  <SCORE.INTER.ROT>
9

>  <SCORE.INTER.SOLV>
10.5828

>  <SCORE.INTER.VDW>
-11.199

>  <SCORE.INTER.norm>
0.222535

>  <SCORE.INTRA>
-16.1721

>  <SCORE.INTRA.DIHEDRAL>
-31.288

>  <SCORE.INTRA.DIHEDRAL.0>
31.9578

>  <SCORE.INTRA.POLAR>
0

>  <SCORE.INTRA.POLAR.0>
0

>  <SCORE.INTRA.REPUL>
0

>  <SCORE.INTRA.REPUL.0>
0

>  <SCORE.INTRA.SOLV>
-1.78303

>  <SCORE.INTRA.SOLV.lig_0>
-48.4032

>  <SCORE.INTRA.VDW>
0.363404

>  <SCORE.INTRA.VDW.0>
-1.65238

>  <SCORE.INTRA.norm>
-1.24401

>  <SCORE.RESTR>
0

>  <SCORE.RESTR.CAVITY>
0

>  <SCORE.RESTR.norm>
0

>  <SCORE.SYSTEM>
0

>  <SCORE.SYSTEM.CONST>
0

>  <SCORE.SYSTEM.DIHEDRAL>
0

>  <SCORE.SYSTEM.SOLV>
0

>  <SCORE.SYSTEM.norm>
0

>  <SCORE.heavy>
13

>  <SCORE.norm>
-1.02147

>  <RMSD>
8.933

$$$$
ligand
 OpenBabel11021811473D
libRbt.so/2013.1/901 2013/11/27
 13 12  0  0  0  0  0  0  0  0999 V2000
   37.7334   31.2050   48.5858 O   0  0  0  0  0  0  0  0  0  0  0  0
   39.4626   30.0463   46.6334 O   0  0  0  0  0  0  0  0  0  0  0  0
   36.7113   32.1679   53.4590 P   0  0  1  0  0  0  0  0  0  0  0  0
   37.4100   33.4795   53.2301 O   0  5  0  0  0  0  0  0  0  0  0  0
   35.9136   31.7548   54.5930 O   0  0  0  0  0  0  0  0  0  0  0  0
   36.3547   31.6721   51.9656 O   0  0  0  0  0  0  0  0  0  0  0  0
   41.2852   27.8423   46.3293 O   0  0  0  0  0  0  0  0  0  0  0  0
   37.3533   31.6102   50.9241 C   0  0  0  0  0  0  0  0  0  0  0  0
   38.3162   30.8191   46.2279 C   0  0  0  0  0  0  0  0  0  0  0  0
   41.7093   29.2077   46.1698 C   0  0  0  0  0  0  0  0  0  0  0  0
   36.7176   31.1858   49.5919 C   0  0  0  0  0  0  0  0  0  0  0  0
   37.2183   30.7613   47.3156 C   0  0  0  0  0  0  0  0  0  0  0  0
   40.5295   30.0733   45.6689 C   0  0  0  0  0  0  0  0  0  0  0  0
  1 12  1  0  0  0  0
  1 11  1  0  0  0  0
  2 13  1  0  0  0  0
  2  9  1  0  0  0  0
  3  4  1  6  0  0  0
  3  5  2  0  0  0  0
  3  6  1  0  0  0  0
  6  8  1  0  0  0  0
  7 10  1  0  0  0  0
  8 11  1  0  0  0  0
  9 12  1  0  0  0  0
 10 13  1  0  0  0  0
M  CHG  1   4  -1
M  END
>  <CHROM.1>
178.61189244,-179.24642686,51.46267640,-176.62044521,177.17706691,-179.26788995
55.99294645,61.16257910,177.56682742,38.07841823,31.01569329,49.67192220
1.05506530,0.49604558,-1.67344665

>  <Name>
ligand

>  <RI>
0

>  <Rbt.Current_Directory>
/home/itssahil/PROJECTS/Mol_Feturizer/New_Systems/rnas/3GS8

>  <Rbt.Executable>
rbdock ($Id: //depot/dev/client3/rdock/2013.1/src/exe/rbdock.cxx#4 $)

>  <Rbt.Library>
libRbt.so (2013.1, Build901 2013/11/27)

>  <Rbt.Parameter_File>
/export/apps/rDock/src/rDock_2013.1_src/data/scripts/dock_solv.prm

>  <Rbt.Receptor>
prm/pocket_docking_8.prm

>  <SCORE>
-13.0689

>  <SCORE.INTER>
2.90367

>  <SCORE.INTER.CONST>
1

>  <SCORE.INTER.POLAR>
0

>  <SCORE.INTER.ROT>
9

>  <SCORE.INTER.SOLV>
12.6928

>  <SCORE.INTER.VDW>
-11.8952

>  <SCORE.INTER.norm>
0.22336

>  <SCORE.INTRA>
-15.9726

>  <SCORE.INTRA.DIHEDRAL>
-31.4357

>  <SCORE.INTRA.DIHEDRAL.0>
31.9578

>  <SCORE.INTRA.POLAR>
0

>  <SCORE.INTRA.POLAR.0>
0

>  <SCORE.INTRA.REPUL>
0

>  <SCORE.INTRA.REPUL.0>
0

>  <SCORE.INTRA.SOLV>
-1.32215

>  <SCORE.INTRA.SOLV.lig_0>
-48.4032

>  <SCORE.INTRA.VDW>
0.406375

>  <SCORE.INTRA.VDW.0>
-1.65238

>  <SCORE.INTRA.norm>
-1.22866

>  <SCORE.RESTR>
0

>  <SCORE.RESTR.CAVITY>
0

>  <SCORE.RESTR.norm>
0

>  <SCORE.SYSTEM>
0

>  <SCORE.SYSTEM.CONST>
0

>  <SCORE.SYSTEM.DIHEDRAL>
0

>  <SCORE.SYSTEM.SOLV>
0

>  <SCORE.SYSTEM.norm>
0

>  <SCORE.heavy>
13

>  <SCORE.norm>
-1.0053

>  <RMSD>
10.328

$$$$
ligand
 OpenBabel11021811473D
libRbt.so/2013.1/901 2013/11/27
 13 12  0  0  0  0  0  0  0  0999 V2000
   25.2966   39.2587   55.5614 O   0  0  0  0  0  0  0  0  0  0  0  0
   26.0454   36.5224   55.9222 O   0  0  0  0  0  0  0  0  0  0  0  0
   25.8938   40.6610   51.4435 P   0  0  1  0  0  0  0  0  0  0  0  0
   24.4456   40.4047   51.1307 O   0  5  0  0  0  0  0  0  0  0  0  0
   26.8037   41.5917   50.8119 O   0  0  0  0  0  0  0  0  0  0  0  0
   25.9952   40.3385   53.0211 O   0  0  0  0  0  0  0  0  0  0  0  0
   27.5564   34.4613   54.6868 O   0  0  0  0  0  0  0  0  0  0  0  0
   25.2445   41.0867   54.0020 C   0  0  0  0  0  0  0  0  0  0  0  0
   25.3778   37.2469   56.9735 C   0  0  0  0  0  0  0  0  0  0  0  0
   28.1212   35.7706   54.8773 C   0  0  0  0  0  0  0  0  0  0  0  0
   25.6225   40.6440   55.4232 C   0  0  0  0  0  0  0  0  0  0  0  0
   25.6788   38.7594   56.8576 C   0  0  0  0  0  0  0  0  0  0  0  0
   27.4709   36.4544   56.1028 C   0  0  0  0  0  0  0  0  0  0  0  0
  1 12  1  0  0  0  0
  1 11  1  0  0  0  0
  2 13  1  0  0  0  0
  2  9  1  0  0  0  0
  3  4  1  1  0  0  0
  3  5  2  0  0  0  0
  3  6  1  0  0  0  0
  6  8  1  0  0  0  0
  7 10  1  0  0  0  0
  8 11  1  0  0  0  0
  9 12  1  0  0  0  0
 10 13  1  0  0  0  0
M  CHG  1   4  -1
M  END
>  <CHROM.1>
-177.55202246,-175.15661480,-61.65937591,-175.28766641,-61.25294602,71.56070625
56.62754986,-57.24912928,177.53027880,26.09593324,38.86759284,54.08783740
1.20766147,-1.07416218,2.09375045

>  <Name>
ligand

>  <RI>
0

>  <Rbt.Current_Directory>
/home/itssahil/PROJECTS/Mol_Feturizer/New_Systems/rnas/3GS8

>  <Rbt.Executable>
rbdock ($Id: //depot/dev/client3/rdock/2013.1/src/exe/rbdock.cxx#4 $)

>  <Rbt.Library>
libRbt.so (2013.1, Build901 2013/11/27)

>  <Rbt.Parameter_File>
/export/apps/rDock/src/rDock_2013.1_src/data/scripts/dock_solv.prm

>  <Rbt.Receptor>
prm/pocket_docking_8.prm

>  <SCORE>
-8.87555

>  <SCORE.INTER>
5.96018

>  <SCORE.INTER.CONST>
1

>  <SCORE.INTER.POLAR>
0

>  <SCORE.INTER.ROT>
9

>  <SCORE.INTER.SOLV>
10.2498

>  <SCORE.INTER.VDW>
-9.04313

>  <SCORE.INTER.norm>
0.458475

>  <SCORE.INTRA>
-14.8357

>  <SCORE.INTRA.DIHEDRAL>
-30.5263

>  <SCORE.INTRA.DIHEDRAL.0>
31.9578

>  <SCORE.INTRA.POLAR>
0

>  <SCORE.INTRA.POLAR.0>
0

>  <SCORE.INTRA.REPUL>
0

>  <SCORE.INTRA.REPUL.0>
0

>  <SCORE.INTRA.SOLV>
-1.0494

>  <SCORE.INTRA.SOLV.lig_0>
-48.4032

>  <SCORE.INTRA.VDW>
0.952121

>  <SCORE.INTRA.VDW.0>
-1.65238

>  <SCORE.INTRA.norm>
-1.14121

>  <SCORE.RESTR>
0

>  <SCORE.RESTR.CAVITY>
0

>  <SCORE.RESTR.norm>
0

>  <SCORE.SYSTEM>
0

>  <SCORE.SYSTEM.CONST>
0

>  <SCORE.SYSTEM.DIHEDRAL>
0

>  <SCORE.SYSTEM.SOLV>
0

>  <SCORE.SYSTEM.norm>
0

>  <SCORE.heavy>
13

>  <SCORE.norm>
-0.682735

>  <RMSD>
10.608

$$$$
ligand
 OpenBabel11021811473D
libRbt.so/2013.1/901 2013/11/27
 13 12  0  0  0  0  0  0  0  0999 V2000
   23.3825   31.2373   49.7703 O   0  0  0  0  0  0  0  0  0  0  0  0
   24.8984   31.4123   47.2714 O   0  0  0  0  0  0  0  0  0  0  0  0
   22.0149   28.1441   52.5918 P   0  0  1  0  0  0  0  0  0  0  0  0
   23.2507   27.7580   53.3565 O   0  5  0  0  0  0  0  0  0  0  0  0
   20.6364   27.8072   52.8728 O   0  0  0  0  0  0  0  0  0  0  0  0
   22.4086   29.5692   51.9458 O   0  0  0  0  0  0  0  0  0  0  0  0
   24.8406   29.1510   45.5130 O   0  0  0  0  0  0  0  0  0  0  0  0
   21.5653   30.2247   50.9738 C   0  0  0  0  0  0  0  0  0  0  0  0
   25.2935   32.0912   48.4792 C   0  0  0  0  0  0  0  0  0  0  0  0
   25.5011   30.3746   45.1440 C   0  0  0  0  0  0  0  0  0  0  0  0
   22.1997   31.5450   50.5124 C   0  0  0  0  0  0  0  0  0  0  0  0
   24.0503   32.4362   49.3319 C   0  0  0  0  0  0  0  0  0  0  0  0
   26.0083   31.1046   46.4097 C   0  0  0  0  0  0  0  0  0  0  0  0
  1 12  1  0  0  0  0
  1 11  1  0  0  0  0
  2 13  1  0  0  0  0
  2  9  1  0  0  0  0
  3  4  1  1  0  0  0
  3  5  2  0  0  0  0
  3  6  1  0  0  0  0
  6  8  1  0  0  0  0
  7 10  1  0  0  0  0
  8 11  1  0  0  0  0
  9 12  1  0  0  0  0
 10 13  1  0  0  0  0
M  CHG  1   4  -1
M  END
>  <CHROM.1>
-177.55434519,179.76531176,171.46035907,-178.80658474,67.43565526,177.94621385
63.79155975,-60.03332391,-178.58844434,23.40257453,30.01209205,49.82770260
0.22659968,1.08813174,0.12933645

>  <Name>
ligand

>  <RI>
0

>  <Rbt.Current_Directory>
/home/itssahil/PROJECTS/Mol_Feturizer/New_Systems/rnas/3GS8

>  <Rbt.Executable>
rbdock ($Id: //depot/dev/client3/rdock/2013.1/src/exe/rbdock.cxx#4 $)

>  <Rbt.Library>
libRbt.so (2013.1, Build901 2013/11/27)

>  <Rbt.Parameter_File>
/export/apps/rDock/src/rDock_2013.1_src/data/scripts/dock_solv.prm

>  <Rbt.Receptor>
prm/blind_docking_100.prm

>  <SCORE>
-12.7441

>  <SCORE.INTER>
3.53262

>  <SCORE.INTER.CONST>
1

>  <SCORE.INTER.POLAR>
0

>  <SCORE.INTER.ROT>
9

>  <SCORE.INTER.SOLV>
7.6973

>  <SCORE.INTER.VDW>
-9.81069

>  <SCORE.INTER.norm>
0.27174

>  <SCORE.INTRA>
-16.2768

>  <SCORE.INTRA.DIHEDRAL>
-31.3037

>  <SCORE.INTRA.DIHEDRAL.0>
31.9578

>  <SCORE.INTRA.POLAR>
0

>  <SCORE.INTRA.POLAR.0>
0

>  <SCORE.INTRA.REPUL>
0

>  <SCORE.INTRA.REPUL.0>
0

>  <SCORE.INTRA.SOLV>
-1.46792

>  <SCORE.INTRA.SOLV.lig_0>
-48.4032

>  <SCORE.INTRA.VDW>
0.109021

>  <SCORE.INTRA.VDW.0>
-1.65238

>  <SCORE.INTRA.norm>
-1.25206

>  <SCORE.RESTR>
0

>  <SCORE.RESTR.CAVITY>
0

>  <SCORE.RESTR.norm>
0

>  <SCORE.SYSTEM>
0

>  <SCORE.SYSTEM.CONST>
0

>  <SCORE.SYSTEM.DIHEDRAL>
0

>  <SCORE.SYSTEM.SOLV>
0

>  <SCORE.SYSTEM.norm>
0

>  <SCORE.heavy>
13

>  <SCORE.norm>
-0.980319

>  <RMSD>
10.712

$$$$
ligand
 OpenBabel11021811473D
libRbt.so/2013.1/901 2013/11/27
 13 12  0  0  0  0  0  0  0  0999 V2000
   21.4336   32.2981   51.1228 O   0  0  0  0  0  0  0  0  0  0  0  0
   22.9365   32.1886   48.5326 O   0  0  0  0  0  0  0  0  0  0  0  0
   19.9383   28.2421   51.9616 P   0  0  1  0  0  0  0  0  0  0  0  0
   20.1265   27.1852   50.9087 O   0  5  0  0  0  0  0  0  0  0  0  0
   19.7719   28.0760   53.3890 O   0  0  0  0  0  0  0  0  0  0  0  0
   20.7297   29.5119   51.3579 O   0  0  0  0  0  0  0  0  0  0  0  0
   25.1426   30.4853   49.2062 O   0  0  0  0  0  0  0  0  0  0  0  0
   21.8394   30.1199   52.0540 C   0  0  0  0  0  0  0  0  0  0  0  0
   21.9216   33.1542   48.8695 C   0  0  0  0  0  0  0  0  0  0  0  0
   25.2976   31.6029   48.3137 C   0  0  0  0  0  0  0  0  0  0  0  0
   22.4264   31.2746   51.2288 C   0  0  0  0  0  0  0  0  0  0  0  0
   21.9316   33.4344   50.3904 C   0  0  0  0  0  0  0  0  0  0  0  0
   24.2720   32.7063   48.6643 C   0  0  0  0  0  0  0  0  0  0  0  0
  1 12  1  0  0  0  0
  1 11  1  0  0  0  0
  2 13  1  0  0  0  0
  2  9  1  0  0  0  0
  3  4  1  1  0  0  0
  3  5  2  0  0  0  0
  3  6  1  0  0  0  0
  6  8  1  0  0  0  0
  7 10  1  0  0  0  0
  8 11  1  0  0  0  0
  9 12  1  0  0  0  0
 10 13  1  0  0  0  0
M  CHG  1   4  -1
M  END
>  <CHROM.1>
78.02673417,178.84098601,-120.21286370,178.18127768,64.86479132,-69.87347004
-70.73340884,-60.26932748,178.32846448,21.93457788,30.53944929,50.59823249
0.78383460,0.60139167,-0.14333439

>  <Name>
ligand

>  <RI>
0

>  <Rbt.Current_Directory>
/home/itssahil/PROJECTS/Mol_Feturizer/New_Systems/rnas/3GS8

>  <Rbt.Executable>
rbdock ($Id: //depot/dev/client3/rdock/2013.1/src/exe/rbdock.cxx#4 $)

>  <Rbt.Library>
libRbt.so (2013.1, Build901 2013/11/27)

>  <Rbt.Parameter_File>
/export/apps/rDock/src/rDock_2013.1_src/data/scripts/dock_solv.prm

>  <Rbt.Receptor>
prm/blind_docking_100.prm

>  <SCORE>
-11.3651

>  <SCORE.INTER>
1.60224

>  <SCORE.INTER.CONST>
1

>  <SCORE.INTER.POLAR>
0

>  <SCORE.INTER.ROT>
9

>  <SCORE.INTER.SOLV>
13.9631

>  <SCORE.INTER.VDW>
-13.1862

>  <SCORE.INTER.norm>
0.123249

>  <SCORE.INTRA>
-12.9674

>  <SCORE.INTRA.DIHEDRAL>
-28.3081

>  <SCORE.INTRA.DIHEDRAL.0>
31.9578

>  <SCORE.INTRA.POLAR>
0

>  <SCORE.INTRA.POLAR.0>
0

>  <SCORE.INTRA.REPUL>
0

>  <SCORE.INTRA.REPUL.0>
0

>  <SCORE.INTRA.SOLV>
-0.80916

>  <SCORE.INTRA.SOLV.lig_0>
-48.4032

>  <SCORE.INTRA.VDW>
1.59125

>  <SCORE.INTRA.VDW.0>
-1.65238

>  <SCORE.INTRA.norm>
-0.997491

>  <SCORE.RESTR>
0

>  <SCORE.RESTR.CAVITY>
0

>  <SCORE.RESTR.norm>
0

>  <SCORE.SYSTEM>
0

>  <SCORE.SYSTEM.CONST>
0

>  <SCORE.SYSTEM.DIHEDRAL>
0

>  <SCORE.SYSTEM.SOLV>
0

>  <SCORE.SYSTEM.norm>
0

>  <SCORE.heavy>
13

>  <SCORE.norm>
-0.874241

>  <RMSD>
11.356

$$$$
ligand
 OpenBabel11021811473D
libRbt.so/2013.1/901 2013/11/27
 13 12  0  0  0  0  0  0  0  0999 V2000
   24.7522   27.0307   49.4344 O   0  0  0  0  0  0  0  0  0  0  0  0
   24.4488   29.3127   51.1623 O   0  0  0  0  0  0  0  0  0  0  0  0
   22.9840   23.5266   51.2252 P   0  0  1  0  0  0  0  0  0  0  0  0
   21.7901   23.9361   52.0425 O   0  5  0  0  0  0  0  0  0  0  0  0
   23.3984   22.1967   50.8346 O   0  0  0  0  0  0  0  0  0  0  0  0
   23.2180   24.7913   50.2510 O   0  0  0  0  0  0  0  0  0  0  0  0
   23.9944   28.7358   53.9396 O   0  0  0  0  0  0  0  0  0  0  0  0
   24.1240   24.7312   49.1280 C   0  0  0  0  0  0  0  0  0  0  0  0
   25.2828   29.3672   49.9887 C   0  0  0  0  0  0  0  0  0  0  0  0
   23.9442   30.0786   53.4261 C   0  0  0  0  0  0  0  0  0  0  0  0
   24.2505   26.1097   48.4626 C   0  0  0  0  0  0  0  0  0  0  0  0
   24.7688   28.3758   48.9188 C   0  0  0  0  0  0  0  0  0  0  0  0
   24.8778   30.2116   52.2001 C   0  0  0  0  0  0  0  0  0  0  0  0
  1 12  1  0  0  0  0
  1 11  1  0  0  0  0
  2 13  1  0  0  0  0
  2  9  1  0  0  0  0
  3  4  1  6  0  0  0
  3  5  2  0  0  0  0
  3  6  1  0  0  0  0
  6  8  1  0  0  0  0
  7 10  1  0  0  0  0
  8 11  1  0  0  0  0
  9 12  1  0  0  0  0
 10 13  1  0  0  0  0
M  CHG  1   4  -1
M  END
>  <CHROM.1>
178.71755956,-179.28290454,-168.77868450,-174.55963664,59.97926879,179.81803498
-58.61781277,60.82286652,-174.15252018,23.88500837,26.49270500,50.90167111
-0.94343647,-1.15126590,-2.38702070

>  <Name>
ligand

>  <RI>
0

>  <Rbt.Current_Directory>
/home/itssahil/PROJECTS/Mol_Feturizer/New_Systems/rnas/3GS8

>  <Rbt.Executable>
rbdock ($Id: //depot/dev/client3/rdock/2013.1/src/exe/rbdock.cxx#4 $)

>  <Rbt.Library>
libRbt.so (2013.1, Build901 2013/11/27)

>  <Rbt.Parameter_File>
/export/apps/rDock/src/rDock_2013.1_src/data/scripts/dock_solv.prm

>  <Rbt.Receptor>
prm/blind_docking_80.prm

>  <SCORE>
-13.5142

>  <SCORE.INTER>
2.49339

>  <SCORE.INTER.CONST>
1

>  <SCORE.INTER.POLAR>
0

>  <SCORE.INTER.ROT>
9

>  <SCORE.INTER.SOLV>
12.7338

>  <SCORE.INTER.VDW>
-12.1824

>  <SCORE.INTER.norm>
0.191799

>  <SCORE.INTRA>
-16.0076

>  <SCORE.INTRA.DIHEDRAL>
-30.8857

>  <SCORE.INTRA.DIHEDRAL.0>
31.9578

>  <SCORE.INTRA.POLAR>
0

>  <SCORE.INTRA.POLAR.0>
0

>  <SCORE.INTRA.REPUL>
0

>  <SCORE.INTRA.REPUL.0>
0

>  <SCORE.INTRA.SOLV>
-1.33105

>  <SCORE.INTRA.SOLV.lig_0>
-48.4032

>  <SCORE.INTRA.VDW>
0.100842

>  <SCORE.INTRA.VDW.0>
-1.65238

>  <SCORE.INTRA.norm>
-1.23135

>  <SCORE.RESTR>
0

>  <SCORE.RESTR.CAVITY>
0

>  <SCORE.RESTR.norm>
0

>  <SCORE.SYSTEM>
0

>  <SCORE.SYSTEM.CONST>
0

>  <SCORE.SYSTEM.DIHEDRAL>
0

>  <SCORE.SYSTEM.SOLV>
0

>  <SCORE.SYSTEM.norm>
0

>  <SCORE.heavy>
13

>  <SCORE.norm>
-1.03955

>  <RMSD>
11.623

$$$$
ligand
 OpenBabel11021811473D
libRbt.so/2013.1/901 2013/11/27
 13 12  0  0  0  0  0  0  0  0999 V2000
   22.0408   27.8717   48.6279 O   0  0  0  0  0  0  0  0  0  0  0  0
   23.8100   29.6989   47.2251 O   0  0  0  0  0  0  0  0  0  0  0  0
   20.6870   27.4925   52.7848 P   0  0  1  0  0  0  0  0  0  0  0  0
   21.8351   26.8909   53.5470 O   0  5  0  0  0  0  0  0  0  0  0  0
   19.8245   28.5893   53.1671 O   0  0  0  0  0  0  0  0  0  0  0  0
   21.1016   27.2578   51.2433 O   0  0  0  0  0  0  0  0  0  0  0  0
   25.9602   32.7016   46.9871 O   0  0  0  0  0  0  0  0  0  0  0  0
   20.2084   27.5818   50.1557 C   0  0  0  0  0  0  0  0  0  0  0  0
   24.0083   28.2719   47.2077 C   0  0  0  0  0  0  0  0  0  0  0  0
   24.7457   31.9546   47.1785 C   0  0  0  0  0  0  0  0  0  0  0  0
   20.8174   27.1549   48.8120 C   0  0  0  0  0  0  0  0  0  0  0  0
   22.6552   27.5403   47.3676 C   0  0  0  0  0  0  0  0  0  0  0  0
   25.0326   30.4392   47.0627 C   0  0  0  0  0  0  0  0  0  0  0  0
  1 12  1  0  0  0  0
  1 11  1  0  0  0  0
  2 13  1  0  0  0  0
  2  9  1  0  0  0  0
  3  4  1  1  0  0  0
  3  5  2  0  0  0  0
  3  6  1  0  0  0  0
  6  8  1  0  0  0  0
  7 10  1  0  0  0  0
  8 11  1  0  0  0  0
  9 12  1  0  0  0  0
 10 13  1  0  0  0  0
M  CHG  1   4  -1
M  END
>  <CHROM.1>
-177.42895355,-176.58152853,174.24228434,-175.57485843,-61.12190675,-179.24054685
-61.37387345,-178.72213848,-178.75580031,22.36556208,28.63359531,49.65741352
0.48278231,-0.91203062,-2.00022217

>  <Name>
ligand

>  <RI>
0

>  <Rbt.Current_Directory>
/home/itssahil/PROJECTS/Mol_Feturizer/New_Systems/rnas/3GS8

>  <Rbt.Executable>
rbdock ($Id: //depot/dev/client3/rdock/2013.1/src/exe/rbdock.cxx#4 $)

>  <Rbt.Library>
libRbt.so (2013.1, Build901 2013/11/27)

>  <Rbt.Parameter_File>
/export/apps/rDock/src/rDock_2013.1_src/data/scripts/dock_solv.prm

>  <Rbt.Receptor>
prm/blind_docking_80.prm

>  <SCORE>
-12.2371

>  <SCORE.INTER>
4.12847

>  <SCORE.INTER.CONST>
1

>  <SCORE.INTER.POLAR>
0

>  <SCORE.INTER.ROT>
9

>  <SCORE.INTER.SOLV>
12.0129

>  <SCORE.INTER.VDW>
-10.852

>  <SCORE.INTER.norm>
0.317575

>  <SCORE.INTRA>
-16.3656

>  <SCORE.INTRA.DIHEDRAL>
-31.3814

>  <SCORE.INTRA.DIHEDRAL.0>
31.9578

>  <SCORE.INTRA.POLAR>
0

>  <SCORE.INTRA.POLAR.0>
0

>  <SCORE.INTRA.REPUL>
0

>  <SCORE.INTRA.REPUL.0>
0

>  <SCORE.INTRA.SOLV>
-1.69855

>  <SCORE.INTRA.SOLV.lig_0>
-48.4032

>  <SCORE.INTRA.VDW>
0.174391

>  <SCORE.INTRA.VDW.0>
-1.65238

>  <SCORE.INTRA.norm>
-1.25889

>  <SCORE.RESTR>
0

>  <SCORE.RESTR.CAVITY>
0

>  <SCORE.RESTR.norm>
0

>  <SCORE.SYSTEM>
0

>  <SCORE.SYSTEM.CONST>
0

>  <SCORE.SYSTEM.DIHEDRAL>
0

>  <SCORE.SYSTEM.SOLV>
0

>  <SCORE.SYSTEM.norm>
0

>  <SCORE.heavy>
13

>  <SCORE.norm>
-0.941315

>  <RMSD>
12.103

$$$$
ligand
 OpenBabel11021811473D
libRbt.so/2013.1/901 2013/11/27
 13 12  0  0  0  0  0  0  0  0999 V2000
   21.0161   28.9126   51.5591 O   0  0  0  0  0  0  0  0  0  0  0  0
   22.3661   32.1721   50.3926 O   0  0  0  0  0  0  0  0  0  0  0  0
   20.3837   26.4046   50.0186 P   0  0  1  0  0  0  0  0  0  0  0  0
   18.8884   26.2842   49.9162 O   0  5  0  0  0  0  0  0  0  0  0  0
   21.2735   27.2699   49.2754 O   0  0  0  0  0  0  0  0  0  0  0  0
   20.6812   26.0304   51.5596 O   0  0  0  0  0  0  0  0  0  0  0  0
   22.4302   35.0145   50.6031 O   0  0  0  0  0  0  0  0  0  0  0  0
   20.2849   26.8970   52.6448 C   0  0  0  0  0  0  0  0  0  0  0  0
   21.6542   30.9232   50.2947 C   0  0  0  0  0  0  0  0  0  0  0  0
   22.9478   34.3446   49.4400 C   0  0  0  0  0  0  0  0  0  0  0  0
   21.2156   28.1158   52.7293 C   0  0  0  0  0  0  0  0  0  0  0  0
   21.8188   30.1083   51.5988 C   0  0  0  0  0  0  0  0  0  0  0  0
   22.2080   33.0028   49.2290 C   0  0  0  0  0  0  0  0  0  0  0  0
  1 12  1  0  0  0  0
  1 11  1  0  0  0  0
  2 13  1  0  0  0  0
  2  9  1  0  0  0  0
  3  4  1  1  0  0  0
  3  5  2  0  0  0  0
  3  6  1  0  0  0  0
  6  8  1  0  0  0  0
  7 10  1  0  0  0  0
  8 11  1  0  0  0  0
  9 12  1  0  0  0  0
 10 13  1  0  0  0  0
M  CHG  1   4  -1
M  END
>  <CHROM.1>
176.88729803,177.48248958,-69.08843436,-75.05350171,66.67895438,-177.64275815
174.92032457,-58.55919604,177.49277603,21.23360793,29.37079464,50.64765290
-2.80214213,-1.25521226,-1.32013213

>  <Name>
ligand

>  <RI>
0

>  <Rbt.Current_Directory>
/home/itssahil/PROJECTS/Mol_Feturizer/New_Systems/rnas/3GS8

>  <Rbt.Executable>
rbdock ($Id: //depot/dev/client3/rdock/2013.1/src/exe/rbdock.cxx#4 $)

>  <Rbt.Library>
libRbt.so (2013.1, Build901 2013/11/27)

>  <Rbt.Parameter_File>
/export/apps/rDock/src/rDock_2013.1_src/data/scripts/dock_solv.prm

>  <Rbt.Receptor>
prm/blind_docking_80.prm

>  <SCORE>
-10.9612

>  <SCORE.INTER>
2.56223

>  <SCORE.INTER.CONST>
1

>  <SCORE.INTER.POLAR>
0

>  <SCORE.INTER.ROT>
9

>  <SCORE.INTER.SOLV>
11.151

>  <SCORE.INTER.VDW>
-11.6088

>  <SCORE.INTER.norm>
0.197094

>  <SCORE.INTRA>
-13.5265

>  <SCORE.INTRA.DIHEDRAL>
-30.1669

>  <SCORE.INTRA.DIHEDRAL.0>
31.9578

>  <SCORE.INTRA.POLAR>
0

>  <SCORE.INTRA.POLAR.0>
0

>  <SCORE.INTRA.REPUL>
0

>  <SCORE.INTRA.REPUL.0>
0

>  <SCORE.INTRA.SOLV>
3.61225

>  <SCORE.INTRA.SOLV.lig_0>
-48.4032

>  <SCORE.INTRA.VDW>
-0.249242

>  <SCORE.INTRA.VDW.0>
-1.65238

>  <SCORE.INTRA.norm>
-1.0405

>  <SCORE.RESTR>
0.00313038

>  <SCORE.RESTR.CAVITY>
0.00313038

>  <SCORE.RESTR.norm>
0.000240798

>  <SCORE.SYSTEM>
0

>  <SCORE.SYSTEM.CONST>
0

>  <SCORE.SYSTEM.DIHEDRAL>
0

>  <SCORE.SYSTEM.SOLV>
0

>  <SCORE.SYSTEM.norm>
0

>  <SCORE.heavy>
13

>  <SCORE.norm>
-0.843169

>  <RMSD>
12.110

$$$$
ligand
 OpenBabel11021811473D
libRbt.so/2013.1/901 2013/11/27
 13 12  0  0  0  0  0  0  0  0999 V2000
   21.1004   28.9073   51.8087 O   0  0  0  0  0  0  0  0  0  0  0  0
   21.9897   32.3776   50.8680 O   0  0  0  0  0  0  0  0  0  0  0  0
   20.0199   26.5522   50.2295 P   0  0  1  0  0  0  0  0  0  0  0  0
   21.1779   26.6447   49.2748 O   0  5  0  0  0  0  0  0  0  0  0  0
   18.6409   26.2176   49.9476 O   0  0  0  0  0  0  0  0  0  0  0  0
   20.7168   26.1110   51.6161 O   0  0  0  0  0  0  0  0  0  0  0  0
   23.5311   34.7546   50.4196 O   0  0  0  0  0  0  0  0  0  0  0  0
   20.4859   26.8291   52.8477 C   0  0  0  0  0  0  0  0  0  0  0  0
   21.5569   31.0224   50.6399 C   0  0  0  0  0  0  0  0  0  0  0  0
   22.1259   34.6977   50.1166 C   0  0  0  0  0  0  0  0  0  0  0  0
   21.3914   28.0669   52.9283 C   0  0  0  0  0  0  0  0  0  0  0  0
   21.8044   30.1609   51.9001 C   0  0  0  0  0  0  0  0  0  0  0  0
   21.7205   33.2493   49.7559 C   0  0  0  0  0  0  0  0  0  0  0  0
  1 12  1  0  0  0  0
  1 11  1  0  0  0  0
  2 13  1  0  0  0  0
  2  9  1  0  0  0  0
  3  4  1  6  0  0  0
  3  5  2  0  0  0  0
  3  6  1  0  0  0  0
  6  8  1  0  0  0  0
  7 10  1  0  0  0  0
  8 11  1  0  0  0  0
  9 12  1  0  0  0  0
 10 13  1  0  0  0  0
M  CHG  1   4  -1
M  END
>  <CHROM.1>
176.22253711,176.19084614,128.33069161,-82.33992695,59.39858579,-176.86747906
166.37920611,60.35786133,173.42816851,21.14883501,29.38376382,50.87584411
-2.38121610,-1.14409776,-0.82607873

>  <Name>
ligand

>  <RI>
0

>  <Rbt.Current_Directory>
/home/itssahil/PROJECTS/Mol_Feturizer/New_Systems/rnas/3GS8

>  <Rbt.Executable>
rbdock ($Id: //depot/dev/client3/rdock/2013.1/src/exe/rbdock.cxx#4 $)

>  <Rbt.Library>
libRbt.so (2013.1, Build901 2013/11/27)

>  <Rbt.Parameter_File>
/export/apps/rDock/src/rDock_2013.1_src/data/scripts/dock_solv.prm

>  <Rbt.Receptor>
prm/blind_docking_100.prm

>  <SCORE>
-11.8332

>  <SCORE.INTER>
1.32537

>  <SCORE.INTER.CONST>
1

>  <SCORE.INTER.POLAR>
0

>  <SCORE.INTER.ROT>
9

>  <SCORE.INTER.SOLV>
13.3594

>  <SCORE.INTER.VDW>
-13.1696

>  <SCORE.INTER.norm>
0.101952

>  <SCORE.INTRA>
-13.1586

>  <SCORE.INTRA.DIHEDRAL>
-27.75

>  <SCORE.INTRA.DIHEDRAL.0>
31.9578

>  <SCORE.INTRA.POLAR>
0

>  <SCORE.INTRA.POLAR.0>
0

>  <SCORE.INTRA.REPUL>
0

>  <SCORE.INTRA.REPUL.0>
0

>  <SCORE.INTRA.SOLV>
1.81773

>  <SCORE.INTRA.SOLV.lig_0>
-48.4032

>  <SCORE.INTRA.VDW>
-0.192465

>  <SCORE.INTRA.VDW.0>
-1.65238

>  <SCORE.INTRA.norm>
-1.0122

>  <SCORE.RESTR>
0

>  <SCORE.RESTR.CAVITY>
0

>  <SCORE.RESTR.norm>
0

>  <SCORE.SYSTEM>
0

>  <SCORE.SYSTEM.CONST>
0

>  <SCORE.SYSTEM.DIHEDRAL>
0

>  <SCORE.SYSTEM.SOLV>
0

>  <SCORE.SYSTEM.norm>
0

>  <SCORE.heavy>
13

>  <SCORE.norm>
-0.910247

>  <RMSD>
12.254

$$$$
ligand
 OpenBabel11021811473D
libRbt.so/2013.1/901 2013/11/27
 13 12  0  0  0  0  0  0  0  0999 V2000
   24.2796   27.2310   49.4615 O   0  0  0  0  0  0  0  0  0  0  0  0
   23.8781   24.5160   50.2499 O   0  0  0  0  0  0  0  0  0  0  0  0
   25.6133   29.2730   52.5090 P   0  0  1  0  0  0  0  0  0  0  0  0
   25.1999   28.5663   53.7702 O   0  5  0  0  0  0  0  0  0  0  0  0
   26.9278   29.3595   51.9110 O   0  0  0  0  0  0  0  0  0  0  0  0
   24.2855   29.2071   51.5947 O   0  0  0  0  0  0  0  0  0  0  0  0
   22.2177   21.7776   52.1049 O   0  0  0  0  0  0  0  0  0  0  0  0
   24.3137   29.5224   50.1856 C   0  0  0  0  0  0  0  0  0  0  0  0
   24.1010   24.8514   48.8665 C   0  0  0  0  0  0  0  0  0  0  0  0
   22.9565   22.9993   51.9280 C   0  0  0  0  0  0  0  0  0  0  0  0
   25.0568   28.4296   49.4031 C   0  0  0  0  0  0  0  0  0  0  0  0
   24.9272   26.1541   48.7568 C   0  0  0  0  0  0  0  0  0  0  0  0
   23.1277   23.3008   50.4207 C   0  0  0  0  0  0  0  0  0  0  0  0
  1 12  1  0  0  0  0
  1 11  1  0  0  0  0
  2 13  1  0  0  0  0
  2  9  1  0  0  0  0
  3  4  1  6  0  0  0
  3  5  2  0  0  0  0
  3  6  1  0  0  0  0
  6  8  1  0  0  0  0
  7 10  1  0  0  0  0
  8 11  1  0  0  0  0
  9 12  1  0  0  0  0
 10 13  1  0  0  0  0
M  CHG  1   4  -1
M  END
>  <CHROM.1>
178.10968149,178.91984233,-166.88437519,70.46816688,67.29728809,-179.24369025
-56.16590878,-179.43522048,-179.37366494,24.48007032,26.78376448,51.02789403
-0.14313112,-1.19414439,-1.56973311

>  <Name>
ligand

>  <RI>
0

>  <Rbt.Current_Directory>
/home/itssahil/PROJECTS/Mol_Feturizer/New_Systems/rnas/3GS8

>  <Rbt.Executable>
rbdock ($Id: //depot/dev/client3/rdock/2013.1/src/exe/rbdock.cxx#4 $)

>  <Rbt.Library>
libRbt.so (2013.1, Build901 2013/11/27)

>  <Rbt.Parameter_File>
/export/apps/rDock/src/rDock_2013.1_src/data/scripts/dock_solv.prm

>  <Rbt.Receptor>
prm/blind_docking_80.prm

>  <SCORE>
-13.1108

>  <SCORE.INTER>
1.74477

>  <SCORE.INTER.CONST>
1

>  <SCORE.INTER.POLAR>
0

>  <SCORE.INTER.ROT>
9

>  <SCORE.INTER.SOLV>
6.84642

>  <SCORE.INTER.VDW>
-10.719

>  <SCORE.INTER.norm>
0.134213

>  <SCORE.INTRA>
-14.8555

>  <SCORE.INTRA.DIHEDRAL>
-30.3564

>  <SCORE.INTRA.DIHEDRAL.0>
31.9578

>  <SCORE.INTRA.POLAR>
0

>  <SCORE.INTRA.POLAR.0>
0

>  <SCORE.INTRA.REPUL>
0

>  <SCORE.INTRA.REPUL.0>
0

>  <SCORE.INTRA.SOLV>
0.337679

>  <SCORE.INTRA.SOLV.lig_0>
-48.4032

>  <SCORE.INTRA.VDW>
0.153819

>  <SCORE.INTRA.VDW.0>
-1.65238

>  <SCORE.INTRA.norm>
-1.14273

>  <SCORE.RESTR>
0

>  <SCORE.RESTR.CAVITY>
0

>  <SCORE.RESTR.norm>
0

>  <SCORE.SYSTEM>
0

>  <SCORE.SYSTEM.CONST>
0

>  <SCORE.SYSTEM.DIHEDRAL>
0

>  <SCORE.SYSTEM.SOLV>
0

>  <SCORE.SYSTEM.norm>
0

>  <SCORE.heavy>
13

>  <SCORE.norm>
-1.00852

>  <RMSD>
12.330

$$$$
ligand
 OpenBabel11021811473D
libRbt.so/2013.1/901 2013/11/27
 13 12  0  0  0  0  0  0  0  0999 V2000
   21.7052   28.3849   49.2380 O   0  0  0  0  0  0  0  0  0  0  0  0
   20.0320   26.7300   50.8281 O   0  0  0  0  0  0  0  0  0  0  0  0
   24.8241   30.3909   46.6309 P   0  0  1  0  0  0  0  0  0  0  0  0
   24.2313   30.8000   45.3110 O   0  5  0  0  0  0  0  0  0  0  0  0
   25.0670   31.2034   47.8030 O   0  0  0  0  0  0  0  0  0  0  0  0
   24.3938   28.8418   46.7664 O   0  0  0  0  0  0  0  0  0  0  0  0
   18.7893   24.5458   49.4280 O   0  0  0  0  0  0  0  0  0  0  0  0
   23.1034   28.4514   47.2844 C   0  0  0  0  0  0  0  0  0  0  0  0
   20.1807   28.1264   51.1503 C   0  0  0  0  0  0  0  0  0  0  0  0
   18.6842   24.6932   50.8551 C   0  0  0  0  0  0  0  0  0  0  0  0
   22.9906   28.8060   48.7744 C   0  0  0  0  0  0  0  0  0  0  0  0
   21.5446   28.6513   50.6447 C   0  0  0  0  0  0  0  0  0  0  0  0
   18.7644   26.1890   51.2401 C   0  0  0  0  0  0  0  0  0  0  0  0
  1 12  1  0  0  0  0
  1 11  1  0  0  0  0
  2 13  1  0  0  0  0
  2  9  1  0  0  0  0
  3  4  1  1  0  0  0
  3  5  2  0  0  0  0
  3  6  1  0  0  0  0
  6  8  1  0  0  0  0
  7 10  1  0  0  0  0
  8 11  1  0  0  0  0
  9 12  1  0  0  0  0
 10 13  1  0  0  0  0
M  CHG  1   4  -1
M  END
>  <CHROM.1>
-177.08660644,179.83630677,-84.08489358,-67.37040386,-179.31285835,-178.37344823
54.50268118,-61.22197432,178.27367691,22.13516900,28.33584475,48.69716011
-3.02351897,-0.83367925,-2.14666666

>  <Name>
ligand

>  <RI>
0

>  <Rbt.Current_Directory>
/home/itssahil/PROJECTS/Mol_Feturizer/New_Systems/rnas/3GS8

>  <Rbt.Executable>
rbdock ($Id: //depot/dev/client3/rdock/2013.1/src/exe/rbdock.cxx#4 $)

>  <Rbt.Library>
libRbt.so (2013.1, Build901 2013/11/27)

>  <Rbt.Parameter_File>
/export/apps/rDock/src/rDock_2013.1_src/data/scripts/dock_solv.prm

>  <Rbt.Receptor>
prm/blind_docking_80.prm

>  <SCORE>
-12.9248

>  <SCORE.INTER>
2.29762

>  <SCORE.INTER.CONST>
1

>  <SCORE.INTER.POLAR>
0

>  <SCORE.INTER.ROT>
9

>  <SCORE.INTER.SOLV>
8.92175

>  <SCORE.INTER.VDW>
-11.0422

>  <SCORE.INTER.norm>
0.17674

>  <SCORE.INTRA>
-15.2224

>  <SCORE.INTRA.DIHEDRAL>
-31.181

>  <SCORE.INTRA.DIHEDRAL.0>
31.9578

>  <SCORE.INTRA.POLAR>
0

>  <SCORE.INTRA.POLAR.0>
0

>  <SCORE.INTRA.REPUL>
0

>  <SCORE.INTRA.REPUL.0>
0

>  <SCORE.INTRA.SOLV>
0.234493

>  <SCORE.INTRA.SOLV.lig_0>
-48.4032

>  <SCORE.INTRA.VDW>
0.250867

>  <SCORE.INTRA.VDW.0>
-1.65238

>  <SCORE.INTRA.norm>
-1.17095

>  <SCORE.RESTR>
0

>  <SCORE.RESTR.CAVITY>
0

>  <SCORE.RESTR.norm>
0

>  <SCORE.SYSTEM>
0

>  <SCORE.SYSTEM.CONST>
0

>  <SCORE.SYSTEM.DIHEDRAL>
0

>  <SCORE.SYSTEM.SOLV>
0

>  <SCORE.SYSTEM.norm>
0

>  <SCORE.heavy>
13

>  <SCORE.norm>
-0.994213

>  <RMSD>
12.343

$$$$
ligand
 OpenBabel11021811473D
libRbt.so/2013.1/901 2013/11/27
 13 12  0  0  0  0  0  0  0  0999 V2000
   21.4701   28.8513   51.7069 O   0  0  0  0  0  0  0  0  0  0  0  0
   23.0365   32.0136   50.5445 O   0  0  0  0  0  0  0  0  0  0  0  0
   20.2342   24.9422   50.9683 P   0  0  1  0  0  0  0  0  0  0  0  0
   18.8344   24.6497   50.5036 O   0  5  0  0  0  0  0  0  0  0  0  0
   21.4682   24.2923   50.5839 O   0  0  0  0  0  0  0  0  0  0  0  0
   20.1927   26.5207   51.2995 O   0  0  0  0  0  0  0  0  0  0  0  0
   21.3097   35.1522   49.6151 O   0  0  0  0  0  0  0  0  0  0  0  0
   20.2405   27.0168   52.6550 C   0  0  0  0  0  0  0  0  0  0  0  0
   22.7228   30.6075   50.5258 C   0  0  0  0  0  0  0  0  0  0  0  0
   22.3923   34.3214   50.0703 C   0  0  0  0  0  0  0  0  0  0  0  0
   20.4569   28.5373   52.6656 C   0  0  0  0  0  0  0  0  0  0  0  0
   21.6953   30.2723   51.6320 C   0  0  0  0  0  0  0  0  0  0  0  0
   21.9542   32.8381   50.0777 C   0  0  0  0  0  0  0  0  0  0  0  0
  1 12  1  0  0  0  0
  1 11  1  0  0  0  0
  2 13  1  0  0  0  0
  2  9  1  0  0  0  0
  3  4  1  6  0  0  0
  3  5  2  0  0  0  0
  3  6  1  0  0  0  0
  6  8  1  0  0  0  0
  7 10  1  0  0  0  0
  8 11  1  0  0  0  0
  9 12  1  0  0  0  0
 10 13  1  0  0  0  0
M  CHG  1   4  -1
M  END
>  <CHROM.1>
-176.16314775,-177.51275131,108.80494168,169.14473085,-43.96013352,-71.11853810
-174.51597956,-179.50657515,178.13407677,21.14125487,28.85108289,50.97103925
1.85947440,-0.65192392,-3.07028542

>  <Name>
ligand

>  <RI>
0

>  <Rbt.Current_Directory>
/home/itssahil/PROJECTS/Mol_Feturizer/New_Systems/rnas/3GS8

>  <Rbt.Executable>
rbdock ($Id: //depot/dev/client3/rdock/2013.1/src/exe/rbdock.cxx#4 $)

>  <Rbt.Library>
libRbt.so (2013.1, Build901 2013/11/27)

>  <Rbt.Parameter_File>
/export/apps/rDock/src/rDock_2013.1_src/data/scripts/dock_solv.prm

>  <Rbt.Receptor>
prm/blind_docking_80.prm

>  <SCORE>
-12.1359

>  <SCORE.INTER>
1.62354

>  <SCORE.INTER.CONST>
1

>  <SCORE.INTER.POLAR>
0

>  <SCORE.INTER.ROT>
9

>  <SCORE.INTER.SOLV>
6.38107

>  <SCORE.INTER.VDW>
-10.6447

>  <SCORE.INTER.norm>
0.124888

>  <SCORE.INTRA>
-13.7594

>  <SCORE.INTRA.DIHEDRAL>
-28.3487

>  <SCORE.INTRA.DIHEDRAL.0>
31.9578

>  <SCORE.INTRA.POLAR>
0

>  <SCORE.INTRA.POLAR.0>
0

>  <SCORE.INTRA.REPUL>
0

>  <SCORE.INTRA.REPUL.0>
0

>  <SCORE.INTRA.SOLV>
-1.71925

>  <SCORE.INTRA.SOLV.lig_0>
-48.4032

>  <SCORE.INTRA.VDW>
1.27459

>  <SCORE.INTRA.VDW.0>
-1.65238

>  <SCORE.INTRA.norm>
-1.05842

>  <SCORE.RESTR>
0

>  <SCORE.RESTR.CAVITY>
0

>  <SCORE.RESTR.norm>
0

>  <SCORE.SYSTEM>
0

>  <SCORE.SYSTEM.CONST>
0

>  <SCORE.SYSTEM.DIHEDRAL>
0

>  <SCORE.SYSTEM.SOLV>
0

>  <SCORE.SYSTEM.norm>
0

>  <SCORE.heavy>
13

>  <SCORE.norm>
-0.933528

>  <RMSD>
12.478

$$$$
ligand
 OpenBabel11021811473D
libRbt.so/2013.1/901 2013/11/27
 13 12  0  0  0  0  0  0  0  0999 V2000
   21.0612   29.5858   51.7219 O   0  0  0  0  0  0  0  0  0  0  0  0
   24.1665   30.0051   51.7084 O   0  0  0  0  0  0  0  0  0  0  0  0
   19.1232   25.9388   50.4753 P   0  0  1  0  0  0  0  0  0  0  0  0
   19.8533   25.0703   49.4886 O   0  5  0  0  0  0  0  0  0  0  0  0
   18.1111   25.5596   51.4370 O   0  0  0  0  0  0  0  0  0  0  0  0
   20.1901   27.1033   50.8050 O   0  0  0  0  0  0  0  0  0  0  0  0
   27.7441   29.0938   51.4533 O   0  0  0  0  0  0  0  0  0  0  0  0
   20.4656   28.1711   49.8725 C   0  0  0  0  0  0  0  0  0  0  0  0
   23.2071   30.1723   52.7703 C   0  0  0  0  0  0  0  0  0  0  0  0
   26.4513   29.5239   50.9916 C   0  0  0  0  0  0  0  0  0  0  0  0
   21.5191   29.1300   50.4464 C   0  0  0  0  0  0  0  0  0  0  0  0
   21.8621   30.6826   52.2026 C   0  0  0  0  0  0  0  0  0  0  0  0
   25.4673   29.6136   52.1815 C   0  0  0  0  0  0  0  0  0  0  0  0
  1 12  1  0  0  0  0
  1 11  1  0  0  0  0
  2 13  1  0  0  0  0
  2  9  1  0  0  0  0
  3  4  1  1  0  0  0
  3  5  2  0  0  0  0
  3  6  1  0  0  0  0
  6  8  1  0  0  0  0
  7 10  1  0  0  0  0
  8 11  1  0  0  0  0
  9 12  1  0  0  0  0
 10 13  1  0  0  0  0
M  CHG  1   4  -1
M  END
>  <CHROM.1>
-77.75683847,-177.22825886,75.23796312,-179.91835019,-54.91439046,176.24290054
84.29470559,-178.27700419,-168.67379963,21.97497795,28.19514799,51.13332801
2.60727485,-0.06487122,-2.71519303

>  <Name>
ligand

>  <RI>
0

>  <Rbt.Current_Directory>
/home/itssahil/PROJECTS/Mol_Feturizer/New_Systems/rnas/3GS8

>  <Rbt.Executable>
rbdock ($Id: //depot/dev/client3/rdock/2013.1/src/exe/rbdock.cxx#4 $)

>  <Rbt.Library>
libRbt.so (2013.1, Build901 2013/11/27)

>  <Rbt.Parameter_File>
/export/apps/rDock/src/rDock_2013.1_src/data/scripts/dock_solv.prm

>  <Rbt.Receptor>
prm/blind_docking_100.prm

>  <SCORE>
-10.9543

>  <SCORE.INTER>
2.33752

>  <SCORE.INTER.CONST>
1

>  <SCORE.INTER.POLAR>
0

>  <SCORE.INTER.ROT>
9

>  <SCORE.INTER.SOLV>
13.4653

>  <SCORE.INTER.VDW>
-12.5301

>  <SCORE.INTER.norm>
0.179809

>  <SCORE.INTRA>
-13.2918

>  <SCORE.INTRA.DIHEDRAL>
-26.8847

>  <SCORE.INTRA.DIHEDRAL.0>
31.9578

>  <SCORE.INTRA.POLAR>
0

>  <SCORE.INTRA.POLAR.0>
0

>  <SCORE.INTRA.REPUL>
0

>  <SCORE.INTRA.REPUL.0>
0

>  <SCORE.INTRA.SOLV>
-1.45914

>  <SCORE.INTRA.SOLV.lig_0>
-48.4032

>  <SCORE.INTRA.VDW>
0.880117

>  <SCORE.INTRA.VDW.0>
-1.65238

>  <SCORE.INTRA.norm>
-1.02245

>  <SCORE.RESTR>
0

>  <SCORE.RESTR.CAVITY>
0

>  <SCORE.RESTR.norm>
0

>  <SCORE.SYSTEM>
0

>  <SCORE.SYSTEM.CONST>
0

>  <SCORE.SYSTEM.DIHEDRAL>
0

>  <SCORE.SYSTEM.SOLV>
0

>  <SCORE.SYSTEM.norm>
0

>  <SCORE.heavy>
13

>  <SCORE.norm>
-0.842636

>  <RMSD>
12.605

$$$$
ligand
 OpenBabel11021811473D
libRbt.so/2013.1/901 2013/11/27
 13 12  0  0  0  0  0  0  0  0999 V2000
   20.8622   29.7566   51.0734 O   0  0  0  0  0  0  0  0  0  0  0  0
   23.6843   29.6003   52.1059 O   0  0  0  0  0  0  0  0  0  0  0  0
   19.1106   25.7860   50.4302 P   0  0  1  0  0  0  0  0  0  0  0  0
   19.8177   24.7072   51.2030 O   0  5  0  0  0  0  0  0  0  0  0  0
   17.7128   25.8688   50.0667 O   0  0  0  0  0  0  0  0  0  0  0  0
   19.9588   27.1121   50.7838 O   0  0  0  0  0  0  0  0  0  0  0  0
   26.8538   27.9401   53.0482 O   0  0  0  0  0  0  0  0  0  0  0  0
   19.7564   27.8412   52.0139 C   0  0  0  0  0  0  0  0  0  0  0  0
   23.2257   30.4347   51.0245 C   0  0  0  0  0  0  0  0  0  0  0  0
   25.4569   28.2727   53.1361 C   0  0  0  0  0  0  0  0  0  0  0  0
   20.8633   28.8878   52.2090 C   0  0  0  0  0  0  0  0  0  0  0  0
   21.7603   30.8667   51.2647 C   0  0  0  0  0  0  0  0  0  0  0  0
   25.0596   29.2027   51.9659 C   0  0  0  0  0  0  0  0  0  0  0  0
  1 12  1  0  0  0  0
  1 11  1  0  0  0  0
  2 13  1  0  0  0  0
  2  9  1  0  0  0  0
  3  4  1  1  0  0  0
  3  5  2  0  0  0  0
  3  6  1  0  0  0  0
  6  8  1  0  0  0  0
  7 10  1  0  0  0  0
  8 11  1  0  0  0  0
  9 12  1  0  0  0  0
 10 13  1  0  0  0  0
M  CHG  1   4  -1
M  END
>  <CHROM.1>
78.37290351,-178.01386155,-80.88182645,169.34170942,57.37544438,-177.91419640
-71.98714808,-176.36043732,172.62412754,21.61426402,27.94539652,51.46224019
0.44234228,-0.30710564,-0.05558471

>  <Name>
ligand

>  <RI>
0

>  <Rbt.Current_Directory>
/home/itssahil/PROJECTS/Mol_Feturizer/New_Systems/rnas/3GS8

>  <Rbt.Executable>
rbdock ($Id: //depot/dev/client3/rdock/2013.1/src/exe/rbdock.cxx#4 $)

>  <Rbt.Library>
libRbt.so (2013.1, Build901 2013/11/27)

>  <Rbt.Parameter_File>
/export/apps/rDock/src/rDock_2013.1_src/data/scripts/dock_solv.prm

>  <Rbt.Receptor>
prm/blind_docking_100.prm

>  <SCORE>
-11.498

>  <SCORE.INTER>
2.51891

>  <SCORE.INTER.CONST>
1

>  <SCORE.INTER.POLAR>
0

>  <SCORE.INTER.ROT>
9

>  <SCORE.INTER.SOLV>
13.0146

>  <SCORE.INTER.VDW>
-12.2589

>  <SCORE.INTER.norm>
0.193762

>  <SCORE.INTRA>
-14.0169

>  <SCORE.INTRA.DIHEDRAL>
-28.6676

>  <SCORE.INTRA.DIHEDRAL.0>
31.9578

>  <SCORE.INTRA.POLAR>
0

>  <SCORE.INTRA.POLAR.0>
0

>  <SCORE.INTRA.REPUL>
0

>  <SCORE.INTRA.REPUL.0>
0

>  <SCORE.INTRA.SOLV>
-1.24596

>  <SCORE.INTRA.SOLV.lig_0>
-48.4032

>  <SCORE.INTRA.VDW>
0.939909

>  <SCORE.INTRA.VDW.0>
-1.65238

>  <SCORE.INTRA.norm>
-1.07822

>  <SCORE.RESTR>
0

>  <SCORE.RESTR.CAVITY>
0

>  <SCORE.RESTR.norm>
0

>  <SCORE.SYSTEM>
0

>  <SCORE.SYSTEM.CONST>
0

>  <SCORE.SYSTEM.DIHEDRAL>
0

>  <SCORE.SYSTEM.SOLV>
0

>  <SCORE.SYSTEM.norm>
0

>  <SCORE.heavy>
13

>  <SCORE.norm>
-0.884459

>  <RMSD>
13.019

$$$$
ligand
 OpenBabel11021811473D
libRbt.so/2013.1/901 2013/11/27
 13 12  0  0  0  0  0  0  0  0999 V2000
   21.3251   28.8240   51.6379 O   0  0  0  0  0  0  0  0  0  0  0  0
   19.1798   27.0377   50.8140 O   0  0  0  0  0  0  0  0  0  0  0  0
   24.9899   29.3340   51.8791 P   0  0  1  0  0  0  0  0  0  0  0  0
   25.9467   30.4932   51.8365 O   0  5  0  0  0  0  0  0  0  0  0  0
   24.6838   28.4553   52.9869 O   0  0  0  0  0  0  0  0  0  0  0  0
   23.8570   29.7487   50.8078 O   0  0  0  0  0  0  0  0  0  0  0  0
   18.9712   23.8456   48.9593 O   0  0  0  0  0  0  0  0  0  0  0  0
   22.7903   30.6632   51.1416 C   0  0  0  0  0  0  0  0  0  0  0  0
   19.9547   26.8157   52.0082 C   0  0  0  0  0  0  0  0  0  0  0  0
   19.6121   24.9673   49.5924 C   0  0  0  0  0  0  0  0  0  0  0  0
   21.8494   30.0379   52.1819 C   0  0  0  0  0  0  0  0  0  0  0  0
   20.4581   28.1620   52.5790 C   0  0  0  0  0  0  0  0  0  0  0  0
   18.5591   25.8399   50.3149 C   0  0  0  0  0  0  0  0  0  0  0  0
  1 12  1  0  0  0  0
  1 11  1  0  0  0  0
  2 13  1  0  0  0  0
  2  9  1  0  0  0  0
  3  4  1  1  0  0  0
  3  5  2  0  0  0  0
  3  6  1  0  0  0  0
  6  8  1  0  0  0  0
  7 10  1  0  0  0  0
  8 11  1  0  0  0  0
  9 12  1  0  0  0  0
 10 13  1  0  0  0  0
M  CHG  1   4  -1
M  END
>  <CHROM.1>
-177.10329153,-76.76840531,-80.74128023,-67.08088885,-58.51014209,-173.56802840
-62.00339825,-173.41998247,178.43473302,22.00437903,28.12577403,51.32873250
2.44604414,-0.09645776,-2.64202286

>  <Name>
ligand

>  <RI>
0

>  <Rbt.Current_Directory>
/home/itssahil/PROJECTS/Mol_Feturizer/New_Systems/rnas/3GS8

>  <Rbt.Executable>
rbdock ($Id: //depot/dev/client3/rdock/2013.1/src/exe/rbdock.cxx#4 $)

>  <Rbt.Library>
libRbt.so (2013.1, Build901 2013/11/27)

>  <Rbt.Parameter_File>
/export/apps/rDock/src/rDock_2013.1_src/data/scripts/dock_solv.prm

>  <Rbt.Receptor>
prm/blind_docking_80.prm

>  <SCORE>
-11.9253

>  <SCORE.INTER>
1.51774

>  <SCORE.INTER.CONST>
1

>  <SCORE.INTER.POLAR>
0

>  <SCORE.INTER.ROT>
9

>  <SCORE.INTER.SOLV>
4.9322

>  <SCORE.INTER.VDW>
-10.2322

>  <SCORE.INTER.norm>
0.116749

>  <SCORE.INTRA>
-13.443

>  <SCORE.INTRA.DIHEDRAL>
-29.6773

>  <SCORE.INTRA.DIHEDRAL.0>
31.9578

>  <SCORE.INTRA.POLAR>
0

>  <SCORE.INTRA.POLAR.0>
0

>  <SCORE.INTRA.REPUL>
0

>  <SCORE.INTRA.REPUL.0>
0

>  <SCORE.INTRA.SOLV>
1.38298

>  <SCORE.INTRA.SOLV.lig_0>
-48.4032

>  <SCORE.INTRA.VDW>
0.704125

>  <SCORE.INTRA.VDW.0>
-1.65238

>  <SCORE.INTRA.norm>
-1.03408

>  <SCORE.RESTR>
0

>  <SCORE.RESTR.CAVITY>
0

>  <SCORE.RESTR.norm>
0

>  <SCORE.SYSTEM>
0

>  <SCORE.SYSTEM.CONST>
0

>  <SCORE.SYSTEM.DIHEDRAL>
0

>  <SCORE.SYSTEM.SOLV>
0

>  <SCORE.SYSTEM.norm>
0

>  <SCORE.heavy>
13

>  <SCORE.norm>
-0.917329

>  <RMSD>
13.107

$$$$
ligand
 OpenBabel11021811473D
libRbt.so/2013.1/901 2013/11/27
 13 12  0  0  0  0  0  0  0  0999 V2000
   21.3930   28.7596   51.0340 O   0  0  0  0  0  0  0  0  0  0  0  0
   23.9179   29.1863   52.2761 O   0  0  0  0  0  0  0  0  0  0  0  0
   19.0548   25.0989   50.6286 P   0  0  1  0  0  0  0  0  0  0  0  0
   18.8560   24.7571   52.0793 O   0  5  0  0  0  0  0  0  0  0  0  0
   18.4019   24.5316   49.4689 O   0  0  0  0  0  0  0  0  0  0  0  0
   19.4753   26.6561   50.6687 O   0  0  0  0  0  0  0  0  0  0  0  0
   26.6922   28.4071   52.2642 O   0  0  0  0  0  0  0  0  0  0  0  0
   20.1800   27.2839   49.5756 C   0  0  0  0  0  0  0  0  0  0  0  0
   22.8263   30.0941   52.5216 C   0  0  0  0  0  0  0  0  0  0  0  0
   25.9529   28.6219   51.0489 C   0  0  0  0  0  0  0  0  0  0  0  0
   20.5057   28.7464   49.9129 C   0  0  0  0  0  0  0  0  0  0  0  0
   21.8495   30.0952   51.3226 C   0  0  0  0  0  0  0  0  0  0  0  0
   24.8406   29.6704   51.2844 C   0  0  0  0  0  0  0  0  0  0  0  0
  1 12  1  0  0  0  0
  1 11  1  0  0  0  0
  2 13  1  0  0  0  0
  2  9  1  0  0  0  0
  3  4  1  1  0  0  0
  3  5  2  0  0  0  0
  3  6  1  0  0  0  0
  6  8  1  0  0  0  0
  7 10  1  0  0  0  0
  8 11  1  0  0  0  0
  9 12  1  0  0  0  0
 10 13  1  0  0  0  0
M  CHG  1   4  -1
M  END
>  <CHROM.1>
-179.06249586,-178.23142868,159.11481957,-177.37501022,63.52863795,72.09546499
55.13563123,-61.73896474,174.15814203,21.59665296,27.57489266,51.05904525
0.55995337,-0.24073829,-0.04513231

>  <Name>
ligand

>  <RI>
0

>  <Rbt.Current_Directory>
/home/itssahil/PROJECTS/Mol_Feturizer/New_Systems/rnas/3GS8

>  <Rbt.Executable>
rbdock ($Id: //depot/dev/client3/rdock/2013.1/src/exe/rbdock.cxx#4 $)

>  <Rbt.Library>
libRbt.so (2013.1, Build901 2013/11/27)

>  <Rbt.Parameter_File>
/export/apps/rDock/src/rDock_2013.1_src/data/scripts/dock_solv.prm

>  <Rbt.Receptor>
prm/blind_docking_100.prm

>  <SCORE>
-12.7735

>  <SCORE.INTER>
2.34521

>  <SCORE.INTER.CONST>
1

>  <SCORE.INTER.POLAR>
0

>  <SCORE.INTER.ROT>
9

>  <SCORE.INTER.SOLV>
10.9945

>  <SCORE.INTER.VDW>
-11.7014

>  <SCORE.INTER.norm>
0.180401

>  <SCORE.INTRA>
-15.1187

>  <SCORE.INTRA.DIHEDRAL>
-30.5967

>  <SCORE.INTRA.DIHEDRAL.0>
31.9578

>  <SCORE.INTRA.POLAR>
0

>  <SCORE.INTRA.POLAR.0>
0

>  <SCORE.INTRA.REPUL>
0

>  <SCORE.INTRA.REPUL.0>
0

>  <SCORE.INTRA.SOLV>
-1.37774

>  <SCORE.INTRA.SOLV.lig_0>
-48.4032

>  <SCORE.INTRA.VDW>
0.868477

>  <SCORE.INTRA.VDW.0>
-1.65238

>  <SCORE.INTRA.norm>
-1.16298

>  <SCORE.RESTR>
0

>  <SCORE.RESTR.CAVITY>
0

>  <SCORE.RESTR.norm>
0

>  <SCORE.SYSTEM>
0

>  <SCORE.SYSTEM.CONST>
0

>  <SCORE.SYSTEM.DIHEDRAL>
0

>  <SCORE.SYSTEM.SOLV>
0

>  <SCORE.SYSTEM.norm>
0

>  <SCORE.heavy>
13

>  <SCORE.norm>
-0.982578

>  <RMSD>
13.129

$$$$
ligand
 OpenBabel11021811473D
libRbt.so/2013.1/901 2013/11/27
 13 12  0  0  0  0  0  0  0  0999 V2000
   20.8160   29.4118   51.4624 O   0  0  0  0  0  0  0  0  0  0  0  0
   22.4795   30.6600   49.5038 O   0  0  0  0  0  0  0  0  0  0  0  0
   19.0170   25.5681   50.3239 P   0  0  1  0  0  0  0  0  0  0  0  0
   19.8501   24.3583   50.6450 O   0  5  0  0  0  0  0  0  0  0  0  0
   17.5802   25.6649   50.1854 O   0  0  0  0  0  0  0  0  0  0  0  0
   19.8778   26.7855   50.9405 O   0  0  0  0  0  0  0  0  0  0  0  0
   22.0529   29.7848   46.8027 O   0  0  0  0  0  0  0  0  0  0  0  0
   19.4055   27.5610   52.0636 C   0  0  0  0  0  0  0  0  0  0  0  0
   22.1010   31.3657   50.7015 C   0  0  0  0  0  0  0  0  0  0  0  0
   23.1087   30.7004   47.1441 C   0  0  0  0  0  0  0  0  0  0  0  0
   20.4934   28.5332   52.5434 C   0  0  0  0  0  0  0  0  0  0  0  0
   21.8240   30.3659   51.8484 C   0  0  0  0  0  0  0  0  0  0  0  0
   22.7067   31.5334   48.3837 C   0  0  0  0  0  0  0  0  0  0  0  0
  1 12  1  0  0  0  0
  1 11  1  0  0  0  0
  2 13  1  0  0  0  0
  2  9  1  0  0  0  0
  3  4  1  1  0  0  0
  3  5  2  0  0  0  0
  3  6  1  0  0  0  0
  6  8  1  0  0  0  0
  7 10  1  0  0  0  0
  8 11  1  0  0  0  0
  9 12  1  0  0  0  0
 10 13  1  0  0  0  0
M  CHG  1   4  -1
M  END
>  <CHROM.1>
-176.45649360,179.93159689,-113.21814157,173.13689048,60.23424622,177.98105616
-56.31001145,60.65967752,179.31827136,20.69748821,28.34328466,50.19100669
0.00684131,1.00921051,1.20678336

>  <Name>
ligand

>  <RI>
0

>  <Rbt.Current_Directory>
/home/itssahil/PROJECTS/Mol_Feturizer/New_Systems/rnas/3GS8

>  <Rbt.Executable>
rbdock ($Id: //depot/dev/client3/rdock/2013.1/src/exe/rbdock.cxx#4 $)

>  <Rbt.Library>
libRbt.so (2013.1, Build901 2013/11/27)

>  <Rbt.Parameter_File>
/export/apps/rDock/src/rDock_2013.1_src/data/scripts/dock_solv.prm

>  <Rbt.Receptor>
prm/blind_docking_80.prm

>  <SCORE>
-13.9024

>  <SCORE.INTER>
1.96857

>  <SCORE.INTER.CONST>
1

>  <SCORE.INTER.POLAR>
0

>  <SCORE.INTER.ROT>
9

>  <SCORE.INTER.SOLV>
13.5913

>  <SCORE.INTER.VDW>
-12.818

>  <SCORE.INTER.norm>
0.151429

>  <SCORE.INTRA>
-15.871

>  <SCORE.INTRA.DIHEDRAL>
-30.6125

>  <SCORE.INTRA.DIHEDRAL.0>
31.9578

>  <SCORE.INTRA.POLAR>
0

>  <SCORE.INTRA.POLAR.0>
0

>  <SCORE.INTRA.REPUL>
0

>  <SCORE.INTRA.REPUL.0>
0

>  <SCORE.INTRA.SOLV>
-1.24459

>  <SCORE.INTRA.SOLV.lig_0>
-48.4032

>  <SCORE.INTRA.VDW>
0.0575489

>  <SCORE.INTRA.VDW.0>
-1.65238

>  <SCORE.INTRA.norm>
-1.22084

>  <SCORE.RESTR>
0

>  <SCORE.RESTR.CAVITY>
0

>  <SCORE.RESTR.norm>
0

>  <SCORE.SYSTEM>
0

>  <SCORE.SYSTEM.CONST>
0

>  <SCORE.SYSTEM.DIHEDRAL>
0

>  <SCORE.SYSTEM.SOLV>
0

>  <SCORE.SYSTEM.norm>
0

>  <SCORE.heavy>
13

>  <SCORE.norm>
-1.06942

>  <RMSD>
13.134

$$$$
ligand
 OpenBabel11021811473D
libRbt.so/2013.1/901 2013/11/27
 13 12  0  0  0  0  0  0  0  0999 V2000
   21.0478   29.6805   51.5725 O   0  0  0  0  0  0  0  0  0  0  0  0
   19.8857   27.0398   51.3840 O   0  0  0  0  0  0  0  0  0  0  0  0
   22.4591   34.1185   49.5652 P   0  0  1  0  0  0  0  0  0  0  0  0
   23.2517   33.7102   48.3544 O   0  5  0  0  0  0  0  0  0  0  0  0
   21.3063   34.9893   49.6391 O   0  0  0  0  0  0  0  0  0  0  0  0
   22.6092   32.8504   50.5515 O   0  0  0  0  0  0  0  0  0  0  0  0
   19.7797   24.7922   49.6176 O   0  0  0  0  0  0  0  0  0  0  0  0
   21.6869   31.7398   50.5110 C   0  0  0  0  0  0  0  0  0  0  0  0
   20.1658   27.6564   52.6557 C   0  0  0  0  0  0  0  0  0  0  0  0
   18.5826   25.4641   50.0479 C   0  0  0  0  0  0  0  0  0  0  0  0
   22.0614   30.6889   51.5664 C   0  0  0  0  0  0  0  0  0  0  0  0
   21.3500   28.6424   52.5246 C   0  0  0  0  0  0  0  0  0  0  0  0
   18.8023   26.0954   51.4427 C   0  0  0  0  0  0  0  0  0  0  0  0
  1 12  1  0  0  0  0
  1 11  1  0  0  0  0
  2 13  1  0  0  0  0
  2  9  1  0  0  0  0
  3  4  1  6  0  0  0
  3  5  2  0  0  0  0
  3  6  1  0  0  0  0
  6  8  1  0  0  0  0
  7 10  1  0  0  0  0
  8 11  1  0  0  0  0
  9 12  1  0  0  0  0
 10 13  1  0  0  0  0
M  CHG  1   4  -1
M  END
>  <CHROM.1>
172.67032382,-179.06088675,-88.87950734,-179.37196539,174.43542957,179.22619701
59.97665463,59.55778135,178.79584362,21.13393443,30.19096436,50.60221302
-2.72858332,-1.19019746,-1.30664900

>  <Name>
ligand

>  <RI>
0

>  <Rbt.Current_Directory>
/home/itssahil/PROJECTS/Mol_Feturizer/New_Systems/rnas/3GS8

>  <Rbt.Executable>
rbdock ($Id: //depot/dev/client3/rdock/2013.1/src/exe/rbdock.cxx#4 $)

>  <Rbt.Library>
libRbt.so (2013.1, Build901 2013/11/27)

>  <Rbt.Parameter_File>
/export/apps/rDock/src/rDock_2013.1_src/data/scripts/dock_solv.prm

>  <Rbt.Receptor>
prm/blind_docking_80.prm

>  <SCORE>
-16.9534

>  <SCORE.INTER>
-0.889889

>  <SCORE.INTER.CONST>
1

>  <SCORE.INTER.POLAR>
0

>  <SCORE.INTER.ROT>
9

>  <SCORE.INTER.SOLV>
13.5661

>  <SCORE.INTER.VDW>
-14.7153

>  <SCORE.INTER.norm>
-0.068453

>  <SCORE.INTRA>
-16.0635

>  <SCORE.INTRA.DIHEDRAL>
-31.1764

>  <SCORE.INTRA.DIHEDRAL.0>
31.9578

>  <SCORE.INTRA.POLAR>
0

>  <SCORE.INTRA.POLAR.0>
0

>  <SCORE.INTRA.REPUL>
0

>  <SCORE.INTRA.REPUL.0>
0

>  <SCORE.INTRA.SOLV>
-1.31123

>  <SCORE.INTRA.SOLV.lig_0>
-48.4032

>  <SCORE.INTRA.VDW>
0.180305

>  <SCORE.INTRA.VDW.0>
-1.65238

>  <SCORE.INTRA.norm>
-1.23566

>  <SCORE.RESTR>
0

>  <SCORE.RESTR.CAVITY>
0

>  <SCORE.RESTR.norm>
0

>  <SCORE.SYSTEM>
0

>  <SCORE.SYSTEM.CONST>
0

>  <SCORE.SYSTEM.DIHEDRAL>
0

>  <SCORE.SYSTEM.SOLV>
0

>  <SCORE.SYSTEM.norm>
0

>  <SCORE.heavy>
13

>  <SCORE.norm>
-1.30411

>  <RMSD>
13.134

$$$$
ligand
 OpenBabel11021811473D
libRbt.so/2013.1/901 2013/11/27
 13 12  0  0  0  0  0  0  0  0999 V2000
   21.7940   28.8210   52.3835 O   0  0  0  0  0  0  0  0  0  0  0  0
   19.9800   26.5446   51.4869 O   0  0  0  0  0  0  0  0  0  0  0  0
   24.9956   29.4803   55.2701 P   0  0  1  0  0  0  0  0  0  0  0  0
   24.3700   29.6082   56.6314 O   0  5  0  0  0  0  0  0  0  0  0  0
   26.1490   28.7014   54.8754 O   0  0  0  0  0  0  0  0  0  0  0  0
   23.7482   29.6873   54.2678 O   0  0  0  0  0  0  0  0  0  0  0  0
   21.3505   24.9559   49.5611 O   0  0  0  0  0  0  0  0  0  0  0  0
   23.9305   29.8218   52.8415 C   0  0  0  0  0  0  0  0  0  0  0  0
   19.5937   27.7387   52.1947 C   0  0  0  0  0  0  0  0  0  0  0  0
   19.9377   25.2019   49.4470 C   0  0  0  0  0  0  0  0  0  0  0  0
   22.5758   29.9927   52.1384 C   0  0  0  0  0  0  0  0  0  0  0  0
   20.4923   28.9254   51.7751 C   0  0  0  0  0  0  0  0  0  0  0  0
   19.5814   26.5556   50.1048 C   0  0  0  0  0  0  0  0  0  0  0  0
  1 12  1  0  0  0  0
  1 11  1  0  0  0  0
  2 13  1  0  0  0  0
  2  9  1  0  0  0  0
  3  4  1  1  0  0  0
  3  5  2  0  0  0  0
  3  6  1  0  0  0  0
  6  8  1  0  0  0  0
  7 10  1  0  0  0  0
  8 11  1  0  0  0  0
  9 12  1  0  0  0  0
 10 13  1  0  0  0  0
M  CHG  1   4  -1
M  END
>  <CHROM.1>
-172.78519677,-175.79512935,171.44969460,179.46541565,-61.49072521,-73.76853185
-75.61047866,-58.24379900,178.71069941,22.45682393,28.25697176,52.79338341
2.33019651,0.41225842,-2.52959305

>  <Name>
ligand

>  <RI>
0

>  <Rbt.Current_Directory>
/home/itssahil/PROJECTS/Mol_Feturizer/New_Systems/rnas/3GS8

>  <Rbt.Executable>
rbdock ($Id: //depot/dev/client3/rdock/2013.1/src/exe/rbdock.cxx#4 $)

>  <Rbt.Library>
libRbt.so (2013.1, Build901 2013/11/27)

>  <Rbt.Parameter_File>
/export/apps/rDock/src/rDock_2013.1_src/data/scripts/dock_solv.prm

>  <Rbt.Receptor>
prm/blind_docking_80.prm

>  <SCORE>
-12.7551

>  <SCORE.INTER>
1.82624

>  <SCORE.INTER.CONST>
1

>  <SCORE.INTER.POLAR>
0

>  <SCORE.INTER.ROT>
9

>  <SCORE.INTER.SOLV>
6.998

>  <SCORE.INTER.VDW>
-10.7152

>  <SCORE.INTER.norm>
0.14048

>  <SCORE.INTRA>
-14.5814

>  <SCORE.INTRA.DIHEDRAL>
-29.4941

>  <SCORE.INTRA.DIHEDRAL.0>
31.9578

>  <SCORE.INTRA.POLAR>
0

>  <SCORE.INTRA.POLAR.0>
0

>  <SCORE.INTRA.REPUL>
0

>  <SCORE.INTRA.REPUL.0>
0

>  <SCORE.INTRA.SOLV>
-1.40652

>  <SCORE.INTRA.SOLV.lig_0>
-48.4032

>  <SCORE.INTRA.VDW>
0.868941

>  <SCORE.INTRA.VDW.0>
-1.65238

>  <SCORE.INTRA.norm>
-1.12164

>  <SCORE.RESTR>
0

>  <SCORE.RESTR.CAVITY>
0

>  <SCORE.RESTR.norm>
0

>  <SCORE.SYSTEM>
0

>  <SCORE.SYSTEM.CONST>
0

>  <SCORE.SYSTEM.DIHEDRAL>
0

>  <SCORE.SYSTEM.SOLV>
0

>  <SCORE.SYSTEM.norm>
0

>  <SCORE.heavy>
13

>  <SCORE.norm>
-0.981164

>  <RMSD>
13.211

$$$$
ligand
 OpenBabel11021811473D
libRbt.so/2013.1/901 2013/11/27
 13 12  0  0  0  0  0  0  0  0999 V2000
   20.6757   28.0153   50.7619 O   0  0  0  0  0  0  0  0  0  0  0  0
   21.3133   25.2412   51.2516 O   0  0  0  0  0  0  0  0  0  0  0  0
   22.5841   32.6085   49.7812 P   0  0  1  0  0  0  0  0  0  0  0  0
   21.8934   33.4790   50.7942 O   0  5  0  0  0  0  0  0  0  0  0  0
   24.0027   32.4308   49.5600 O   0  0  0  0  0  0  0  0  0  0  0  0
   21.5499   31.3874   49.5749 O   0  0  0  0  0  0  0  0  0  0  0  0
   23.2571   23.1012   51.1804 O   0  0  0  0  0  0  0  0  0  0  0  0
   21.5642   30.2236   50.4300 C   0  0  0  0  0  0  0  0  0  0  0  0
   19.9509   25.7084   51.2103 C   0  0  0  0  0  0  0  0  0  0  0  0
   23.1884   24.1163   50.1633 C   0  0  0  0  0  0  0  0  0  0  0  0
   20.5888   29.1585   49.9075 C   0  0  0  0  0  0  0  0  0  0  0  0
   19.8356   26.9449   50.2886 C   0  0  0  0  0  0  0  0  0  0  0  0
   21.7350   24.6260   50.0216 C   0  0  0  0  0  0  0  0  0  0  0  0
  1 12  1  0  0  0  0
  1 11  1  0  0  0  0
  2 13  1  0  0  0  0
  2  9  1  0  0  0  0
  3  4  1  1  0  0  0
  3  5  2  0  0  0  0
  3  6  1  0  0  0  0
  6  8  1  0  0  0  0
  7 10  1  0  0  0  0
  8 11  1  0  0  0  0
  9 12  1  0  0  0  0
 10 13  1  0  0  0  0
M  CHG  1   4  -1
M  END
>  <CHROM.1>
179.30778712,-178.31477437,-86.59169556,-173.46051811,178.08645289,-70.96098909
-59.66218797,62.77953310,-176.95793558,21.79685209,28.62477408,50.33885346
1.64112589,-0.13510877,3.05298608

>  <Name>
ligand

>  <RI>
0

>  <Rbt.Current_Directory>
/home/itssahil/PROJECTS/Mol_Feturizer/New_Systems/rnas/3GS8

>  <Rbt.Executable>
rbdock ($Id: //depot/dev/client3/rdock/2013.1/src/exe/rbdock.cxx#4 $)

>  <Rbt.Library>
libRbt.so (2013.1, Build901 2013/11/27)

>  <Rbt.Parameter_File>
/export/apps/rDock/src/rDock_2013.1_src/data/scripts/dock_solv.prm

>  <Rbt.Receptor>
prm/blind_docking_100.prm

>  <SCORE>
-11.2696

>  <SCORE.INTER>
3.67697

>  <SCORE.INTER.CONST>
1

>  <SCORE.INTER.POLAR>
0

>  <SCORE.INTER.ROT>
9

>  <SCORE.INTER.SOLV>
10.6206

>  <SCORE.INTER.VDW>
-10.6889

>  <SCORE.INTER.norm>
0.282844

>  <SCORE.INTRA>
-14.9466

>  <SCORE.INTRA.DIHEDRAL>
-30.715

>  <SCORE.INTRA.DIHEDRAL.0>
31.9578

>  <SCORE.INTRA.POLAR>
0

>  <SCORE.INTRA.POLAR.0>
0

>  <SCORE.INTRA.REPUL>
0

>  <SCORE.INTRA.REPUL.0>
0

>  <SCORE.INTRA.SOLV>
-1.23417

>  <SCORE.INTRA.SOLV.lig_0>
-48.4032

>  <SCORE.INTRA.VDW>
1.02799

>  <SCORE.INTRA.VDW.0>
-1.65238

>  <SCORE.INTRA.norm>
-1.14974

>  <SCORE.RESTR>
0

>  <SCORE.RESTR.CAVITY>
0

>  <SCORE.RESTR.norm>
0

>  <SCORE.SYSTEM>
0

>  <SCORE.SYSTEM.CONST>
0

>  <SCORE.SYSTEM.DIHEDRAL>
0

>  <SCORE.SYSTEM.SOLV>
0

>  <SCORE.SYSTEM.norm>
0

>  <SCORE.heavy>
13

>  <SCORE.norm>
-0.866894

>  <RMSD>
13.330

$$$$
ligand
 OpenBabel11021811473D
libRbt.so/2013.1/901 2013/11/27
 13 12  0  0  0  0  0  0  0  0999 V2000
   21.7864   26.7588   52.7997 O   0  0  0  0  0  0  0  0  0  0  0  0
   19.2805   27.6352   51.5295 O   0  0  0  0  0  0  0  0  0  0  0  0
   24.1808   26.3223   49.1362 P   0  0  1  0  0  0  0  0  0  0  0  0
   24.3062   24.9052   48.6492 O   0  5  0  0  0  0  0  0  0  0  0  0
   23.9199   27.5213   48.3699 O   0  0  0  0  0  0  0  0  0  0  0  0
   23.6066   26.1502   50.6342 O   0  0  0  0  0  0  0  0  0  0  0  0
   18.7469   24.2825   50.0566 O   0  0  0  0  0  0  0  0  0  0  0  0
   23.8770   27.1192   51.6703 C   0  0  0  0  0  0  0  0  0  0  0  0
   19.7641   28.1583   52.7819 C   0  0  0  0  0  0  0  0  0  0  0  0
   18.7054   25.7187   50.1287 C   0  0  0  0  0  0  0  0  0  0  0  0
   23.2029   26.7040   52.9863 C   0  0  0  0  0  0  0  0  0  0  0  0
   21.3097   28.1182   52.8189 C   0  0  0  0  0  0  0  0  0  0  0  0
   19.2792   26.1975   51.4828 C   0  0  0  0  0  0  0  0  0  0  0  0
  1 12  1  0  0  0  0
  1 11  1  0  0  0  0
  2 13  1  0  0  0  0
  2  9  1  0  0  0  0
  3  4  1  6  0  0  0
  3  5  2  0  0  0  0
  3  6  1  0  0  0  0
  6  8  1  0  0  0  0
  7 10  1  0  0  0  0
  8 11  1  0  0  0  0
  9 12  1  0  0  0  0
 10 13  1  0  0  0  0
M  CHG  1   4  -1
M  END
>  <CHROM.1>
-173.40656129,178.17468225,151.69602892,179.75010791,-65.89813484,79.31966006
-65.32301867,177.90872687,-76.16434485,21.90371537,26.54191384,50.81633299
-2.72026168,-0.18329044,-2.11828618

>  <Name>
ligand

>  <RI>
0

>  <Rbt.Current_Directory>
/home/itssahil/PROJECTS/Mol_Feturizer/New_Systems/rnas/3GS8

>  <Rbt.Executable>
rbdock ($Id: //depot/dev/client3/rdock/2013.1/src/exe/rbdock.cxx#4 $)

>  <Rbt.Library>
libRbt.so (2013.1, Build901 2013/11/27)

>  <Rbt.Parameter_File>
/export/apps/rDock/src/rDock_2013.1_src/data/scripts/dock_solv.prm

>  <Rbt.Receptor>
prm/blind_docking_80.prm

>  <SCORE>
-12.0575

>  <SCORE.INTER>
1.13469

>  <SCORE.INTER.CONST>
1

>  <SCORE.INTER.POLAR>
0

>  <SCORE.INTER.ROT>
9

>  <SCORE.INTER.SOLV>
11.3513

>  <SCORE.INTER.VDW>
-12.6273

>  <SCORE.INTER.norm>
0.0872835

>  <SCORE.INTRA>
-13.1922

>  <SCORE.INTRA.DIHEDRAL>
-28.1939

>  <SCORE.INTRA.DIHEDRAL.0>
31.9578

>  <SCORE.INTRA.POLAR>
0

>  <SCORE.INTRA.POLAR.0>
0

>  <SCORE.INTRA.REPUL>
0

>  <SCORE.INTRA.REPUL.0>
0

>  <SCORE.INTRA.SOLV>
-1.61322

>  <SCORE.INTRA.SOLV.lig_0>
-48.4032

>  <SCORE.INTRA.VDW>
1.71138

>  <SCORE.INTRA.VDW.0>
-1.65238

>  <SCORE.INTRA.norm>
-1.01478

>  <SCORE.RESTR>
0

>  <SCORE.RESTR.CAVITY>
0

>  <SCORE.RESTR.norm>
0

>  <SCORE.SYSTEM>
0

>  <SCORE.SYSTEM.CONST>
0

>  <SCORE.SYSTEM.DIHEDRAL>
0

>  <SCORE.SYSTEM.SOLV>
0

>  <SCORE.SYSTEM.norm>
0

>  <SCORE.heavy>
13

>  <SCORE.norm>
-0.9275

>  <RMSD>
13.338

$$$$
ligand
 OpenBabel11021811473D
libRbt.so/2013.1/901 2013/11/27
 13 12  0  0  0  0  0  0  0  0999 V2000
   23.9062   23.8211   50.6518 O   0  0  0  0  0  0  0  0  0  0  0  0
   24.4505   26.5741   49.8794 O   0  0  0  0  0  0  0  0  0  0  0  0
   20.8770   26.2829   52.5558 P   0  0  1  0  0  0  0  0  0  0  0  0
   19.8774   26.8220   51.5704 O   0  5  0  0  0  0  0  0  0  0  0  0
   20.8146   26.2888   54.0011 O   0  0  0  0  0  0  0  0  0  0  0  0
   21.5627   25.0601   51.7571 O   0  0  0  0  0  0  0  0  0  0  0  0
   26.1670   28.0759   51.6454 O   0  0  0  0  0  0  0  0  0  0  0  0
   22.3113   24.0294   52.4376 C   0  0  0  0  0  0  0  0  0  0  0  0
   24.1951   25.5363   48.9132 C   0  0  0  0  0  0  0  0  0  0  0  0
   25.5594   28.6652   50.4822 C   0  0  0  0  0  0  0  0  0  0  0  0
   22.9609   23.0761   51.4238 C   0  0  0  0  0  0  0  0  0  0  0  0
   23.2748   24.4521   49.5211 C   0  0  0  0  0  0  0  0  0  0  0  0
   25.3473   27.5881   49.3928 C   0  0  0  0  0  0  0  0  0  0  0  0
  1 12  1  0  0  0  0
  1 11  1  0  0  0  0
  2 13  1  0  0  0  0
  2  9  1  0  0  0  0
  3  4  1  6  0  0  0
  3  5  2  0  0  0  0
  3  6  1  0  0  0  0
  6  8  1  0  0  0  0
  7 10  1  0  0  0  0
  8 11  1  0  0  0  0
  9 12  1  0  0  0  0
 10 13  1  0  0  0  0
M  CHG  1   4  -1
M  END
>  <CHROM.1>
165.14383361,179.58029358,-162.41242352,-174.51233067,63.75115675,177.59589023
-62.00875978,62.03158597,-86.60473101,22.97126370,25.91390499,51.23947997
-0.13908141,-0.57348358,-2.83112096

>  <Name>
ligand

>  <RI>
0

>  <Rbt.Current_Directory>
/home/itssahil/PROJECTS/Mol_Feturizer/New_Systems/rnas/3GS8

>  <Rbt.Executable>
rbdock ($Id: //depot/dev/client3/rdock/2013.1/src/exe/rbdock.cxx#4 $)

>  <Rbt.Library>
libRbt.so (2013.1, Build901 2013/11/27)

>  <Rbt.Parameter_File>
/export/apps/rDock/src/rDock_2013.1_src/data/scripts/dock_solv.prm

>  <Rbt.Receptor>
prm/blind_docking_100.prm

>  <SCORE>
-11.0878

>  <SCORE.INTER>
2.17469

>  <SCORE.INTER.CONST>
1

>  <SCORE.INTER.POLAR>
0

>  <SCORE.INTER.ROT>
9

>  <SCORE.INTER.SOLV>
7.9911

>  <SCORE.INTER.VDW>
-10.8139

>  <SCORE.INTER.norm>
0.167284

>  <SCORE.INTRA>
-13.2625

>  <SCORE.INTRA.DIHEDRAL>
-26.7874

>  <SCORE.INTRA.DIHEDRAL.0>
31.9578

>  <SCORE.INTRA.POLAR>
0

>  <SCORE.INTRA.POLAR.0>
0

>  <SCORE.INTRA.REPUL>
0

>  <SCORE.INTRA.REPUL.0>
0

>  <SCORE.INTRA.SOLV>
-0.747362

>  <SCORE.INTRA.SOLV.lig_0>
-48.4032

>  <SCORE.INTRA.VDW>
0.504917

>  <SCORE.INTRA.VDW.0>
-1.65238

>  <SCORE.INTRA.norm>
-1.02019

>  <SCORE.RESTR>
0

>  <SCORE.RESTR.CAVITY>
0

>  <SCORE.RESTR.norm>
0

>  <SCORE.SYSTEM>
0

>  <SCORE.SYSTEM.CONST>
0

>  <SCORE.SYSTEM.DIHEDRAL>
0

>  <SCORE.SYSTEM.SOLV>
0

>  <SCORE.SYSTEM.norm>
0

>  <SCORE.heavy>
13

>  <SCORE.norm>
-0.852905

>  <RMSD>
13.383

$$$$
ligand
 OpenBabel11021811473D
libRbt.so/2013.1/901 2013/11/27
 13 12  0  0  0  0  0  0  0  0999 V2000
   22.1359   28.7563   52.7177 O   0  0  0  0  0  0  0  0  0  0  0  0
   20.0693   27.1240   51.1657 O   0  0  0  0  0  0  0  0  0  0  0  0
   24.8894   28.8999   56.1718 P   0  0  1  0  0  0  0  0  0  0  0  0
   25.0016   27.4042   56.0665 O   0  5  0  0  0  0  0  0  0  0  0  0
   25.8655   29.8468   56.6653 O   0  0  0  0  0  0  0  0  0  0  0  0
   23.8965   29.2836   54.9593 O   0  0  0  0  0  0  0  0  0  0  0  0
   18.1036   24.3350   49.7357 O   0  0  0  0  0  0  0  0  0  0  0  0
   24.3254   29.2434   53.5809 C   0  0  0  0  0  0  0  0  0  0  0  0
   19.8228   28.1873   52.1062 C   0  0  0  0  0  0  0  0  0  0  0  0
   19.2408   25.1981   49.9124 C   0  0  0  0  0  0  0  0  0  0  0  0
   23.1968   29.7126   52.6509 C   0  0  0  0  0  0  0  0  0  0  0  0
   20.9580   29.2354   52.0405 C   0  0  0  0  0  0  0  0  0  0  0  0
   18.9705   26.2020   51.0576 C   0  0  0  0  0  0  0  0  0  0  0  0
  1 12  1  0  0  0  0
  1 11  1  0  0  0  0
  2 13  1  0  0  0  0
  2  9  1  0  0  0  0
  3  4  1  6  0  0  0
  3  5  2  0  0  0  0
  3  6  1  0  0  0  0
  6  8  1  0  0  0  0
  7 10  1  0  0  0  0
  8 11  1  0  0  0  0
  9 12  1  0  0  0  0
 10 13  1  0  0  0  0
M  CHG  1   4  -1
M  END
>  <CHROM.1>
179.39495691,173.15437938,-73.26426318,-177.61386327,-66.39437189,-172.75383046
-76.71261794,-175.84851489,170.72394602,22.29226021,28.02257984,53.27425374
2.95645181,0.79018373,2.86523366

>  <Name>
ligand

>  <RI>
0

>  <Rbt.Current_Directory>
/home/itssahil/PROJECTS/Mol_Feturizer/New_Systems/rnas/3GS8

>  <Rbt.Executable>
rbdock ($Id: //depot/dev/client3/rdock/2013.1/src/exe/rbdock.cxx#4 $)

>  <Rbt.Library>
libRbt.so (2013.1, Build901 2013/11/27)

>  <Rbt.Parameter_File>
/export/apps/rDock/src/rDock_2013.1_src/data/scripts/dock_solv.prm

>  <Rbt.Receptor>
prm/blind_docking_100.prm

>  <SCORE>
-13.9299

>  <SCORE.INTER>
1.38672

>  <SCORE.INTER.CONST>
1

>  <SCORE.INTER.POLAR>
0

>  <SCORE.INTER.ROT>
9

>  <SCORE.INTER.SOLV>
5.04199

>  <SCORE.INTER.VDW>
-10.3562

>  <SCORE.INTER.norm>
0.106671

>  <SCORE.INTRA>
-15.3167

>  <SCORE.INTRA.DIHEDRAL>
-29.5288

>  <SCORE.INTRA.DIHEDRAL.0>
31.9578

>  <SCORE.INTRA.POLAR>
0

>  <SCORE.INTRA.POLAR.0>
0

>  <SCORE.INTRA.REPUL>
0

>  <SCORE.INTRA.REPUL.0>
0

>  <SCORE.INTRA.SOLV>
-1.50074

>  <SCORE.INTRA.SOLV.lig_0>
-48.4032

>  <SCORE.INTRA.VDW>
0.198101

>  <SCORE.INTRA.VDW.0>
-1.65238

>  <SCORE.INTRA.norm>
-1.1782

>  <SCORE.RESTR>
0

>  <SCORE.RESTR.CAVITY>
0

>  <SCORE.RESTR.norm>
0

>  <SCORE.SYSTEM>
0

>  <SCORE.SYSTEM.CONST>
0

>  <SCORE.SYSTEM.DIHEDRAL>
0

>  <SCORE.SYSTEM.SOLV>
0

>  <SCORE.SYSTEM.norm>
0

>  <SCORE.heavy>
13

>  <SCORE.norm>
-1.07153

>  <RMSD>
13.558

$$$$
ligand
 OpenBabel11021811473D
libRbt.so/2013.1/901 2013/11/27
 13 12  0  0  0  0  0  0  0  0999 V2000
   20.6555   29.4360   51.4240 O   0  0  0  0  0  0  0  0  0  0  0  0
   19.8675   25.8502   52.0044 O   0  0  0  0  0  0  0  0  0  0  0  0
   22.7780   33.8055   50.0009 P   0  0  1  0  0  0  0  0  0  0  0  0
   22.4577   33.6160   48.5440 O   0  5  0  0  0  0  0  0  0  0  0  0
   22.4655   34.9297   50.8560 O   0  0  0  0  0  0  0  0  0  0  0  0
   22.7880   32.2985   50.5774 O   0  0  0  0  0  0  0  0  0  0  0  0
   20.2918   23.0361   51.5661 O   0  0  0  0  0  0  0  0  0  0  0  0
   21.5671   31.5963   50.8966 C   0  0  0  0  0  0  0  0  0  0  0  0
   19.6108   27.2200   51.6386 C   0  0  0  0  0  0  0  0  0  0  0  0
   19.0935   23.5404   52.1820 C   0  0  0  0  0  0  0  0  0  0  0  0
   21.8763   30.1801   51.4040 C   0  0  0  0  0  0  0  0  0  0  0  0
   20.8781   28.0795   51.8551 C   0  0  0  0  0  0  0  0  0  0  0  0
   18.7885   24.9637   51.6594 C   0  0  0  0  0  0  0  0  0  0  0  0
  1 12  1  0  0  0  0
  1 11  1  0  0  0  0
  2 13  1  0  0  0  0
  2  9  1  0  0  0  0
  3  4  1  6  0  0  0
  3  5  2  0  0  0  0
  3  6  1  0  0  0  0
  6  8  1  0  0  0  0
  7 10  1  0  0  0  0
  8 11  1  0  0  0  0
  9 12  1  0  0  0  0
 10 13  1  0  0  0  0
M  CHG  1   4  -1
M  END
>  <CHROM.1>
-170.07511835,-175.60383581,-79.65014248,179.18173979,-167.46183522,-172.15724386
176.85970419,-61.51160876,178.32714742,21.17417233,29.53710369,51.01705741
2.20118981,-1.02550319,-2.77668224

>  <Name>
ligand

>  <RI>
0

>  <Rbt.Current_Directory>
/home/itssahil/PROJECTS/Mol_Feturizer/New_Systems/rnas/3GS8

>  <Rbt.Executable>
rbdock ($Id: //depot/dev/client3/rdock/2013.1/src/exe/rbdock.cxx#4 $)

>  <Rbt.Library>
libRbt.so (2013.1, Build901 2013/11/27)

>  <Rbt.Parameter_File>
/export/apps/rDock/src/rDock_2013.1_src/data/scripts/dock_solv.prm

>  <Rbt.Receptor>
prm/blind_docking_100.prm

>  <SCORE>
-14.0079

>  <SCORE.INTER>
1.46722

>  <SCORE.INTER.CONST>
1

>  <SCORE.INTER.POLAR>
0

>  <SCORE.INTER.ROT>
9

>  <SCORE.INTER.SOLV>
14.3697

>  <SCORE.INTER.VDW>
-13.4117

>  <SCORE.INTER.norm>
0.112863

>  <SCORE.INTRA>
-15.4752

>  <SCORE.INTRA.DIHEDRAL>
-30.1634

>  <SCORE.INTRA.DIHEDRAL.0>
31.9578

>  <SCORE.INTRA.POLAR>
0

>  <SCORE.INTRA.POLAR.0>
0

>  <SCORE.INTRA.REPUL>
0

>  <SCORE.INTRA.REPUL.0>
0

>  <SCORE.INTRA.SOLV>
-1.47407

>  <SCORE.INTRA.SOLV.lig_0>
-48.4032

>  <SCORE.INTRA.VDW>
0.343599

>  <SCORE.INTRA.VDW.0>
-1.65238

>  <SCORE.INTRA.norm>
-1.1904

>  <SCORE.RESTR>
0

>  <SCORE.RESTR.CAVITY>
0

>  <SCORE.RESTR.norm>
0

>  <SCORE.SYSTEM>
0

>  <SCORE.SYSTEM.CONST>
0

>  <SCORE.SYSTEM.DIHEDRAL>
0

>  <SCORE.SYSTEM.SOLV>
0

>  <SCORE.SYSTEM.norm>
0

>  <SCORE.heavy>
13

>  <SCORE.norm>
-1.07753

>  <RMSD>
13.606

$$$$
ligand
 OpenBabel11021811473D
libRbt.so/2013.1/901 2013/11/27
 13 12  0  0  0  0  0  0  0  0999 V2000
   19.0044   26.7887   50.6428 O   0  0  0  0  0  0  0  0  0  0  0  0
   20.4984   24.3672   51.2375 O   0  0  0  0  0  0  0  0  0  0  0  0
   22.2494   30.4149   52.0787 P   0  0  1  0  0  0  0  0  0  0  0  0
   23.4365   29.9407   51.2869 O   0  5  0  0  0  0  0  0  0  0  0  0
   21.6201   31.7175   52.0711 O   0  0  0  0  0  0  0  0  0  0  0  0
   21.3797   29.0714   52.2837 O   0  0  0  0  0  0  0  0  0  0  0  0
   23.5862   22.3272   51.2169 O   0  0  0  0  0  0  0  0  0  0  0  0
   20.5140   28.5582   51.2480 C   0  0  0  0  0  0  0  0  0  0  0  0
   19.2287   24.3411   50.5570 C   0  0  0  0  0  0  0  0  0  0  0  0
   22.7136   23.4045   51.6009 C   0  0  0  0  0  0  0  0  0  0  0  0
   19.8677   27.2372   51.6907 C   0  0  0  0  0  0  0  0  0  0  0  0
   18.3627   25.5467   50.9909 C   0  0  0  0  0  0  0  0  0  0  0  0
   21.3586   23.2757   50.8663 C   0  0  0  0  0  0  0  0  0  0  0  0
  1 12  1  0  0  0  0
  1 11  1  0  0  0  0
  2 13  1  0  0  0  0
  2  9  1  0  0  0  0
  3  4  1  6  0  0  0
  3  5  2  0  0  0  0
  3  6  1  0  0  0  0
  6  8  1  0  0  0  0
  7 10  1  0  0  0  0
  8 11  1  0  0  0  0
  9 12  1  0  0  0  0
 10 13  1  0  0  0  0
M  CHG  1   4  -1
M  END
>  <CHROM.1>
-88.91681468,178.04010936,-80.40417401,177.18844953,178.89822104,-179.41866781
61.59775951,-179.07546446,179.91946269,21.18769550,27.02844785,51.42918233
1.67491090,0.13902328,-3.03411041

>  <Name>
ligand

>  <RI>
0

>  <Rbt.Current_Directory>
/home/itssahil/PROJECTS/Mol_Feturizer/New_Systems/rnas/3GS8

>  <Rbt.Executable>
rbdock ($Id: //depot/dev/client3/rdock/2013.1/src/exe/rbdock.cxx#4 $)

>  <Rbt.Library>
libRbt.so (2013.1, Build901 2013/11/27)

>  <Rbt.Parameter_File>
/export/apps/rDock/src/rDock_2013.1_src/data/scripts/dock_solv.prm

>  <Rbt.Receptor>
prm/blind_docking_80.prm

>  <SCORE>
-13.7509

>  <SCORE.INTER>
0.43086

>  <SCORE.INTER.CONST>
1

>  <SCORE.INTER.POLAR>
0

>  <SCORE.INTER.ROT>
9

>  <SCORE.INTER.SOLV>
12.761

>  <SCORE.INTER.VDW>
-13.5664

>  <SCORE.INTER.norm>
0.0331431

>  <SCORE.INTRA>
-14.1818

>  <SCORE.INTRA.DIHEDRAL>
-28.1929

>  <SCORE.INTRA.DIHEDRAL.0>
31.9578

>  <SCORE.INTRA.POLAR>
0

>  <SCORE.INTRA.POLAR.0>
0

>  <SCORE.INTRA.REPUL>
0

>  <SCORE.INTRA.REPUL.0>
0

>  <SCORE.INTRA.SOLV>
-1.36545

>  <SCORE.INTRA.SOLV.lig_0>
-48.4032

>  <SCORE.INTRA.VDW>
0.597371

>  <SCORE.INTRA.VDW.0>
-1.65238

>  <SCORE.INTRA.norm>
-1.09091

>  <SCORE.RESTR>
0

>  <SCORE.RESTR.CAVITY>
0

>  <SCORE.RESTR.norm>
0

>  <SCORE.SYSTEM>
0

>  <SCORE.SYSTEM.CONST>
0

>  <SCORE.SYSTEM.DIHEDRAL>
0

>  <SCORE.SYSTEM.SOLV>
0

>  <SCORE.SYSTEM.norm>
0

>  <SCORE.heavy>
13

>  <SCORE.norm>
-1.05776

>  <RMSD>
14.696

$$$$
ligand
 OpenBabel11021811473D
libRbt.so/2013.1/901 2013/11/27
 13 12  0  0  0  0  0  0  0  0999 V2000
   34.7205   25.3907   59.7550 O   0  0  0  0  0  0  0  0  0  0  0  0
   36.4161   26.2725   61.8904 O   0  0  0  0  0  0  0  0  0  0  0  0
   31.9014   22.0550   60.7095 P   0  0  1  0  0  0  0  0  0  0  0  0
   30.9879   20.9394   60.2828 O   0  5  0  0  0  0  0  0  0  0  0  0
   33.0084   22.0106   61.6398 O   0  0  0  0  0  0  0  0  0  0  0  0
   31.9390   23.0188   59.4161 O   0  0  0  0  0  0  0  0  0  0  0  0
   36.6135   26.0616   64.7396 O   0  0  0  0  0  0  0  0  0  0  0  0
   32.6011   24.3020   59.4405 C   0  0  0  0  0  0  0  0  0  0  0  0
   36.8204   26.4204   60.5155 C   0  0  0  0  0  0  0  0  0  0  0  0
   36.3421   24.9124   63.9179 C   0  0  0  0  0  0  0  0  0  0  0  0
   34.1260   24.1218   59.4705 C   0  0  0  0  0  0  0  0  0  0  0  0
   36.1554   25.3321   59.6408 C   0  0  0  0  0  0  0  0  0  0  0  0
   36.9706   25.1027   62.5176 C   0  0  0  0  0  0  0  0  0  0  0  0
  1 12  1  0  0  0  0
  1 11  1  0  0  0  0
  2 13  1  0  0  0  0
  2  9  1  0  0  0  0
  3  4  1  6  0  0  0
  3  5  2  0  0  0  0
  3  6  1  0  0  0  0
  6  8  1  0  0  0  0
  7 10  1  0  0  0  0
  8 11  1  0  0  0  0
  9 12  1  0  0  0  0
 10 13  1  0  0  0  0
M  CHG  1   4  -1
M  END
>  <CHROM.1>
-154.61418264,-172.36508651,173.46078263,71.82703451,-168.89972941,69.96335864
57.27672786,-59.88964177,-173.08703329,34.26726141,24.10278796,61.05497279
-0.14718448,-0.72577748,-1.24277948

>  <Name>
ligand

>  <RI>
0

>  <Rbt.Current_Directory>
/home/itssahil/PROJECTS/Mol_Feturizer/New_Systems/rnas/3GS8

>  <Rbt.Executable>
rbdock ($Id: //depot/dev/client3/rdock/2013.1/src/exe/rbdock.cxx#4 $)

>  <Rbt.Library>
libRbt.so (2013.1, Build901 2013/11/27)

>  <Rbt.Parameter_File>
/export/apps/rDock/src/rDock_2013.1_src/data/scripts/dock_solv.prm

>  <Rbt.Receptor>
prm/blind_docking_80.prm

>  <SCORE>
-14.1335

>  <SCORE.INTER>
-1.83127

>  <SCORE.INTER.CONST>
1

>  <SCORE.INTER.POLAR>
0

>  <SCORE.INTER.ROT>
9

>  <SCORE.INTER.SOLV>
11.036

>  <SCORE.INTER.VDW>
-14.4995

>  <SCORE.INTER.norm>
-0.140867

>  <SCORE.INTRA>
-12.3023

>  <SCORE.INTRA.DIHEDRAL>
-26.7228

>  <SCORE.INTRA.DIHEDRAL.0>
31.9578

>  <SCORE.INTRA.POLAR>
0

>  <SCORE.INTRA.POLAR.0>
0

>  <SCORE.INTRA.REPUL>
0

>  <SCORE.INTRA.REPUL.0>
0

>  <SCORE.INTRA.SOLV>
0.132623

>  <SCORE.INTRA.SOLV.lig_0>
-48.4032

>  <SCORE.INTRA.VDW>
0.992832

>  <SCORE.INTRA.VDW.0>
-1.65238

>  <SCORE.INTRA.norm>
-0.946327

>  <SCORE.RESTR>
0

>  <SCORE.RESTR.CAVITY>
0

>  <SCORE.RESTR.norm>
0

>  <SCORE.SYSTEM>
0

>  <SCORE.SYSTEM.CONST>
0

>  <SCORE.SYSTEM.DIHEDRAL>
0

>  <SCORE.SYSTEM.SOLV>
0

>  <SCORE.SYSTEM.norm>
0

>  <SCORE.heavy>
13

>  <SCORE.norm>
-1.08719

>  <RMSD>
17.558

$$$$
ligand
 OpenBabel11021811473D
libRbt.so/2013.1/901 2013/11/27
 13 12  0  0  0  0  0  0  0  0999 V2000
   34.9459   25.2279   60.1444 O   0  0  0  0  0  0  0  0  0  0  0  0
   32.7937   23.7508   61.3790 O   0  0  0  0  0  0  0  0  0  0  0  0
   38.3999   24.6504   61.8091 P   0  0  1  0  0  0  0  0  0  0  0  0
   38.7529   24.6758   63.2705 O   0  5  0  0  0  0  0  0  0  0  0  0
   38.3888   23.5237   60.9017 O   0  0  0  0  0  0  0  0  0  0  0  0
   37.3246   25.8448   61.6665 O   0  0  0  0  0  0  0  0  0  0  0  0
   32.4039   24.1295   64.2084 O   0  0  0  0  0  0  0  0  0  0  0  0
   37.0084   26.4374   60.3881 C   0  0  0  0  0  0  0  0  0  0  0  0
   32.7389   24.1531   59.9966 C   0  0  0  0  0  0  0  0  0  0  0  0
   31.6387   23.1741   63.4525 C   0  0  0  0  0  0  0  0  0  0  0  0
   36.2120   25.4527   59.5192 C   0  0  0  0  0  0  0  0  0  0  0  0
   34.1667   24.2620   59.4126 C   0  0  0  0  0  0  0  0  0  0  0  0
   31.4945   23.6511   61.9883 C   0  0  0  0  0  0  0  0  0  0  0  0
  1 12  1  0  0  0  0
  1 11  1  0  0  0  0
  2 13  1  0  0  0  0
  2  9  1  0  0  0  0
  3  4  1  1  0  0  0
  3  5  2  0  0  0  0
  3  6  1  0  0  0  0
  6  8  1  0  0  0  0
  7 10  1  0  0  0  0
  8 11  1  0  0  0  0
  9 12  1  0  0  0  0
 10 13  1  0  0  0  0
M  CHG  1   4  -1
M  END
>  <CHROM.1>
-173.15079787,178.27070130,161.42791073,70.57399376,65.59270822,179.08431416
-59.59830918,61.67428620,-177.33620418,35.40026781,24.54228121,61.45828139
2.99819762,0.15623986,1.80972580

>  <Name>
ligand

>  <RI>
0

>  <Rbt.Current_Directory>
/home/itssahil/PROJECTS/Mol_Feturizer/New_Systems/rnas/3GS8

>  <Rbt.Executable>
rbdock ($Id: //depot/dev/client3/rdock/2013.1/src/exe/rbdock.cxx#4 $)

>  <Rbt.Library>
libRbt.so (2013.1, Build901 2013/11/27)

>  <Rbt.Parameter_File>
/export/apps/rDock/src/rDock_2013.1_src/data/scripts/dock_solv.prm

>  <Rbt.Receptor>
prm/blind_docking_80.prm

>  <SCORE>
-16.1883

>  <SCORE.INTER>
-1.18976

>  <SCORE.INTER.CONST>
1

>  <SCORE.INTER.POLAR>
0

>  <SCORE.INTER.ROT>
9

>  <SCORE.INTER.SOLV>
8.42448

>  <SCORE.INTER.VDW>
-13.2013

>  <SCORE.INTER.norm>
-0.0915198

>  <SCORE.INTRA>
-14.9985

>  <SCORE.INTRA.DIHEDRAL>
-30.7242

>  <SCORE.INTRA.DIHEDRAL.0>
31.9578

>  <SCORE.INTRA.POLAR>
0

>  <SCORE.INTRA.POLAR.0>
0

>  <SCORE.INTRA.REPUL>
0

>  <SCORE.INTRA.REPUL.0>
0

>  <SCORE.INTRA.SOLV>
0.701421

>  <SCORE.INTRA.SOLV.lig_0>
-48.4032

>  <SCORE.INTRA.VDW>
0.0128535

>  <SCORE.INTRA.VDW.0>
-1.65238

>  <SCORE.INTRA.norm>
-1.15373

>  <SCORE.RESTR>
0

>  <SCORE.RESTR.CAVITY>
0

>  <SCORE.RESTR.norm>
0

>  <SCORE.SYSTEM>
0

>  <SCORE.SYSTEM.CONST>
0

>  <SCORE.SYSTEM.DIHEDRAL>
0

>  <SCORE.SYSTEM.SOLV>
0

>  <SCORE.SYSTEM.norm>
0

>  <SCORE.heavy>
13

>  <SCORE.norm>
-1.24525

>  <RMSD>
17.600

$$$$
ligand
 OpenBabel11021811473D
libRbt.so/2013.1/901 2013/11/27
 13 12  0  0  0  0  0  0  0  0999 V2000
   35.3607   24.5951   58.9372 O   0  0  0  0  0  0  0  0  0  0  0  0
   36.6704   24.6491   61.5132 O   0  0  0  0  0  0  0  0  0  0  0  0
   31.9602   23.6312   61.8373 P   0  0  1  0  0  0  0  0  0  0  0  0
   30.5241   23.2706   62.0994 O   0  5  0  0  0  0  0  0  0  0  0  0
   33.1244   23.3530   62.6498 O   0  0  0  0  0  0  0  0  0  0  0  0
   32.0521   23.6407   60.2265 O   0  0  0  0  0  0  0  0  0  0  0  0
   35.1679   25.7543   63.7061 O   0  0  0  0  0  0  0  0  0  0  0  0
   33.0358   24.4306   59.5237 C   0  0  0  0  0  0  0  0  0  0  0  0
   37.3973   24.8674   60.2885 C   0  0  0  0  0  0  0  0  0  0  0  0
   36.4132   25.0625   63.9067 C   0  0  0  0  0  0  0  0  0  0  0  0
   34.4481   23.8823   59.7759 C   0  0  0  0  0  0  0  0  0  0  0  0
   36.7108   24.1260   59.1178 C   0  0  0  0  0  0  0  0  0  0  0  0
   37.3161   25.2262   62.6617 C   0  0  0  0  0  0  0  0  0  0  0  0
  1 12  1  0  0  0  0
  1 11  1  0  0  0  0
  2 13  1  0  0  0  0
  2  9  1  0  0  0  0
  3  4  1  6  0  0  0
  3  5  2  0  0  0  0
  3  6  1  0  0  0  0
  6  8  1  0  0  0  0
  7 10  1  0  0  0  0
  8 11  1  0  0  0  0
  9 12  1  0  0  0  0
 10 13  1  0  0  0  0
M  CHG  1   4  -1
M  END
>  <CHROM.1>
-86.69148982,174.80131292,154.36443569,67.90525730,173.20255929,175.39874331
59.88181533,-61.44621776,-179.72453706,34.36949612,24.28042054,61.31200245
-0.01759775,-0.26019973,-1.70907550

>  <Name>
ligand

>  <RI>
0

>  <Rbt.Current_Directory>
/home/itssahil/PROJECTS/Mol_Feturizer/New_Systems/rnas/3GS8

>  <Rbt.Executable>
rbdock ($Id: //depot/dev/client3/rdock/2013.1/src/exe/rbdock.cxx#4 $)

>  <Rbt.Library>
libRbt.so (2013.1, Build901 2013/11/27)

>  <Rbt.Parameter_File>
/export/apps/rDock/src/rDock_2013.1_src/data/scripts/dock_solv.prm

>  <Rbt.Receptor>
prm/blind_docking_80.prm

>  <SCORE>
-13.1519

>  <SCORE.INTER>
-0.182452

>  <SCORE.INTER.CONST>
1

>  <SCORE.INTER.POLAR>
0

>  <SCORE.INTER.ROT>
9

>  <SCORE.INTER.SOLV>
8.09006

>  <SCORE.INTER.VDW>
-12.4183

>  <SCORE.INTER.norm>
-0.0140348

>  <SCORE.INTRA>
-12.9695

>  <SCORE.INTRA.DIHEDRAL>
-27.9173

>  <SCORE.INTRA.DIHEDRAL.0>
31.9578

>  <SCORE.INTRA.POLAR>
0

>  <SCORE.INTRA.POLAR.0>
0

>  <SCORE.INTRA.REPUL>
0

>  <SCORE.INTRA.REPUL.0>
0

>  <SCORE.INTRA.SOLV>
1.54427

>  <SCORE.INTRA.SOLV.lig_0>
-48.4032

>  <SCORE.INTRA.VDW>
0.217057

>  <SCORE.INTRA.VDW.0>
-1.65238

>  <SCORE.INTRA.norm>
-0.997652

>  <SCORE.RESTR>
0

>  <SCORE.RESTR.CAVITY>
0

>  <SCORE.RESTR.norm>
0

>  <SCORE.SYSTEM>
0

>  <SCORE.SYSTEM.CONST>
0

>  <SCORE.SYSTEM.DIHEDRAL>
0

>  <SCORE.SYSTEM.SOLV>
0

>  <SCORE.SYSTEM.norm>
0

>  <SCORE.heavy>
13

>  <SCORE.norm>
-1.01169

>  <RMSD>
17.758

$$$$
ligand
 OpenBabel11021811473D
libRbt.so/2013.1/901 2013/11/27
 13 12  0  0  0  0  0  0  0  0999 V2000
   34.5111   23.8841   59.6294 O   0  0  0  0  0  0  0  0  0  0  0  0
   32.4956   22.0883   60.8740 O   0  0  0  0  0  0  0  0  0  0  0  0
   38.7213   23.1296   60.4179 P   0  0  1  0  0  0  0  0  0  0  0  0
   38.8948   22.5753   61.8049 O   0  5  0  0  0  0  0  0  0  0  0  0
   39.3383   22.6899   59.1854 O   0  0  0  0  0  0  0  0  0  0  0  0
   37.2148   23.7068   60.4351 O   0  0  0  0  0  0  0  0  0  0  0  0
   29.9387   21.7820   62.0905 O   0  0  0  0  0  0  0  0  0  0  0  0
   36.7676   24.6989   59.4856 C   0  0  0  0  0  0  0  0  0  0  0  0
   32.2669   22.8803   59.6923 C   0  0  0  0  0  0  0  0  0  0  0  0
   30.2840   21.0520   60.9000 C   0  0  0  0  0  0  0  0  0  0  0  0
   35.3002   25.0709   59.7448 C   0  0  0  0  0  0  0  0  0  0  0  0
   33.1057   24.1785   59.7461 C   0  0  0  0  0  0  0  0  0  0  0  0
   31.8125   20.8227   60.8444 C   0  0  0  0  0  0  0  0  0  0  0  0
  1 12  1  0  0  0  0
  1 11  1  0  0  0  0
  2 13  1  0  0  0  0
  2  9  1  0  0  0  0
  3  4  1  1  0  0  0
  3  5  2  0  0  0  0
  3  6  1  0  0  0  0
  6  8  1  0  0  0  0
  7 10  1  0  0  0  0
  8 11  1  0  0  0  0
  9 12  1  0  0  0  0
 10 13  1  0  0  0  0
M  CHG  1   4  -1
M  END
>  <CHROM.1>
-177.10048113,-66.79675548,159.46318869,-179.47007583,-59.15319656,-176.05311788
68.33128199,-58.25302871,-174.98781683,35.03216353,22.96921713,60.39333997
2.93281484,0.02028934,2.58977086

>  <Name>
ligand

>  <RI>
0

>  <Rbt.Current_Directory>
/home/itssahil/PROJECTS/Mol_Feturizer/New_Systems/rnas/3GS8

>  <Rbt.Executable>
rbdock ($Id: //depot/dev/client3/rdock/2013.1/src/exe/rbdock.cxx#4 $)

>  <Rbt.Library>
libRbt.so (2013.1, Build901 2013/11/27)

>  <Rbt.Parameter_File>
/export/apps/rDock/src/rDock_2013.1_src/data/scripts/dock_solv.prm

>  <Rbt.Receptor>
prm/blind_docking_80.prm

>  <SCORE>
-15.3728

>  <SCORE.INTER>
-0.589324

>  <SCORE.INTER.CONST>
1

>  <SCORE.INTER.POLAR>
0

>  <SCORE.INTER.ROT>
9

>  <SCORE.INTER.SOLV>
15.9033

>  <SCORE.INTER.VDW>
-15.294

>  <SCORE.INTER.norm>
-0.0453326

>  <SCORE.INTRA>
-14.7835

>  <SCORE.INTRA.DIHEDRAL>
-30.9242

>  <SCORE.INTRA.DIHEDRAL.0>
31.9578

>  <SCORE.INTRA.POLAR>
0

>  <SCORE.INTRA.POLAR.0>
0

>  <SCORE.INTRA.REPUL>
0

>  <SCORE.INTRA.REPUL.0>
0

>  <SCORE.INTRA.SOLV>
-1.32215

>  <SCORE.INTRA.SOLV.lig_0>
-48.4032

>  <SCORE.INTRA.VDW>
1.33965

>  <SCORE.INTRA.VDW.0>
-1.65238

>  <SCORE.INTRA.norm>
-1.13719

>  <SCORE.RESTR>
0

>  <SCORE.RESTR.CAVITY>
0

>  <SCORE.RESTR.norm>
0

>  <SCORE.SYSTEM>
0

>  <SCORE.SYSTEM.CONST>
0

>  <SCORE.SYSTEM.DIHEDRAL>
0

>  <SCORE.SYSTEM.SOLV>
0

>  <SCORE.SYSTEM.norm>
0

>  <SCORE.heavy>
13

>  <SCORE.norm>
-1.18253

>  <RMSD>
17.777

$$$$
ligand
 OpenBabel11021811473D
libRbt.so/2013.1/901 2013/11/27
 13 12  0  0  0  0  0  0  0  0999 V2000
   34.8851   25.4011   59.5301 O   0  0  0  0  0  0  0  0  0  0  0  0
   31.9000   23.3220   60.2840 O   0  0  0  0  0  0  0  0  0  0  0  0
   35.5362   25.4938   63.9082 P   0  0  1  0  0  0  0  0  0  0  0  0
   36.9696   25.6203   64.3448 O   0  5  0  0  0  0  0  0  0  0  0  0
   34.3715   26.1819   64.4208 O   0  0  0  0  0  0  0  0  0  0  0  0
   35.6570   25.1123   62.3452 O   0  0  0  0  0  0  0  0  0  0  0  0
   29.9381   21.1412   60.2325 O   0  0  0  0  0  0  0  0  0  0  0  0
   36.2848   25.9960   61.3910 C   0  0  0  0  0  0  0  0  0  0  0  0
   32.6633   24.3510   59.6248 C   0  0  0  0  0  0  0  0  0  0  0  0
   31.3307   20.9612   60.5452 C   0  0  0  0  0  0  0  0  0  0  0  0
   36.2416   25.3867   59.9819 C   0  0  0  0  0  0  0  0  0  0  0  0
   34.1417   24.2941   60.0753 C   0  0  0  0  0  0  0  0  0  0  0  0
   32.1831   22.0034   59.7839 C   0  0  0  0  0  0  0  0  0  0  0  0
  1 12  1  0  0  0  0
  1 11  1  0  0  0  0
  2 13  1  0  0  0  0
  2  9  1  0  0  0  0
  3  4  1  6  0  0  0
  3  5  2  0  0  0  0
  3  6  1  0  0  0  0
  6  8  1  0  0  0  0
  7 10  1  0  0  0  0
  8 11  1  0  0  0  0
  9 12  1  0  0  0  0
 10 13  1  0  0  0  0
M  CHG  1   4  -1
M  END
>  <CHROM.1>
177.77340082,179.75732931,-61.42940923,-179.28155301,69.78875215,-72.72354526
-174.09527097,67.01004618,-80.82567305,34.12752704,24.36279166,61.51201648
-0.52233432,-0.66673003,-1.59964628

>  <Name>
ligand

>  <RI>
0

>  <Rbt.Current_Directory>
/home/itssahil/PROJECTS/Mol_Feturizer/New_Systems/rnas/3GS8

>  <Rbt.Executable>
rbdock ($Id: //depot/dev/client3/rdock/2013.1/src/exe/rbdock.cxx#4 $)

>  <Rbt.Library>
libRbt.so (2013.1, Build901 2013/11/27)

>  <Rbt.Parameter_File>
/export/apps/rDock/src/rDock_2013.1_src/data/scripts/dock_solv.prm

>  <Rbt.Receptor>
prm/blind_docking_100.prm

>  <SCORE>
-13.9544

>  <SCORE.INTER>
-1.56956

>  <SCORE.INTER.CONST>
1

>  <SCORE.INTER.POLAR>
0

>  <SCORE.INTER.ROT>
9

>  <SCORE.INTER.SOLV>
11.6317

>  <SCORE.INTER.VDW>
-14.5236

>  <SCORE.INTER.norm>
-0.120735

>  <SCORE.INTRA>
-12.3849

>  <SCORE.INTRA.DIHEDRAL>
-28.1199

>  <SCORE.INTRA.DIHEDRAL.0>
31.9578

>  <SCORE.INTRA.POLAR>
0

>  <SCORE.INTRA.POLAR.0>
0

>  <SCORE.INTRA.REPUL>
0

>  <SCORE.INTRA.REPUL.0>
0

>  <SCORE.INTRA.SOLV>
-0.834983

>  <SCORE.INTRA.SOLV.lig_0>
-48.4032

>  <SCORE.INTRA.VDW>
2.09258

>  <SCORE.INTRA.VDW.0>
-1.65238

>  <SCORE.INTRA.norm>
-0.952681

>  <SCORE.RESTR>
0

>  <SCORE.RESTR.CAVITY>
0

>  <SCORE.RESTR.norm>
0

>  <SCORE.SYSTEM>
0

>  <SCORE.SYSTEM.CONST>
0

>  <SCORE.SYSTEM.DIHEDRAL>
0

>  <SCORE.SYSTEM.SOLV>
0

>  <SCORE.SYSTEM.norm>
0

>  <SCORE.heavy>
13

>  <SCORE.norm>
-1.07342

>  <RMSD>
17.831

$$$$
ligand
 OpenBabel11021811473D
libRbt.so/2013.1/901 2013/11/27
 13 12  0  0  0  0  0  0  0  0999 V2000
   35.3351   25.7343   60.4398 O   0  0  0  0  0  0  0  0  0  0  0  0
   37.6331   24.8336   61.8746 O   0  0  0  0  0  0  0  0  0  0  0  0
   32.0626   22.9629   61.3504 P   0  0  1  0  0  0  0  0  0  0  0  0
   31.3701   24.1557   61.9494 O   0  5  0  0  0  0  0  0  0  0  0  0
   31.4785   21.8190   60.6847 O   0  0  0  0  0  0  0  0  0  0  0  0
   33.4896   23.5566   60.8873 O   0  0  0  0  0  0  0  0  0  0  0  0
   38.3940   22.6237   60.0344 O   0  0  0  0  0  0  0  0  0  0  0  0
   33.6640   24.2168   59.6147 C   0  0  0  0  0  0  0  0  0  0  0  0
   37.7651   25.3707   60.5442 C   0  0  0  0  0  0  0  0  0  0  0  0
   38.1961   22.4944   61.4535 C   0  0  0  0  0  0  0  0  0  0  0  0
   35.1076   24.7179   59.4603 C   0  0  0  0  0  0  0  0  0  0  0  0
   36.6169   26.3641   60.2504 C   0  0  0  0  0  0  0  0  0  0  0  0
   38.5980   23.8072   62.1657 C   0  0  0  0  0  0  0  0  0  0  0  0
  1 12  1  0  0  0  0
  1 11  1  0  0  0  0
  2 13  1  0  0  0  0
  2  9  1  0  0  0  0
  3  4  1  6  0  0  0
  3  5  2  0  0  0  0
  3  6  1  0  0  0  0
  6  8  1  0  0  0  0
  7 10  1  0  0  0  0
  8 11  1  0  0  0  0
  9 12  1  0  0  0  0
 10 13  1  0  0  0  0
M  CHG  1   4  -1
M  END
>  <CHROM.1>
-67.25291734,-75.46927691,-84.63510106,178.17222678,-65.46956620,174.46396637
-56.11204041,71.05286764,-173.05447461,35.05570178,23.94846692,60.87473326
0.17802818,-0.02642936,-0.24038738

>  <Name>
ligand

>  <RI>
0

>  <Rbt.Current_Directory>
/home/itssahil/PROJECTS/Mol_Feturizer/New_Systems/rnas/3GS8

>  <Rbt.Executable>
rbdock ($Id: //depot/dev/client3/rdock/2013.1/src/exe/rbdock.cxx#4 $)

>  <Rbt.Library>
libRbt.so (2013.1, Build901 2013/11/27)

>  <Rbt.Parameter_File>
/export/apps/rDock/src/rDock_2013.1_src/data/scripts/dock_solv.prm

>  <Rbt.Receptor>
prm/blind_docking_80.prm

>  <SCORE>
-14.9595

>  <SCORE.INTER>
-2.02893

>  <SCORE.INTER.CONST>
1

>  <SCORE.INTER.POLAR>
0

>  <SCORE.INTER.ROT>
9

>  <SCORE.INTER.SOLV>
10.0793

>  <SCORE.INTER.VDW>
-14.3124

>  <SCORE.INTER.norm>
-0.156071

>  <SCORE.INTRA>
-12.9306

>  <SCORE.INTRA.DIHEDRAL>
-29.2353

>  <SCORE.INTRA.DIHEDRAL.0>
31.9578

>  <SCORE.INTRA.POLAR>
0

>  <SCORE.INTRA.POLAR.0>
0

>  <SCORE.INTRA.REPUL>
0

>  <SCORE.INTRA.REPUL.0>
0

>  <SCORE.INTRA.SOLV>
-0.667855

>  <SCORE.INTRA.SOLV.lig_0>
-48.4032

>  <SCORE.INTRA.VDW>
2.02101

>  <SCORE.INTRA.VDW.0>
-1.65238

>  <SCORE.INTRA.norm>
-0.99466

>  <SCORE.RESTR>
0

>  <SCORE.RESTR.CAVITY>
0

>  <SCORE.RESTR.norm>
0

>  <SCORE.SYSTEM>
0

>  <SCORE.SYSTEM.CONST>
0

>  <SCORE.SYSTEM.DIHEDRAL>
0

>  <SCORE.SYSTEM.SOLV>
0

>  <SCORE.SYSTEM.norm>
0

>  <SCORE.heavy>
13

>  <SCORE.norm>
-1.15073

>  <RMSD>
17.979

$$$$
ligand
 OpenBabel11021811473D
libRbt.so/2013.1/901 2013/11/27
 13 12  0  0  0  0  0  0  0  0999 V2000
   34.6842   24.7681   60.3990 O   0  0  0  0  0  0  0  0  0  0  0  0
   32.9929   22.3585   60.2434 O   0  0  0  0  0  0  0  0  0  0  0  0
   38.6952   24.4493   62.1465 P   0  0  1  0  0  0  0  0  0  0  0  0
   39.2728   23.1028   61.8083 O   0  5  0  0  0  0  0  0  0  0  0  0
   39.3620   25.6028   62.7100 O   0  0  0  0  0  0  0  0  0  0  0  0
   37.4993   24.6191   61.0768 O   0  0  0  0  0  0  0  0  0  0  0  0
   32.9183   21.5916   63.0065 O   0  0  0  0  0  0  0  0  0  0  0  0
   36.7569   25.8516   60.9526 C   0  0  0  0  0  0  0  0  0  0  0  0
   32.4917   23.6998   60.0830 C   0  0  0  0  0  0  0  0  0  0  0  0
   31.7153   21.7450   62.2326 C   0  0  0  0  0  0  0  0  0  0  0  0
   35.6429   25.7070   59.9052 C   0  0  0  0  0  0  0  0  0  0  0  0
   33.5852   24.6126   59.4806 C   0  0  0  0  0  0  0  0  0  0  0  0
   32.0021   21.4432   60.7430 C   0  0  0  0  0  0  0  0  0  0  0  0
  1 12  1  0  0  0  0
  1 11  1  0  0  0  0
  2 13  1  0  0  0  0
  2  9  1  0  0  0  0
  3  4  1  6  0  0  0
  3  5  2  0  0  0  0
  3  6  1  0  0  0  0
  6  8  1  0  0  0  0
  7 10  1  0  0  0  0
  8 11  1  0  0  0  0
  9 12  1  0  0  0  0
 10 13  1  0  0  0  0
M  CHG  1   4  -1
M  END
>  <CHROM.1>
-174.63385583,-71.74390579,-173.33990625,-177.44755382,66.45924993,-177.28562950
-65.84401489,-60.38458276,178.27871401,35.53347029,23.85509537,61.24108512
2.94693097,0.33019336,2.45973449

>  <Name>
ligand

>  <RI>
0

>  <Rbt.Current_Directory>
/home/itssahil/PROJECTS/Mol_Feturizer/New_Systems/rnas/3GS8

>  <Rbt.Executable>
rbdock ($Id: //depot/dev/client3/rdock/2013.1/src/exe/rbdock.cxx#4 $)

>  <Rbt.Library>
libRbt.so (2013.1, Build901 2013/11/27)

>  <Rbt.Parameter_File>
/export/apps/rDock/src/rDock_2013.1_src/data/scripts/dock_solv.prm

>  <Rbt.Receptor>
prm/blind_docking_80.prm

>  <SCORE>
-14.5238

>  <SCORE.INTER>
0.194798

>  <SCORE.INTER.CONST>
1

>  <SCORE.INTER.POLAR>
0

>  <SCORE.INTER.ROT>
9

>  <SCORE.INTER.SOLV>
10.8657

>  <SCORE.INTER.VDW>
-13.092

>  <SCORE.INTER.norm>
0.0149844

>  <SCORE.INTRA>
-14.7186

>  <SCORE.INTRA.DIHEDRAL>
-30.1702

>  <SCORE.INTRA.DIHEDRAL.0>
31.9578

>  <SCORE.INTRA.POLAR>
0

>  <SCORE.INTRA.POLAR.0>
0

>  <SCORE.INTRA.REPUL>
0

>  <SCORE.INTRA.REPUL.0>
0

>  <SCORE.INTRA.SOLV>
-1.30144

>  <SCORE.INTRA.SOLV.lig_0>
-48.4032

>  <SCORE.INTRA.VDW>
1.01727

>  <SCORE.INTRA.VDW.0>
-1.65238

>  <SCORE.INTRA.norm>
-1.1322

>  <SCORE.RESTR>
0

>  <SCORE.RESTR.CAVITY>
0

>  <SCORE.RESTR.norm>
0

>  <SCORE.SYSTEM>
0

>  <SCORE.SYSTEM.CONST>
0

>  <SCORE.SYSTEM.DIHEDRAL>
0

>  <SCORE.SYSTEM.SOLV>
0

>  <SCORE.SYSTEM.norm>
0

>  <SCORE.heavy>
13

>  <SCORE.norm>
-1.11721

>  <RMSD>
17.983

$$$$
ligand
 OpenBabel11021811473D
libRbt.so/2013.1/901 2013/11/27
 13 12  0  0  0  0  0  0  0  0999 V2000
   35.0233   24.0851   59.9367 O   0  0  0  0  0  0  0  0  0  0  0  0
   36.7324   26.1514   61.4137 O   0  0  0  0  0  0  0  0  0  0  0  0
   31.7513   22.9174   62.5646 P   0  0  1  0  0  0  0  0  0  0  0  0
   31.9681   21.4736   62.2048 O   0  5  0  0  0  0  0  0  0  0  0  0
   31.3459   23.4814   63.8336 O   0  0  0  0  0  0  0  0  0  0  0  0
   32.7781   23.6991   61.5962 O   0  0  0  0  0  0  0  0  0  0  0  0
   35.8996   24.5406   64.6393 O   0  0  0  0  0  0  0  0  0  0  0  0
   32.6744   23.6267   60.1575 C   0  0  0  0  0  0  0  0  0  0  0  0
   36.1042   26.2861   60.1241 C   0  0  0  0  0  0  0  0  0  0  0  0
   36.6759   25.3148   63.7078 C   0  0  0  0  0  0  0  0  0  0  0  0
   33.7345   24.5187   59.4947 C   0  0  0  0  0  0  0  0  0  0  0  0
   36.0674   24.9201   59.4000 C   0  0  0  0  0  0  0  0  0  0  0  0
   35.9230   25.4340   62.3620 C   0  0  0  0  0  0  0  0  0  0  0  0
  1 12  1  0  0  0  0
  1 11  1  0  0  0  0
  2 13  1  0  0  0  0
  2  9  1  0  0  0  0
  3  4  1  1  0  0  0
  3  5  2  0  0  0  0
  3  6  1  0  0  0  0
  6  8  1  0  0  0  0
  7 10  1  0  0  0  0
  8 11  1  0  0  0  0
  9 12  1  0  0  0  0
 10 13  1  0  0  0  0
M  CHG  1   4  -1
M  END
>  <CHROM.1>
74.68431925,179.12240995,61.26285215,177.25337792,58.30205893,-71.00246067
77.16700332,-177.13835937,-177.35367467,34.12793562,24.20336350,61.75720758
0.25301058,-0.54043040,-1.50570701

>  <Name>
ligand

>  <RI>
0

>  <Rbt.Current_Directory>
/home/itssahil/PROJECTS/Mol_Feturizer/New_Systems/rnas/3GS8

>  <Rbt.Executable>
rbdock ($Id: //depot/dev/client3/rdock/2013.1/src/exe/rbdock.cxx#4 $)

>  <Rbt.Library>
libRbt.so (2013.1, Build901 2013/11/27)

>  <Rbt.Parameter_File>
/export/apps/rDock/src/rDock_2013.1_src/data/scripts/dock_solv.prm

>  <Rbt.Receptor>
prm/blind_docking_100.prm

>  <SCORE>
-15.2656

>  <SCORE.INTER>
-2.03377

>  <SCORE.INTER.CONST>
1

>  <SCORE.INTER.POLAR>
0

>  <SCORE.INTER.ROT>
9

>  <SCORE.INTER.SOLV>
4.50015

>  <SCORE.INTER.VDW>
-12.4559

>  <SCORE.INTER.norm>
-0.156444

>  <SCORE.INTRA>
-13.2347

>  <SCORE.INTRA.DIHEDRAL>
-28.7144

>  <SCORE.INTRA.DIHEDRAL.0>
31.9578

>  <SCORE.INTRA.POLAR>
0

>  <SCORE.INTRA.POLAR.0>
0

>  <SCORE.INTRA.REPUL>
0

>  <SCORE.INTRA.REPUL.0>
0

>  <SCORE.INTRA.SOLV>
-1.35174

>  <SCORE.INTRA.SOLV.lig_0>
-48.4032

>  <SCORE.INTRA.VDW>
1.7984

>  <SCORE.INTRA.VDW.0>
-1.65238

>  <SCORE.INTRA.norm>
-1.01805

>  <SCORE.RESTR>
0.00280755

>  <SCORE.RESTR.CAVITY>
0.00280755

>  <SCORE.RESTR.norm>
0.000215965

>  <SCORE.SYSTEM>
0

>  <SCORE.SYSTEM.CONST>
0

>  <SCORE.SYSTEM.DIHEDRAL>
0

>  <SCORE.SYSTEM.SOLV>
0

>  <SCORE.SYSTEM.norm>
0

>  <SCORE.heavy>
13

>  <SCORE.norm>
-1.17428

>  <RMSD>
17.989

$$$$
ligand
 OpenBabel11021811473D
libRbt.so/2013.1/901 2013/11/27
 13 12  0  0  0  0  0  0  0  0999 V2000
   34.5834   24.7440   59.9608 O   0  0  0  0  0  0  0  0  0  0  0  0
   37.2762   23.9280   60.9486 O   0  0  0  0  0  0  0  0  0  0  0  0
   31.1919   21.0524   60.7406 P   0  0  1  0  0  0  0  0  0  0  0  0
   29.9053   20.7925   60.0071 O   0  5  0  0  0  0  0  0  0  0  0  0
   32.0876   20.0996   61.3594 O   0  0  0  0  0  0  0  0  0  0  0  0
   31.7564   22.3899   60.0367 O   0  0  0  0  0  0  0  0  0  0  0  0
   40.0456   26.0256   62.2236 O   0  0  0  0  0  0  0  0  0  0  0  0
   33.0463   22.9437   60.3759 C   0  0  0  0  0  0  0  0  0  0  0  0
   37.0017   24.4423   59.6310 C   0  0  0  0  0  0  0  0  0  0  0  0
   38.7280   25.7317   61.7267 C   0  0  0  0  0  0  0  0  0  0  0  0
   33.2655   24.2818   59.6545 C   0  0  0  0  0  0  0  0  0  0  0  0
   35.5754   24.0434   59.1858 C   0  0  0  0  0  0  0  0  0  0  0  0
   38.6088   24.2241   61.4021 C   0  0  0  0  0  0  0  0  0  0  0  0
  1 12  1  0  0  0  0
  1 11  1  0  0  0  0
  2 13  1  0  0  0  0
  2  9  1  0  0  0  0
  3  4  1  6  0  0  0
  3  5  2  0  0  0  0
  3  6  1  0  0  0  0
  6  8  1  0  0  0  0
  7 10  1  0  0  0  0
  8 11  1  0  0  0  0
  9 12  1  0  0  0  0
 10 13  1  0  0  0  0
M  CHG  1   4  -1
M  END
>  <CHROM.1>
-173.97377759,71.57603105,-175.31336313,-174.61303197,-176.56724789,177.86733813
69.28594162,178.07406817,77.86951251,34.52565602,23.22210134,60.58367674
0.31599907,-0.39702360,-0.66623600

>  <Name>
ligand

>  <RI>
0

>  <Rbt.Current_Directory>
/home/itssahil/PROJECTS/Mol_Feturizer/New_Systems/rnas/3GS8

>  <Rbt.Executable>
rbdock ($Id: //depot/dev/client3/rdock/2013.1/src/exe/rbdock.cxx#4 $)

>  <Rbt.Library>
libRbt.so (2013.1, Build901 2013/11/27)

>  <Rbt.Parameter_File>
/export/apps/rDock/src/rDock_2013.1_src/data/scripts/dock_solv.prm

>  <Rbt.Receptor>
prm/blind_docking_80.prm

>  <SCORE>
-12.2572

>  <SCORE.INTER>
0.683836

>  <SCORE.INTER.CONST>
1

>  <SCORE.INTER.POLAR>
0

>  <SCORE.INTER.ROT>
9

>  <SCORE.INTER.SOLV>
12.9565

>  <SCORE.INTER.VDW>
-13.4629

>  <SCORE.INTER.norm>
0.0526028

>  <SCORE.INTRA>
-12.941

>  <SCORE.INTRA.DIHEDRAL>
-28.562

>  <SCORE.INTRA.DIHEDRAL.0>
31.9578

>  <SCORE.INTRA.POLAR>
0

>  <SCORE.INTRA.POLAR.0>
0

>  <SCORE.INTRA.REPUL>
0

>  <SCORE.INTRA.REPUL.0>
0

>  <SCORE.INTRA.SOLV>
-1.68212

>  <SCORE.INTRA.SOLV.lig_0>
-48.4032

>  <SCORE.INTRA.VDW>
2.18104

>  <SCORE.INTRA.VDW.0>
-1.65238

>  <SCORE.INTRA.norm>
-0.995462

>  <SCORE.RESTR>
0

>  <SCORE.RESTR.CAVITY>
0

>  <SCORE.RESTR.norm>
0

>  <SCORE.SYSTEM>
0

>  <SCORE.SYSTEM.CONST>
0

>  <SCORE.SYSTEM.DIHEDRAL>
0

>  <SCORE.SYSTEM.SOLV>
0

>  <SCORE.SYSTEM.norm>
0

>  <SCORE.heavy>
13

>  <SCORE.norm>
-0.942859

>  <RMSD>
18.051

$$$$
ligand
 OpenBabel11021811473D
libRbt.so/2013.1/901 2013/11/27
 13 12  0  0  0  0  0  0  0  0999 V2000
   34.5813   23.9405   59.5363 O   0  0  0  0  0  0  0  0  0  0  0  0
   32.7109   22.1189   60.8234 O   0  0  0  0  0  0  0  0  0  0  0  0
   38.7432   23.0668   60.4414 P   0  0  1  0  0  0  0  0  0  0  0  0
   38.8737   22.3815   59.1093 O   0  5  0  0  0  0  0  0  0  0  0  0
   39.7757   23.6841   61.2449 O   0  0  0  0  0  0  0  0  0  0  0  0
   37.2464   23.6679   60.4041 O   0  0  0  0  0  0  0  0  0  0  0  0
   31.6850   18.8144   62.1368 O   0  0  0  0  0  0  0  0  0  0  0  0
   36.8614   24.6973   59.4672 C   0  0  0  0  0  0  0  0  0  0  0  0
   32.3312   22.9652   59.7209 C   0  0  0  0  0  0  0  0  0  0  0  0
   32.4322   20.0424   62.0789 C   0  0  0  0  0  0  0  0  0  0  0  0
   35.3969   25.1053   59.6857 C   0  0  0  0  0  0  0  0  0  0  0  0
   33.1864   24.2537   59.7144 C   0  0  0  0  0  0  0  0  0  0  0  0
   31.9543   20.8969   60.8816 C   0  0  0  0  0  0  0  0  0  0  0  0
  1 12  1  0  0  0  0
  1 11  1  0  0  0  0
  2 13  1  0  0  0  0
  2  9  1  0  0  0  0
  3  4  1  6  0  0  0
  3  5  2  0  0  0  0
  3  6  1  0  0  0  0
  6  8  1  0  0  0  0
  7 10  1  0  0  0  0
  8 11  1  0  0  0  0
  9 12  1  0  0  0  0
 10 13  1  0  0  0  0
M  CHG  1   4  -1
M  END
>  <CHROM.1>
-173.16150105,179.38708482,-65.09504070,-178.30948716,-58.05573165,-179.71159189
62.03036878,-179.60917967,-179.36052829,35.39772060,22.75010932,60.41428004
2.72883928,0.04457832,2.68281911

>  <Name>
ligand

>  <RI>
0

>  <Rbt.Current_Directory>
/home/itssahil/PROJECTS/Mol_Feturizer/New_Systems/rnas/3GS8

>  <Rbt.Executable>
rbdock ($Id: //depot/dev/client3/rdock/2013.1/src/exe/rbdock.cxx#4 $)

>  <Rbt.Library>
libRbt.so (2013.1, Build901 2013/11/27)

>  <Rbt.Parameter_File>
/export/apps/rDock/src/rDock_2013.1_src/data/scripts/dock_solv.prm

>  <Rbt.Receptor>
prm/blind_docking_100.prm

>  <SCORE>
-18.2024

>  <SCORE.INTER>
-2.05842

>  <SCORE.INTER.CONST>
1

>  <SCORE.INTER.POLAR>
0

>  <SCORE.INTER.ROT>
9

>  <SCORE.INTER.SOLV>
14.5704

>  <SCORE.INTER.VDW>
-15.8291

>  <SCORE.INTER.norm>
-0.15834

>  <SCORE.INTRA>
-16.144

>  <SCORE.INTRA.DIHEDRAL>
-31.3092

>  <SCORE.INTRA.DIHEDRAL.0>
31.9578

>  <SCORE.INTRA.POLAR>
0

>  <SCORE.INTRA.POLAR.0>
0

>  <SCORE.INTRA.REPUL>
0

>  <SCORE.INTRA.REPUL.0>
0

>  <SCORE.INTRA.SOLV>
-1.36692

>  <SCORE.INTRA.SOLV.lig_0>
-48.4032

>  <SCORE.INTRA.VDW>
0.194056

>  <SCORE.INTRA.VDW.0>
-1.65238

>  <SCORE.INTRA.norm>
-1.24185

>  <SCORE.RESTR>
0

>  <SCORE.RESTR.CAVITY>
0

>  <SCORE.RESTR.norm>
0

>  <SCORE.SYSTEM>
0

>  <SCORE.SYSTEM.CONST>
0

>  <SCORE.SYSTEM.DIHEDRAL>
0

>  <SCORE.SYSTEM.SOLV>
0

>  <SCORE.SYSTEM.norm>
0

>  <SCORE.heavy>
13

>  <SCORE.norm>
-1.40019

>  <RMSD>
18.065

$$$$
ligand
 OpenBabel11021811473D
libRbt.so/2013.1/901 2013/11/27
 13 12  0  0  0  0  0  0  0  0999 V2000
   34.9521   24.7870   60.6054 O   0  0  0  0  0  0  0  0  0  0  0  0
   37.7987   25.2535   60.9012 O   0  0  0  0  0  0  0  0  0  0  0  0
   31.2638   21.3065   60.5255 P   0  0  1  0  0  0  0  0  0  0  0  0
   30.3772   20.9086   59.3780 O   0  5  0  0  0  0  0  0  0  0  0  0
   31.7175   20.5009   61.6382 O   0  0  0  0  0  0  0  0  0  0  0  0
   32.2057   22.4504   59.8871 O   0  0  0  0  0  0  0  0  0  0  0  0
   39.1048   23.2990   62.4835 O   0  0  0  0  0  0  0  0  0  0  0  0
   33.1816   23.1633   60.6777 C   0  0  0  0  0  0  0  0  0  0  0  0
   36.8665   26.3290   60.6767 C   0  0  0  0  0  0  0  0  0  0  0  0
   39.8380   24.4180   61.9543 C   0  0  0  0  0  0  0  0  0  0  0  0
   33.8898   24.2288   59.8280 C   0  0  0  0  0  0  0  0  0  0  0  0
   35.6434   25.8209   59.8783 C   0  0  0  0  0  0  0  0  0  0  0  0
   38.8919   25.6258   61.7587 C   0  0  0  0  0  0  0  0  0  0  0  0
  1 12  1  0  0  0  0
  1 11  1  0  0  0  0
  2 13  1  0  0  0  0
  2  9  1  0  0  0  0
  3  4  1  6  0  0  0
  3  5  2  0  0  0  0
  3  6  1  0  0  0  0
  6  8  1  0  0  0  0
  7 10  1  0  0  0  0
  8 11  1  0  0  0  0
  9 12  1  0  0  0  0
 10 13  1  0  0  0  0
M  CHG  1   4  -1
M  END
>  <CHROM.1>
-174.93272386,179.68548494,177.01837276,-177.65501515,-172.93126350,-173.86083221
60.86370746,-56.73118124,-178.64331018,34.71274913,23.46060039,60.76506711
0.35322795,-0.35702518,-0.45536168

>  <Name>
ligand

>  <RI>
0

>  <Rbt.Current_Directory>
/home/itssahil/PROJECTS/Mol_Feturizer/New_Systems/rnas/3GS8

>  <Rbt.Executable>
rbdock ($Id: //depot/dev/client3/rdock/2013.1/src/exe/rbdock.cxx#4 $)

>  <Rbt.Library>
libRbt.so (2013.1, Build901 2013/11/27)

>  <Rbt.Parameter_File>
/export/apps/rDock/src/rDock_2013.1_src/data/scripts/dock_solv.prm

>  <Rbt.Receptor>
prm/blind_docking_80.prm

>  <SCORE>
-16.5704

>  <SCORE.INTER>
-0.560074

>  <SCORE.INTER.CONST>
1

>  <SCORE.INTER.POLAR>
0

>  <SCORE.INTER.ROT>
9

>  <SCORE.INTER.SOLV>
13.4598

>  <SCORE.INTER.VDW>
-14.46

>  <SCORE.INTER.norm>
-0.0430826

>  <SCORE.INTRA>
-16.0104

>  <SCORE.INTRA.DIHEDRAL>
-30.9744

>  <SCORE.INTRA.DIHEDRAL.0>
31.9578

>  <SCORE.INTRA.POLAR>
0

>  <SCORE.INTRA.POLAR.0>
0

>  <SCORE.INTRA.REPUL>
0

>  <SCORE.INTRA.REPUL.0>
0

>  <SCORE.INTRA.SOLV>
-1.51423

>  <SCORE.INTRA.SOLV.lig_0>
-48.4032

>  <SCORE.INTRA.VDW>
0.233943

>  <SCORE.INTRA.VDW.0>
-1.65238

>  <SCORE.INTRA.norm>
-1.23157

>  <SCORE.RESTR>
0

>  <SCORE.RESTR.CAVITY>
0

>  <SCORE.RESTR.norm>
0

>  <SCORE.SYSTEM>
0

>  <SCORE.SYSTEM.CONST>
0

>  <SCORE.SYSTEM.DIHEDRAL>
0

>  <SCORE.SYSTEM.SOLV>
0

>  <SCORE.SYSTEM.norm>
0

>  <SCORE.heavy>
13

>  <SCORE.norm>
-1.27465

>  <RMSD>
18.070

$$$$
ligand
 OpenBabel11021811473D
libRbt.so/2013.1/901 2013/11/27
 13 12  0  0  0  0  0  0  0  0999 V2000
   34.5783   23.9071   59.6264 O   0  0  0  0  0  0  0  0  0  0  0  0
   32.7035   22.0729   60.8881 O   0  0  0  0  0  0  0  0  0  0  0  0
   38.7421   23.0877   60.4369 P   0  0  1  0  0  0  0  0  0  0  0  0
   38.8202   22.4003   59.1019 O   0  5  0  0  0  0  0  0  0  0  0  0
   39.8069   23.6982   61.2026 O   0  0  0  0  0  0  0  0  0  0  0  0
   37.2493   23.6997   60.4521 O   0  0  0  0  0  0  0  0  0  0  0  0
   31.7482   18.7464   62.1988 O   0  0  0  0  0  0  0  0  0  0  0  0
   36.8360   24.7246   59.5224 C   0  0  0  0  0  0  0  0  0  0  0  0
   32.3435   22.8890   59.7566 C   0  0  0  0  0  0  0  0  0  0  0  0
   32.4483   20.0026   62.1587 C   0  0  0  0  0  0  0  0  0  0  0  0
   35.3631   25.0961   59.7487 C   0  0  0  0  0  0  0  0  0  0  0  0
   33.1722   24.1947   59.7515 C   0  0  0  0  0  0  0  0  0  0  0  0
   31.9780   20.8320   60.9409 C   0  0  0  0  0  0  0  0  0  0  0  0
  1 12  1  0  0  0  0
  1 11  1  0  0  0  0
  2 13  1  0  0  0  0
  2  9  1  0  0  0  0
  3  4  1  6  0  0  0
  3  5  2  0  0  0  0
  3  6  1  0  0  0  0
  6  8  1  0  0  0  0
  7 10  1  0  0  0  0
  8 11  1  0  0  0  0
  9 12  1  0  0  0  0
 10 13  1  0  0  0  0
M  CHG  1   4  -1
M  END
>  <CHROM.1>
-174.45442660,178.51910953,-64.67132726,178.91303405,-56.73440367,-179.24158709
61.98978181,-178.66356107,-176.68668382,35.39866622,22.73214903,60.45187213
2.71280253,0.04016218,2.68806795

>  <Name>
ligand

>  <RI>
0

>  <Rbt.Current_Directory>
/home/itssahil/PROJECTS/Mol_Feturizer/New_Systems/rnas/3GS8

>  <Rbt.Executable>
rbdock ($Id: //depot/dev/client3/rdock/2013.1/src/exe/rbdock.cxx#4 $)

>  <Rbt.Library>
libRbt.so (2013.1, Build901 2013/11/27)

>  <Rbt.Parameter_File>
/export/apps/rDock/src/rDock_2013.1_src/data/scripts/dock_solv.prm

>  <Rbt.Receptor>
prm/blind_docking_100.prm

>  <SCORE>
-18.196

>  <SCORE.INTER>
-2.0641

>  <SCORE.INTER.CONST>
1

>  <SCORE.INTER.POLAR>
0

>  <SCORE.INTER.ROT>
9

>  <SCORE.INTER.SOLV>
14.4221

>  <SCORE.INTER.VDW>
-15.7834

>  <SCORE.INTER.norm>
-0.158777

>  <SCORE.INTRA>
-16.1319

>  <SCORE.INTRA.DIHEDRAL>
-31.2936

>  <SCORE.INTRA.DIHEDRAL.0>
31.9578

>  <SCORE.INTRA.POLAR>
0

>  <SCORE.INTRA.POLAR.0>
0

>  <SCORE.INTRA.REPUL>
0

>  <SCORE.INTRA.REPUL.0>
0

>  <SCORE.INTRA.SOLV>
-1.33373

>  <SCORE.INTRA.SOLV.lig_0>
-48.4032

>  <SCORE.INTRA.VDW>
0.181753

>  <SCORE.INTRA.VDW.0>
-1.65238

>  <SCORE.INTRA.norm>
-1.24092

>  <SCORE.RESTR>
0

>  <SCORE.RESTR.CAVITY>
0

>  <SCORE.RESTR.norm>
0

>  <SCORE.SYSTEM>
0

>  <SCORE.SYSTEM.CONST>
0

>  <SCORE.SYSTEM.DIHEDRAL>
0

>  <SCORE.SYSTEM.SOLV>
0

>  <SCORE.SYSTEM.norm>
0

>  <SCORE.heavy>
13

>  <SCORE.norm>
-1.39969

>  <RMSD>
18.112

$$$$
ligand
 OpenBabel11021811473D
libRbt.so/2013.1/901 2013/11/27
 13 12  0  0  0  0  0  0  0  0999 V2000
   34.9146   23.8412   59.2620 O   0  0  0  0  0  0  0  0  0  0  0  0
   32.8893   22.3506   60.6706 O   0  0  0  0  0  0  0  0  0  0  0  0
   37.9184   22.8455   61.1393 P   0  0  1  0  0  0  0  0  0  0  0  0
   36.9857   21.8394   61.7550 O   0  5  0  0  0  0  0  0  0  0  0  0
   39.2601   23.2016   61.5469 O   0  0  0  0  0  0  0  0  0  0  0  0
   37.4954   22.8391   59.5823 O   0  0  0  0  0  0  0  0  0  0  0  0
   31.3972   19.1395   61.7459 O   0  0  0  0  0  0  0  0  0  0  0  0
   37.2717   24.0624   58.8481 C   0  0  0  0  0  0  0  0  0  0  0  0
   32.5440   23.3995   59.7451 C   0  0  0  0  0  0  0  0  0  0  0  0
   32.3700   20.1985   61.7023 C   0  0  0  0  0  0  0  0  0  0  0  0
   36.0014   24.7665   59.3472 C   0  0  0  0  0  0  0  0  0  0  0  0
   33.6770   24.4501   59.6780 C   0  0  0  0  0  0  0  0  0  0  0  0
   31.8884   21.3208   60.7532 C   0  0  0  0  0  0  0  0  0  0  0  0
  1 12  1  0  0  0  0
  1 11  1  0  0  0  0
  2 13  1  0  0  0  0
  2  9  1  0  0  0  0
  3  4  1  6  0  0  0
  3  5  2  0  0  0  0
  3  6  1  0  0  0  0
  6  8  1  0  0  0  0
  7 10  1  0  0  0  0
  8 11  1  0  0  0  0
  9 12  1  0  0  0  0
 10 13  1  0  0  0  0
M  CHG  1   4  -1
M  END
>  <CHROM.1>
-173.17991438,176.79831860,132.41083512,-69.07446588,-55.01497002,-178.49112704
59.03962991,-177.62995839,-178.23228276,35.23605761,22.62757749,60.51781003
0.35619760,-0.15950045,-0.62694541

>  <Name>
ligand

>  <RI>
0

>  <Rbt.Current_Directory>
/home/itssahil/PROJECTS/Mol_Feturizer/New_Systems/rnas/3GS8

>  <Rbt.Executable>
rbdock ($Id: //depot/dev/client3/rdock/2013.1/src/exe/rbdock.cxx#4 $)

>  <Rbt.Library>
libRbt.so (2013.1, Build901 2013/11/27)

>  <Rbt.Parameter_File>
/export/apps/rDock/src/rDock_2013.1_src/data/scripts/dock_solv.prm

>  <Rbt.Receptor>
prm/blind_docking_100.prm

>  <SCORE>
-16.9478

>  <SCORE.INTER>
-2.08033

>  <SCORE.INTER.CONST>
1

>  <SCORE.INTER.POLAR>
0

>  <SCORE.INTER.ROT>
9

>  <SCORE.INTER.SOLV>
16.5737

>  <SCORE.INTER.VDW>
-16.5115

>  <SCORE.INTER.norm>
-0.160026

>  <SCORE.INTRA>
-14.8674

>  <SCORE.INTRA.DIHEDRAL>
-30.3078

>  <SCORE.INTRA.DIHEDRAL.0>
31.9578

>  <SCORE.INTRA.POLAR>
0

>  <SCORE.INTRA.POLAR.0>
0

>  <SCORE.INTRA.REPUL>
0

>  <SCORE.INTRA.REPUL.0>
0

>  <SCORE.INTRA.SOLV>
0.590461

>  <SCORE.INTRA.SOLV.lig_0>
-48.4032

>  <SCORE.INTRA.VDW>
-0.00874792

>  <SCORE.INTRA.VDW.0>
-1.65238

>  <SCORE.INTRA.norm>
-1.14365

>  <SCORE.RESTR>
0

>  <SCORE.RESTR.CAVITY>
0

>  <SCORE.RESTR.norm>
0

>  <SCORE.SYSTEM>
0

>  <SCORE.SYSTEM.CONST>
0

>  <SCORE.SYSTEM.DIHEDRAL>
0

>  <SCORE.SYSTEM.SOLV>
0

>  <SCORE.SYSTEM.norm>
0

>  <SCORE.heavy>
13

>  <SCORE.norm>
-1.30367

>  <RMSD>
18.119

$$$$
ligand
 OpenBabel11021811473D
libRbt.so/2013.1/901 2013/11/27
 13 12  0  0  0  0  0  0  0  0999 V2000
   34.4312   24.8168   59.9840 O   0  0  0  0  0  0  0  0  0  0  0  0
   33.2609   22.6830   61.5384 O   0  0  0  0  0  0  0  0  0  0  0  0
   37.8106   22.9285   60.7520 P   0  0  1  0  0  0  0  0  0  0  0  0
   36.6931   22.2637   61.5071 O   0  5  0  0  0  0  0  0  0  0  0  0
   38.7284   22.3456   59.7977 O   0  0  0  0  0  0  0  0  0  0  0  0
   37.2956   24.4490   60.5899 O   0  0  0  0  0  0  0  0  0  0  0  0
   34.6678   21.9033   63.8516 O   0  0  0  0  0  0  0  0  0  0  0  0
   36.7456   24.9393   59.3479 C   0  0  0  0  0  0  0  0  0  0  0  0
   32.9899   22.8296   60.1310 C   0  0  0  0  0  0  0  0  0  0  0  0
   33.4295   21.2543   63.5124 C   0  0  0  0  0  0  0  0  0  0  0  0
   35.3864   24.2832   59.0636 C   0  0  0  0  0  0  0  0  0  0  0  0
   33.1084   24.3140   59.7136 C   0  0  0  0  0  0  0  0  0  0  0  0
   33.2006   21.3166   61.9840 C   0  0  0  0  0  0  0  0  0  0  0  0
  1 12  1  0  0  0  0
  1 11  1  0  0  0  0
  2 13  1  0  0  0  0
  2  9  1  0  0  0  0
  3  4  1  6  0  0  0
  3  5  2  0  0  0  0
  3  6  1  0  0  0  0
  6  8  1  0  0  0  0
  7 10  1  0  0  0  0
  8 11  1  0  0  0  0
  9 12  1  0  0  0  0
 10 13  1  0  0  0  0
M  CHG  1   4  -1
M  END
>  <CHROM.1>
72.51417899,-177.07795425,-102.40649965,68.85269199,71.49339617,-178.48017941
59.61216250,-54.99539049,175.94708811,35.45559499,23.08673544,60.91043829
0.52909166,0.07189188,-0.85574907

>  <Name>
ligand

>  <RI>
0

>  <Rbt.Current_Directory>
/home/itssahil/PROJECTS/Mol_Feturizer/New_Systems/rnas/3GS8

>  <Rbt.Executable>
rbdock ($Id: //depot/dev/client3/rdock/2013.1/src/exe/rbdock.cxx#4 $)

>  <Rbt.Library>
libRbt.so (2013.1, Build901 2013/11/27)

>  <Rbt.Parameter_File>
/export/apps/rDock/src/rDock_2013.1_src/data/scripts/dock_solv.prm

>  <Rbt.Receptor>
prm/blind_docking_100.prm

>  <SCORE>
-13.7244

>  <SCORE.INTER>
-0.889337

>  <SCORE.INTER.CONST>
1

>  <SCORE.INTER.POLAR>
0

>  <SCORE.INTER.ROT>
9

>  <SCORE.INTER.SOLV>
14.1666

>  <SCORE.INTER.VDW>
-14.9151

>  <SCORE.INTER.norm>
-0.0684105

>  <SCORE.INTRA>
-12.8351

>  <SCORE.INTRA.DIHEDRAL>
-29.4296

>  <SCORE.INTRA.DIHEDRAL.0>
31.9578

>  <SCORE.INTRA.POLAR>
0

>  <SCORE.INTRA.POLAR.0>
0

>  <SCORE.INTRA.REPUL>
0

>  <SCORE.INTRA.REPUL.0>
0

>  <SCORE.INTRA.SOLV>
3.46143

>  <SCORE.INTRA.SOLV.lig_0>
-48.4032

>  <SCORE.INTRA.VDW>
0.14899

>  <SCORE.INTRA.VDW.0>
-1.65238

>  <SCORE.INTRA.norm>
-0.987315

>  <SCORE.RESTR>
0

>  <SCORE.RESTR.CAVITY>
0

>  <SCORE.RESTR.norm>
0

>  <SCORE.SYSTEM>
0

>  <SCORE.SYSTEM.CONST>
0

>  <SCORE.SYSTEM.DIHEDRAL>
0

>  <SCORE.SYSTEM.SOLV>
0

>  <SCORE.SYSTEM.norm>
0

>  <SCORE.heavy>
13

>  <SCORE.norm>
-1.05573

>  <RMSD>
18.123

$$$$
ligand
 OpenBabel11021811473D
libRbt.so/2013.1/901 2013/11/27
 13 12  0  0  0  0  0  0  0  0999 V2000
   34.7680   24.8981   60.4512 O   0  0  0  0  0  0  0  0  0  0  0  0
   33.0646   22.8090   61.2214 O   0  0  0  0  0  0  0  0  0  0  0  0
   38.3108   25.0812   62.9407 P   0  0  1  0  0  0  0  0  0  0  0  0
   39.6568   25.2477   62.2915 O   0  5  0  0  0  0  0  0  0  0  0  0
   37.8361   25.6332   64.1908 O   0  0  0  0  0  0  0  0  0  0  0  0
   37.3156   24.8853   61.6860 O   0  0  0  0  0  0  0  0  0  0  0  0
   32.4459   19.9277   60.9018 O   0  0  0  0  0  0  0  0  0  0  0  0
   36.8553   26.0033   60.8961 C   0  0  0  0  0  0  0  0  0  0  0  0
   32.6279   23.7149   60.1896 C   0  0  0  0  0  0  0  0  0  0  0  0
   31.4667   20.9799   60.9627 C   0  0  0  0  0  0  0  0  0  0  0  0
   35.8784   25.5302   59.8095 C   0  0  0  0  0  0  0  0  0  0  0  0
   33.8476   24.3541   59.4856 C   0  0  0  0  0  0  0  0  0  0  0  0
   31.9765   22.1256   61.8680 C   0  0  0  0  0  0  0  0  0  0  0  0
  1 12  1  0  0  0  0
  1 11  1  0  0  0  0
  2 13  1  0  0  0  0
  2  9  1  0  0  0  0
  3  4  1  6  0  0  0
  3  5  2  0  0  0  0
  3  6  1  0  0  0  0
  6  8  1  0  0  0  0
  7 10  1  0  0  0  0
  8 11  1  0  0  0  0
  9 12  1  0  0  0  0
 10 13  1  0  0  0  0
M  CHG  1   4  -1
M  END
>  <CHROM.1>
-178.10845935,77.61878823,-78.98761759,-177.66366792,59.60173682,-176.85915182
-50.37313333,70.02471639,-176.41987322,35.38305230,24.02739303,61.45885834
2.95689757,0.55832123,2.35375692

>  <Name>
ligand

>  <RI>
0

>  <Rbt.Current_Directory>
/home/itssahil/PROJECTS/Mol_Feturizer/New_Systems/rnas/3GS8

>  <Rbt.Executable>
rbdock ($Id: //depot/dev/client3/rdock/2013.1/src/exe/rbdock.cxx#4 $)

>  <Rbt.Library>
libRbt.so (2013.1, Build901 2013/11/27)

>  <Rbt.Parameter_File>
/export/apps/rDock/src/rDock_2013.1_src/data/scripts/dock_solv.prm

>  <Rbt.Receptor>
prm/blind_docking_80.prm

>  <SCORE>
-14.6244

>  <SCORE.INTER>
-0.127903

>  <SCORE.INTER.CONST>
1

>  <SCORE.INTER.POLAR>
0

>  <SCORE.INTER.ROT>
9

>  <SCORE.INTER.SOLV>
10.4856

>  <SCORE.INTER.VDW>
-13.1805

>  <SCORE.INTER.norm>
-0.00983867

>  <SCORE.INTRA>
-14.4965

>  <SCORE.INTRA.DIHEDRAL>
-29.3744

>  <SCORE.INTRA.DIHEDRAL.0>
31.9578

>  <SCORE.INTRA.POLAR>
0

>  <SCORE.INTRA.POLAR.0>
0

>  <SCORE.INTRA.REPUL>
0

>  <SCORE.INTRA.REPUL.0>
0

>  <SCORE.INTRA.SOLV>
-1.07565

>  <SCORE.INTRA.SOLV.lig_0>
-48.4032

>  <SCORE.INTRA.VDW>
0.728541

>  <SCORE.INTRA.VDW.0>
-1.65238

>  <SCORE.INTRA.norm>
-1.11511

>  <SCORE.RESTR>
0

>  <SCORE.RESTR.CAVITY>
0

>  <SCORE.RESTR.norm>
0

>  <SCORE.SYSTEM>
0

>  <SCORE.SYSTEM.CONST>
0

>  <SCORE.SYSTEM.DIHEDRAL>
0

>  <SCORE.SYSTEM.SOLV>
0

>  <SCORE.SYSTEM.norm>
0

>  <SCORE.heavy>
13

>  <SCORE.norm>
-1.12495

>  <RMSD>
18.133

$$$$
ligand
 OpenBabel11021811473D
libRbt.so/2013.1/901 2013/11/27
 13 12  0  0  0  0  0  0  0  0999 V2000
   34.5538   24.0871   59.7444 O   0  0  0  0  0  0  0  0  0  0  0  0
   32.7465   22.1491   60.8735 O   0  0  0  0  0  0  0  0  0  0  0  0
   38.6469   23.7641   61.1891 P   0  0  1  0  0  0  0  0  0  0  0  0
   38.8366   23.8803   62.6763 O   0  5  0  0  0  0  0  0  0  0  0  0
   39.2664   22.8353   60.2691 O   0  0  0  0  0  0  0  0  0  0  0  0
   37.1302   24.2681   60.9682 O   0  0  0  0  0  0  0  0  0  0  0  0
   32.2610   20.8938   63.3905 O   0  0  0  0  0  0  0  0  0  0  0  0
   36.7495   25.0610   59.8228 C   0  0  0  0  0  0  0  0  0  0  0  0
   32.3930   22.9133   59.7043 C   0  0  0  0  0  0  0  0  0  0  0  0
   32.5217   20.1162   62.2086 C   0  0  0  0  0  0  0  0  0  0  0  0
   35.2391   25.3386   59.8369 C   0  0  0  0  0  0  0  0  0  0  0  0
   33.1258   24.2752   59.7119 C   0  0  0  0  0  0  0  0  0  0  0  0
   32.0561   20.8897   60.9527 C   0  0  0  0  0  0  0  0  0  0  0  0
  1 12  1  0  0  0  0
  1 11  1  0  0  0  0
  2 13  1  0  0  0  0
  2  9  1  0  0  0  0
  3  4  1  1  0  0  0
  3  5  2  0  0  0  0
  3  6  1  0  0  0  0
  6  8  1  0  0  0  0
  7 10  1  0  0  0  0
  8 11  1  0  0  0  0
  9 12  1  0  0  0  0
 10 13  1  0  0  0  0
M  CHG  1   4  -1
M  END
>  <CHROM.1>
-176.33583572,178.31111213,142.28431821,177.29511378,-62.34501569,177.71728673
58.83410420,58.90313249,-178.27513658,35.37250196,23.16016924,60.92339842
2.82812353,0.21236657,2.42004027

>  <Name>
ligand

>  <RI>
0

>  <Rbt.Current_Directory>
/home/itssahil/PROJECTS/Mol_Feturizer/New_Systems/rnas/3GS8

>  <Rbt.Executable>
rbdock ($Id: //depot/dev/client3/rdock/2013.1/src/exe/rbdock.cxx#4 $)

>  <Rbt.Library>
libRbt.so (2013.1, Build901 2013/11/27)

>  <Rbt.Parameter_File>
/export/apps/rDock/src/rDock_2013.1_src/data/scripts/dock_solv.prm

>  <Rbt.Receptor>
prm/blind_docking_80.prm

>  <SCORE>
-17.0927

>  <SCORE.INTER>
-0.801241

>  <SCORE.INTER.CONST>
1

>  <SCORE.INTER.POLAR>
0

>  <SCORE.INTER.ROT>
9

>  <SCORE.INTER.SOLV>
12.8461

>  <SCORE.INTER.VDW>
-14.4162

>  <SCORE.INTER.norm>
-0.0616339

>  <SCORE.INTRA>
-16.2914

>  <SCORE.INTRA.DIHEDRAL>
-31.2018

>  <SCORE.INTRA.DIHEDRAL.0>
31.9578

>  <SCORE.INTRA.POLAR>
0

>  <SCORE.INTRA.POLAR.0>
0

>  <SCORE.INTRA.REPUL>
0

>  <SCORE.INTRA.REPUL.0>
0

>  <SCORE.INTRA.SOLV>
-1.48752

>  <SCORE.INTRA.SOLV.lig_0>
-48.4032

>  <SCORE.INTRA.VDW>
0.0531967

>  <SCORE.INTRA.VDW.0>
-1.65238

>  <SCORE.INTRA.norm>
-1.25319

>  <SCORE.RESTR>
0

>  <SCORE.RESTR.CAVITY>
0

>  <SCORE.RESTR.norm>
0

>  <SCORE.SYSTEM>
0

>  <SCORE.SYSTEM.CONST>
0

>  <SCORE.SYSTEM.DIHEDRAL>
0

>  <SCORE.SYSTEM.SOLV>
0

>  <SCORE.SYSTEM.norm>
0

>  <SCORE.heavy>
13

>  <SCORE.norm>
-1.31482

>  <RMSD>
18.168

$$$$
ligand
 OpenBabel11021811473D
libRbt.so/2013.1/901 2013/11/27
 13 12  0  0  0  0  0  0  0  0999 V2000
   34.7173   24.8896   60.4946 O   0  0  0  0  0  0  0  0  0  0  0  0
   37.3857   25.2464   61.4970 O   0  0  0  0  0  0  0  0  0  0  0  0
   31.1442   23.6145   62.5129 P   0  0  1  0  0  0  0  0  0  0  0  0
   30.3675   22.5474   61.7925 O   0  5  0  0  0  0  0  0  0  0  0  0
   31.5747   23.6422   63.8938 O   0  0  0  0  0  0  0  0  0  0  0  0
   32.0472   24.2675   61.3461 O   0  0  0  0  0  0  0  0  0  0  0  0
   39.8898   22.6343   60.7277 O   0  0  0  0  0  0  0  0  0  0  0  0
   32.7912   23.4545   60.4128 C   0  0  0  0  0  0  0  0  0  0  0  0
   36.7168   26.2948   60.7694 C   0  0  0  0  0  0  0  0  0  0  0  0
   38.9407   23.3631   61.5263 C   0  0  0  0  0  0  0  0  0  0  0  0
   33.7612   24.3212   59.5962 C   0  0  0  0  0  0  0  0  0  0  0  0
   35.6835   25.6924   59.7892 C   0  0  0  0  0  0  0  0  0  0  0  0
   38.2539   24.4523   60.6695 C   0  0  0  0  0  0  0  0  0  0  0  0
  1 12  1  0  0  0  0
  1 11  1  0  0  0  0
  2 13  1  0  0  0  0
  2  9  1  0  0  0  0
  3  4  1  6  0  0  0
  3  5  2  0  0  0  0
  3  6  1  0  0  0  0
  6  8  1  0  0  0  0
  7 10  1  0  0  0  0
  8 11  1  0  0  0  0
  9 12  1  0  0  0  0
 10 13  1  0  0  0  0
M  CHG  1   4  -1
M  END
>  <CHROM.1>
-179.66427420,179.45467169,-46.93894347,-169.12294553,63.61886966,68.79836572
58.01802885,-175.43791871,178.56268807,34.53828792,24.12263337,61.29122294
0.19954665,0.07188166,-0.73487959

>  <Name>
ligand

>  <RI>
0

>  <Rbt.Current_Directory>
/home/itssahil/PROJECTS/Mol_Feturizer/New_Systems/rnas/3GS8

>  <Rbt.Executable>
rbdock ($Id: //depot/dev/client3/rdock/2013.1/src/exe/rbdock.cxx#4 $)

>  <Rbt.Library>
libRbt.so (2013.1, Build901 2013/11/27)

>  <Rbt.Parameter_File>
/export/apps/rDock/src/rDock_2013.1_src/data/scripts/dock_solv.prm

>  <Rbt.Receptor>
prm/blind_docking_100.prm

>  <SCORE>
-16.4006

>  <SCORE.INTER>
-2.08453

>  <SCORE.INTER.CONST>
1

>  <SCORE.INTER.POLAR>
0

>  <SCORE.INTER.ROT>
9

>  <SCORE.INTER.SOLV>
8.18954

>  <SCORE.INTER.VDW>
-13.7195

>  <SCORE.INTER.norm>
-0.160349

>  <SCORE.INTRA>
-14.3161

>  <SCORE.INTRA.DIHEDRAL>
-30.0707

>  <SCORE.INTRA.DIHEDRAL.0>
31.9578

>  <SCORE.INTRA.POLAR>
0

>  <SCORE.INTRA.POLAR.0>
0

>  <SCORE.INTRA.REPUL>
0

>  <SCORE.INTRA.REPUL.0>
0

>  <SCORE.INTRA.SOLV>
-1.19754

>  <SCORE.INTRA.SOLV.lig_0>
-48.4032

>  <SCORE.INTRA.VDW>
1.31803

>  <SCORE.INTRA.VDW.0>
-1.65238

>  <SCORE.INTRA.norm>
-1.10124

>  <SCORE.RESTR>
0

>  <SCORE.RESTR.CAVITY>
0

>  <SCORE.RESTR.norm>
0

>  <SCORE.SYSTEM>
0

>  <SCORE.SYSTEM.CONST>
0

>  <SCORE.SYSTEM.DIHEDRAL>
0

>  <SCORE.SYSTEM.SOLV>
0

>  <SCORE.SYSTEM.norm>
0

>  <SCORE.heavy>
13

>  <SCORE.norm>
-1.26158

>  <RMSD>
18.170

$$$$
ligand
 OpenBabel11021811473D
libRbt.so/2013.1/901 2013/11/27
 13 12  0  0  0  0  0  0  0  0999 V2000
   34.7347   25.0969   60.3229 O   0  0  0  0  0  0  0  0  0  0  0  0
   37.2632   25.8681   61.6610 O   0  0  0  0  0  0  0  0  0  0  0  0
   31.7393   22.8257   62.5298 P   0  0  1  0  0  0  0  0  0  0  0  0
   31.6577   21.3440   62.2875 O   0  5  0  0  0  0  0  0  0  0  0  0
   31.4297   23.5626   63.7357 O   0  0  0  0  0  0  0  0  0  0  0  0
   32.9308   23.2967   61.5491 O   0  0  0  0  0  0  0  0  0  0  0  0
   39.3413   25.3631   63.5614 O   0  0  0  0  0  0  0  0  0  0  0  0
   32.6672   23.8736   60.2516 C   0  0  0  0  0  0  0  0  0  0  0  0
   36.7196   26.5373   60.5066 C   0  0  0  0  0  0  0  0  0  0  0  0
   38.9104   24.3503   62.6351 C   0  0  0  0  0  0  0  0  0  0  0  0
   33.9825   24.1825   59.5214 C   0  0  0  0  0  0  0  0  0  0  0  0
   35.9205   25.5403   59.6353 C   0  0  0  0  0  0  0  0  0  0  0  0
   38.3723   25.0090   61.3433 C   0  0  0  0  0  0  0  0  0  0  0  0
  1 12  1  0  0  0  0
  1 11  1  0  0  0  0
  2 13  1  0  0  0  0
  2  9  1  0  0  0  0
  3  4  1  1  0  0  0
  3  5  2  0  0  0  0
  3  6  1  0  0  0  0
  6  8  1  0  0  0  0
  7 10  1  0  0  0  0
  8 11  1  0  0  0  0
  9 12  1  0  0  0  0
 10 13  1  0  0  0  0
M  CHG  1   4  -1
M  END
>  <CHROM.1>
179.53106840,179.04163088,98.18112564,-178.09016231,-59.30495028,73.38244370
67.34265314,-59.60759338,-174.00444107,34.75804466,24.23292949,61.62385393
0.21152667,-0.33891048,-1.14544242

>  <Name>
ligand

>  <RI>
0

>  <Rbt.Current_Directory>
/home/itssahil/PROJECTS/Mol_Feturizer/New_Systems/rnas/3GS8

>  <Rbt.Executable>
rbdock ($Id: //depot/dev/client3/rdock/2013.1/src/exe/rbdock.cxx#4 $)

>  <Rbt.Library>
libRbt.so (2013.1, Build901 2013/11/27)

>  <Rbt.Parameter_File>
/export/apps/rDock/src/rDock_2013.1_src/data/scripts/dock_solv.prm

>  <Rbt.Receptor>
prm/blind_docking_80.prm

>  <SCORE>
-15.8739

>  <SCORE.INTER>
-1.35152

>  <SCORE.INTER.CONST>
1

>  <SCORE.INTER.POLAR>
0

>  <SCORE.INTER.ROT>
9

>  <SCORE.INTER.SOLV>
4.55425

>  <SCORE.INTER.VDW>
-12.0191

>  <SCORE.INTER.norm>
-0.103963

>  <SCORE.INTRA>
-14.5223

>  <SCORE.INTRA.DIHEDRAL>
-29.4073

>  <SCORE.INTRA.DIHEDRAL.0>
31.9578

>  <SCORE.INTRA.POLAR>
0

>  <SCORE.INTRA.POLAR.0>
0

>  <SCORE.INTRA.REPUL>
0

>  <SCORE.INTRA.REPUL.0>
0

>  <SCORE.INTRA.SOLV>
-1.36914

>  <SCORE.INTRA.SOLV.lig_0>
-48.4032

>  <SCORE.INTRA.VDW>
0.865881

>  <SCORE.INTRA.VDW.0>
-1.65238

>  <SCORE.INTRA.norm>
-1.1171

>  <SCORE.RESTR>
0

>  <SCORE.RESTR.CAVITY>
0

>  <SCORE.RESTR.norm>
0

>  <SCORE.SYSTEM>
0

>  <SCORE.SYSTEM.CONST>
0

>  <SCORE.SYSTEM.DIHEDRAL>
0

>  <SCORE.SYSTEM.SOLV>
0

>  <SCORE.SYSTEM.norm>
0

>  <SCORE.heavy>
13

>  <SCORE.norm>
-1.22107

>  <RMSD>
18.202

$$$$
ligand
 OpenBabel11021811473D
libRbt.so/2013.1/901 2013/11/27
 13 12  0  0  0  0  0  0  0  0999 V2000
   34.8166   24.0642   60.0144 O   0  0  0  0  0  0  0  0  0  0  0  0
   32.7624   22.1281   60.4961 O   0  0  0  0  0  0  0  0  0  0  0  0
   38.7484   24.7535   61.7984 P   0  0  1  0  0  0  0  0  0  0  0  0
   38.4678   25.3604   63.1453 O   0  5  0  0  0  0  0  0  0  0  0  0
   39.6922   23.7121   61.4556 O   0  0  0  0  0  0  0  0  0  0  0  0
   37.3339   24.8802   61.0327 O   0  0  0  0  0  0  0  0  0  0  0  0
   31.3686   19.0895   62.0839 O   0  0  0  0  0  0  0  0  0  0  0  0
   37.1644   24.4425   59.6669 C   0  0  0  0  0  0  0  0  0  0  0  0
   32.4650   23.5378   60.5053 C   0  0  0  0  0  0  0  0  0  0  0  0
   32.2850   19.8703   61.2963 C   0  0  0  0  0  0  0  0  0  0  0  0
   35.7440   24.7542   59.1729 C   0  0  0  0  0  0  0  0  0  0  0  0
   33.4579   24.3014   59.5983 C   0  0  0  0  0  0  0  0  0  0  0  0
   31.8557   21.3562   61.3031 C   0  0  0  0  0  0  0  0  0  0  0  0
  1 12  1  0  0  0  0
  1 11  1  0  0  0  0
  2 13  1  0  0  0  0
  2  9  1  0  0  0  0
  3  4  1  1  0  0  0
  3  5  2  0  0  0  0
  3  6  1  0  0  0  0
  6  8  1  0  0  0  0
  7 10  1  0  0  0  0
  8 11  1  0  0  0  0
  9 12  1  0  0  0  0
 10 13  1  0  0  0  0
M  CHG  1   4  -1
M  END
>  <CHROM.1>
179.36135317,-177.17050872,178.24527810,-176.84742777,-60.04544918,-178.88443226
-57.04878650,-179.03981126,-179.40574698,35.41956498,23.36823125,60.98985246
2.77381475,0.39036640,2.47145030

>  <Name>
ligand

>  <RI>
0

>  <Rbt.Current_Directory>
/home/itssahil/PROJECTS/Mol_Feturizer/New_Systems/rnas/3GS8

>  <Rbt.Executable>
rbdock ($Id: //depot/dev/client3/rdock/2013.1/src/exe/rbdock.cxx#4 $)

>  <Rbt.Library>
libRbt.so (2013.1, Build901 2013/11/27)

>  <Rbt.Parameter_File>
/export/apps/rDock/src/rDock_2013.1_src/data/scripts/dock_solv.prm

>  <Rbt.Receptor>
prm/blind_docking_80.prm

>  <SCORE>
-16.1588

>  <SCORE.INTER>
0.184968

>  <SCORE.INTER.CONST>
1

>  <SCORE.INTER.POLAR>
0

>  <SCORE.INTER.ROT>
9

>  <SCORE.INTER.SOLV>
10.5506

>  <SCORE.INTER.VDW>
-12.9935

>  <SCORE.INTER.norm>
0.0142283

>  <SCORE.INTRA>
-16.3438

>  <SCORE.INTRA.DIHEDRAL>
-31.3943

>  <SCORE.INTRA.DIHEDRAL.0>
31.9578

>  <SCORE.INTRA.POLAR>
0

>  <SCORE.INTRA.POLAR.0>
0

>  <SCORE.INTRA.REPUL>
0

>  <SCORE.INTRA.REPUL.0>
0

>  <SCORE.INTRA.SOLV>
-1.66111

>  <SCORE.INTRA.SOLV.lig_0>
-48.4032

>  <SCORE.INTRA.VDW>
0.183916

>  <SCORE.INTRA.VDW.0>
-1.65238

>  <SCORE.INTRA.norm>
-1.25721

>  <SCORE.RESTR>
0

>  <SCORE.RESTR.CAVITY>
0

>  <SCORE.RESTR.norm>
0

>  <SCORE.SYSTEM>
0

>  <SCORE.SYSTEM.CONST>
0

>  <SCORE.SYSTEM.DIHEDRAL>
0

>  <SCORE.SYSTEM.SOLV>
0

>  <SCORE.SYSTEM.norm>
0

>  <SCORE.heavy>
13

>  <SCORE.norm>
-1.24299

>  <RMSD>
18.210

$$$$
ligand
 OpenBabel11021811473D
libRbt.so/2013.1/901 2013/11/27
 13 12  0  0  0  0  0  0  0  0999 V2000
   34.3472   24.3403   60.3450 O   0  0  0  0  0  0  0  0  0  0  0  0
   37.1498   24.7921   60.9478 O   0  0  0  0  0  0  0  0  0  0  0  0
   30.8247   24.1984   62.9173 P   0  0  1  0  0  0  0  0  0  0  0  0
   29.5278   23.6897   62.3513 O   0  5  0  0  0  0  0  0  0  0  0  0
   31.3868   23.9738   64.2313 O   0  0  0  0  0  0  0  0  0  0  0  0
   31.7717   24.3266   61.6174 O   0  0  0  0  0  0  0  0  0  0  0  0
   38.0319   24.4683   63.6782 O   0  0  0  0  0  0  0  0  0  0  0  0
   32.3464   23.1675   60.9755 C   0  0  0  0  0  0  0  0  0  0  0  0
   36.4654   25.5084   59.9016 C   0  0  0  0  0  0  0  0  0  0  0  0
   38.9520   24.6776   62.5924 C   0  0  0  0  0  0  0  0  0  0  0  0
   33.2535   23.5903   59.8105 C   0  0  0  0  0  0  0  0  0  0  0  0
   35.3169   24.6481   59.3250 C   0  0  0  0  0  0  0  0  0  0  0  0
   38.2761   25.5120   61.4792 C   0  0  0  0  0  0  0  0  0  0  0  0
  1 12  1  0  0  0  0
  1 11  1  0  0  0  0
  2 13  1  0  0  0  0
  2  9  1  0  0  0  0
  3  4  1  6  0  0  0
  3  5  2  0  0  0  0
  3  6  1  0  0  0  0
  6  8  1  0  0  0  0
  7 10  1  0  0  0  0
  8 11  1  0  0  0  0
  9 12  1  0  0  0  0
 10 13  1  0  0  0  0
M  CHG  1   4  -1
M  END
>  <CHROM.1>
177.66901239,179.99449082,-74.78273523,-177.26989734,63.80581547,176.93790753
61.11184008,-62.34749558,173.79295156,34.10382842,24.35586021,61.69741631
0.13191845,-0.14163406,-1.55603041

>  <Name>
ligand

>  <RI>
0

>  <Rbt.Current_Directory>
/home/itssahil/PROJECTS/Mol_Feturizer/New_Systems/rnas/3GS8

>  <Rbt.Executable>
rbdock ($Id: //depot/dev/client3/rdock/2013.1/src/exe/rbdock.cxx#4 $)

>  <Rbt.Library>
libRbt.so (2013.1, Build901 2013/11/27)

>  <Rbt.Parameter_File>
/export/apps/rDock/src/rDock_2013.1_src/data/scripts/dock_solv.prm

>  <Rbt.Receptor>
prm/blind_docking_80.prm

>  <SCORE>
-16.0142

>  <SCORE.INTER>
0.109536

>  <SCORE.INTER.CONST>
1

>  <SCORE.INTER.POLAR>
0

>  <SCORE.INTER.ROT>
9

>  <SCORE.INTER.SOLV>
8.61075

>  <SCORE.INTER.VDW>
-12.3972

>  <SCORE.INTER.norm>
0.00842585

>  <SCORE.INTRA>
-16.1237

>  <SCORE.INTRA.DIHEDRAL>
-31.2961

>  <SCORE.INTRA.DIHEDRAL.0>
31.9578

>  <SCORE.INTRA.POLAR>
0

>  <SCORE.INTRA.POLAR.0>
0

>  <SCORE.INTRA.REPUL>
0

>  <SCORE.INTRA.REPUL.0>
0

>  <SCORE.INTRA.SOLV>
-1.17286

>  <SCORE.INTRA.SOLV.lig_0>
-48.4032

>  <SCORE.INTRA.VDW>
0.110778

>  <SCORE.INTRA.VDW.0>
-1.65238

>  <SCORE.INTRA.norm>
-1.24029

>  <SCORE.RESTR>
0

>  <SCORE.RESTR.CAVITY>
0

>  <SCORE.RESTR.norm>
0

>  <SCORE.SYSTEM>
0

>  <SCORE.SYSTEM.CONST>
0

>  <SCORE.SYSTEM.DIHEDRAL>
0

>  <SCORE.SYSTEM.SOLV>
0

>  <SCORE.SYSTEM.norm>
0

>  <SCORE.heavy>
13

>  <SCORE.norm>
-1.23186

>  <RMSD>
18.211

$$$$
ligand
 OpenBabel11021811473D
libRbt.so/2013.1/901 2013/11/27
 13 12  0  0  0  0  0  0  0  0999 V2000
   35.7267   24.3288   62.6336 O   0  0  0  0  0  0  0  0  0  0  0  0
   33.2582   22.9598   62.1111 O   0  0  0  0  0  0  0  0  0  0  0  0
   38.9061   23.0360   60.0159 P   0  0  1  0  0  0  0  0  0  0  0  0
   39.7323   22.5704   61.1827 O   0  5  0  0  0  0  0  0  0  0  0  0
   38.7298   22.4068   58.7252 O   0  0  0  0  0  0  0  0  0  0  0  0
   37.7029   23.8519   60.7157 O   0  0  0  0  0  0  0  0  0  0  0  0
   31.6224   21.7033   60.0833 O   0  0  0  0  0  0  0  0  0  0  0  0
   37.9376   24.7734   61.8026 C   0  0  0  0  0  0  0  0  0  0  0  0
   33.4588   23.6890   63.3374 C   0  0  0  0  0  0  0  0  0  0  0  0
   32.4083   22.8797   59.8226 C   0  0  0  0  0  0  0  0  0  0  0  0
   36.6154   25.3917   62.2806 C   0  0  0  0  0  0  0  0  0  0  0  0
   34.4697   24.8388   63.1186 C   0  0  0  0  0  0  0  0  0  0  0  0
   32.5505   23.7182   61.1145 C   0  0  0  0  0  0  0  0  0  0  0  0
  1 12  1  0  0  0  0
  1 11  1  0  0  0  0
  2 13  1  0  0  0  0
  2  9  1  0  0  0  0
  3  4  1  1  0  0  0
  3  5  2  0  0  0  0
  3  6  1  0  0  0  0
  6  8  1  0  0  0  0
  7 10  1  0  0  0  0
  8 11  1  0  0  0  0
  9 12  1  0  0  0  0
 10 13  1  0  0  0  0
M  CHG  1   4  -1
M  END
>  <CHROM.1>
173.25364223,178.60505835,43.75536020,-179.37057837,55.83871465,-69.36688323
-57.79687961,62.84245033,178.84492008,35.91617635,23.47608953,61.17789593
-3.01197520,-0.10592312,-2.19604864

>  <Name>
ligand

>  <RI>
0

>  <Rbt.Current_Directory>
/home/itssahil/PROJECTS/Mol_Feturizer/New_Systems/rnas/3GS8

>  <Rbt.Executable>
rbdock ($Id: //depot/dev/client3/rdock/2013.1/src/exe/rbdock.cxx#4 $)

>  <Rbt.Library>
libRbt.so (2013.1, Build901 2013/11/27)

>  <Rbt.Parameter_File>
/export/apps/rDock/src/rDock_2013.1_src/data/scripts/dock_solv.prm

>  <Rbt.Receptor>
prm/blind_docking_80.prm

>  <SCORE>
-12.3664

>  <SCORE.INTER>
2.31562

>  <SCORE.INTER.CONST>
1

>  <SCORE.INTER.POLAR>
0

>  <SCORE.INTER.ROT>
9

>  <SCORE.INTER.SOLV>
15.802

>  <SCORE.INTER.VDW>
-13.3236

>  <SCORE.INTER.norm>
0.178125

>  <SCORE.INTRA>
-14.6821

>  <SCORE.INTRA.DIHEDRAL>
-30.8976

>  <SCORE.INTRA.DIHEDRAL.0>
31.9578

>  <SCORE.INTRA.POLAR>
0

>  <SCORE.INTRA.POLAR.0>
0

>  <SCORE.INTRA.REPUL>
0

>  <SCORE.INTRA.REPUL.0>
0

>  <SCORE.INTRA.SOLV>
-1.06441

>  <SCORE.INTRA.SOLV.lig_0>
-48.4032

>  <SCORE.INTRA.VDW>
1.29894

>  <SCORE.INTRA.VDW.0>
-1.65238

>  <SCORE.INTRA.norm>
-1.12939

>  <SCORE.RESTR>
0

>  <SCORE.RESTR.CAVITY>
0

>  <SCORE.RESTR.norm>
0

>  <SCORE.SYSTEM>
0

>  <SCORE.SYSTEM.CONST>
0

>  <SCORE.SYSTEM.DIHEDRAL>
0

>  <SCORE.SYSTEM.SOLV>
0

>  <SCORE.SYSTEM.norm>
0

>  <SCORE.heavy>
13

>  <SCORE.norm>
-0.951265

>  <RMSD>
18.218

$$$$
ligand
 OpenBabel11021811473D
libRbt.so/2013.1/901 2013/11/27
 13 12  0  0  0  0  0  0  0  0999 V2000
   31.9222   23.3105   59.3123 O   0  0  0  0  0  0  0  0  0  0  0  0
   32.3565   20.0940   61.1228 O   0  0  0  0  0  0  0  0  0  0  0  0
   36.4474   25.5736   59.6656 P   0  0  1  0  0  0  0  0  0  0  0  0
   36.7241   26.9078   60.3015 O   0  5  0  0  0  0  0  0  0  0  0  0
   37.3797   24.5154   59.3436 O   0  0  0  0  0  0  0  0  0  0  0  0
   34.9424   25.2406   60.1425 O   0  0  0  0  0  0  0  0  0  0  0  0
   30.4531   18.9257   64.0739 O   0  0  0  0  0  0  0  0  0  0  0  0
   34.1152   24.2847   59.4440 C   0  0  0  0  0  0  0  0  0  0  0  0
   31.8842   21.4378   60.9059 C   0  0  0  0  0  0  0  0  0  0  0  0
   30.6569   19.3721   62.7216 C   0  0  0  0  0  0  0  0  0  0  0  0
   32.7287   24.1917   60.0980 C   0  0  0  0  0  0  0  0  0  0  0  0
   32.3100   21.9365   59.5053 C   0  0  0  0  0  0  0  0  0  0  0  0
   32.1599   19.6393   62.4733 C   0  0  0  0  0  0  0  0  0  0  0  0
  1 12  1  0  0  0  0
  1 11  1  0  0  0  0
  2 13  1  0  0  0  0
  2  9  1  0  0  0  0
  3  4  1  1  0  0  0
  3  5  2  0  0  0  0
  3  6  1  0  0  0  0
  6  8  1  0  0  0  0
  7 10  1  0  0  0  0
  8 11  1  0  0  0  0
  9 12  1  0  0  0  0
 10 13  1  0  0  0  0
M  CHG  1   4  -1
M  END
>  <CHROM.1>
71.79927378,72.14005288,159.83064657,-178.80837369,175.78095157,171.70325050
-176.09300048,-179.60820704,74.17546951,33.66821191,22.97866077,60.61857382
2.30615708,0.40449682,2.37070995

>  <Name>
ligand

>  <RI>
0

>  <Rbt.Current_Directory>
/home/itssahil/PROJECTS/Mol_Feturizer/New_Systems/rnas/3GS8

>  <Rbt.Executable>
rbdock ($Id: //depot/dev/client3/rdock/2013.1/src/exe/rbdock.cxx#4 $)

>  <Rbt.Library>
libRbt.so (2013.1, Build901 2013/11/27)

>  <Rbt.Parameter_File>
/export/apps/rDock/src/rDock_2013.1_src/data/scripts/dock_solv.prm

>  <Rbt.Receptor>
prm/blind_docking_100.prm

>  <SCORE>
-11.9934

>  <SCORE.INTER>
-0.152369

>  <SCORE.INTER.CONST>
1

>  <SCORE.INTER.POLAR>
0

>  <SCORE.INTER.ROT>
9

>  <SCORE.INTER.SOLV>
16.4044

>  <SCORE.INTER.VDW>
-15.1697

>  <SCORE.INTER.norm>
-0.0117207

>  <SCORE.INTRA>
-11.8512

>  <SCORE.INTRA.DIHEDRAL>
-28.885

>  <SCORE.INTRA.DIHEDRAL.0>
31.9578

>  <SCORE.INTRA.POLAR>
0

>  <SCORE.INTRA.POLAR.0>
0

>  <SCORE.INTRA.REPUL>
0

>  <SCORE.INTRA.REPUL.0>
0

>  <SCORE.INTRA.SOLV>
-1.8832

>  <SCORE.INTRA.SOLV.lig_0>
-48.4032

>  <SCORE.INTRA.VDW>
3.53287

>  <SCORE.INTRA.VDW.0>
-1.65238

>  <SCORE.INTRA.norm>
-0.911634

>  <SCORE.RESTR>
0.0102091

>  <SCORE.RESTR.CAVITY>
0.0102091

>  <SCORE.RESTR.norm>
0.000785315

>  <SCORE.SYSTEM>
0

>  <SCORE.SYSTEM.CONST>
0

>  <SCORE.SYSTEM.DIHEDRAL>
0

>  <SCORE.SYSTEM.SOLV>
0

>  <SCORE.SYSTEM.norm>
0

>  <SCORE.heavy>
13

>  <SCORE.norm>
-0.922569

>  <RMSD>
18.230

$$$$
ligand
 OpenBabel11021811473D
libRbt.so/2013.1/901 2013/11/27
 13 12  0  0  0  0  0  0  0  0999 V2000
   34.1404   24.1478   60.3974 O   0  0  0  0  0  0  0  0  0  0  0  0
   36.9548   24.7454   60.8625 O   0  0  0  0  0  0  0  0  0  0  0  0
   30.6162   24.1621   62.9690 P   0  0  1  0  0  0  0  0  0  0  0  0
   29.3180   23.6412   62.4174 O   0  5  0  0  0  0  0  0  0  0  0  0
   31.1611   24.0035   64.2997 O   0  0  0  0  0  0  0  0  0  0  0  0
   31.5788   24.2037   61.6748 O   0  0  0  0  0  0  0  0  0  0  0  0
   39.8939   25.5763   62.9522 O   0  0  0  0  0  0  0  0  0  0  0  0
   32.1513   23.0035   61.1115 C   0  0  0  0  0  0  0  0  0  0  0  0
   36.1790   25.4076   59.8450 C   0  0  0  0  0  0  0  0  0  0  0  0
   38.8409   24.7567   62.4145 C   0  0  0  0  0  0  0  0  0  0  0  0
   33.0573   23.3459   59.9196 C   0  0  0  0  0  0  0  0  0  0  0  0
   35.0562   24.4748   59.3344 C   0  0  0  0  0  0  0  0  0  0  0  0
   38.0338   25.5542   61.3634 C   0  0  0  0  0  0  0  0  0  0  0  0
  1 12  1  0  0  0  0
  1 11  1  0  0  0  0
  2 13  1  0  0  0  0
  2  9  1  0  0  0  0
  3  4  1  6  0  0  0
  3  5  2  0  0  0  0
  3  6  1  0  0  0  0
  6  8  1  0  0  0  0
  7 10  1  0  0  0  0
  8 11  1  0  0  0  0
  9 12  1  0  0  0  0
 10 13  1  0  0  0  0
M  CHG  1   4  -1
M  END
>  <CHROM.1>
176.78716995,-178.20651750,-75.27987238,-178.16246958,62.84302468,178.95362518
62.40609233,-178.05447465,178.29176263,34.05046050,24.36835768,61.65565927
0.10131337,-0.18736440,-1.68951691

>  <Name>
ligand

>  <RI>
0

>  <Rbt.Current_Directory>
/home/itssahil/PROJECTS/Mol_Feturizer/New_Systems/rnas/3GS8

>  <Rbt.Executable>
rbdock ($Id: //depot/dev/client3/rdock/2013.1/src/exe/rbdock.cxx#4 $)

>  <Rbt.Library>
libRbt.so (2013.1, Build901 2013/11/27)

>  <Rbt.Parameter_File>
/export/apps/rDock/src/rDock_2013.1_src/data/scripts/dock_solv.prm

>  <Rbt.Receptor>
prm/blind_docking_80.prm

>  <SCORE>
-15.9511

>  <SCORE.INTER>
0.353236

>  <SCORE.INTER.CONST>
1

>  <SCORE.INTER.POLAR>
0

>  <SCORE.INTER.ROT>
9

>  <SCORE.INTER.SOLV>
7.3577

>  <SCORE.INTER.VDW>
-11.8171

>  <SCORE.INTER.norm>
0.027172

>  <SCORE.INTRA>
-16.3044

>  <SCORE.INTRA.DIHEDRAL>
-31.5056

>  <SCORE.INTRA.DIHEDRAL.0>
31.9578

>  <SCORE.INTRA.POLAR>
0

>  <SCORE.INTRA.POLAR.0>
0

>  <SCORE.INTRA.REPUL>
0

>  <SCORE.INTRA.REPUL.0>
0

>  <SCORE.INTRA.SOLV>
-1.41947

>  <SCORE.INTRA.SOLV.lig_0>
-48.4032

>  <SCORE.INTRA.VDW>
0.158162

>  <SCORE.INTRA.VDW.0>
-1.65238

>  <SCORE.INTRA.norm>
-1.25418

>  <SCORE.RESTR>
0

>  <SCORE.RESTR.CAVITY>
0

>  <SCORE.RESTR.norm>
0

>  <SCORE.SYSTEM>
0

>  <SCORE.SYSTEM.CONST>
0

>  <SCORE.SYSTEM.DIHEDRAL>
0

>  <SCORE.SYSTEM.SOLV>
0

>  <SCORE.SYSTEM.norm>
0

>  <SCORE.heavy>
13

>  <SCORE.norm>
-1.22701

>  <RMSD>
18.232

$$$$
ligand
 OpenBabel11021811473D
libRbt.so/2013.1/901 2013/11/27
 13 12  0  0  0  0  0  0  0  0999 V2000
   34.5101   24.1683   60.1538 O   0  0  0  0  0  0  0  0  0  0  0  0
   36.5691   25.3492   61.9675 O   0  0  0  0  0  0  0  0  0  0  0  0
   31.7681   23.2976   62.3918 P   0  0  1  0  0  0  0  0  0  0  0  0
   30.3329   22.9114   62.1638 O   0  5  0  0  0  0  0  0  0  0  0  0
   32.4254   23.6391   63.6344 O   0  0  0  0  0  0  0  0  0  0  0  0
   32.5541   22.5103   61.2232 O   0  0  0  0  0  0  0  0  0  0  0  0
   36.6987   24.5007   64.6905 O   0  0  0  0  0  0  0  0  0  0  0  0
   32.4783   22.9233   59.8414 C   0  0  0  0  0  0  0  0  0  0  0  0
   36.6723   25.2774   60.5322 C   0  0  0  0  0  0  0  0  0  0  0  0
   37.6633   25.4210   64.1501 C   0  0  0  0  0  0  0  0  0  0  0  0
   33.1789   24.2756   59.6433 C   0  0  0  0  0  0  0  0  0  0  0  0
   35.2688   25.3639   59.8885 C   0  0  0  0  0  0  0  0  0  0  0  0
   37.8334   25.1786   62.6320 C   0  0  0  0  0  0  0  0  0  0  0  0
  1 12  1  0  0  0  0
  1 11  1  0  0  0  0
  2 13  1  0  0  0  0
  2  9  1  0  0  0  0
  3  4  1  1  0  0  0
  3  5  2  0  0  0  0
  3  6  1  0  0  0  0
  6  8  1  0  0  0  0
  7 10  1  0  0  0  0
  8 11  1  0  0  0  0
  9 12  1  0  0  0  0
 10 13  1  0  0  0  0
M  CHG  1   4  -1
M  END
>  <CHROM.1>
175.94976992,173.89037193,72.90070971,67.87766427,54.08122090,175.84463773
-69.79942936,58.98494923,174.62692125,34.20786086,24.12211993,61.84344667
-2.98430572,0.37834194,1.65338971

>  <Name>
ligand

>  <RI>
0

>  <Rbt.Current_Directory>
/home/itssahil/PROJECTS/Mol_Feturizer/New_Systems/rnas/3GS8

>  <Rbt.Executable>
rbdock ($Id: //depot/dev/client3/rdock/2013.1/src/exe/rbdock.cxx#4 $)

>  <Rbt.Library>
libRbt.so (2013.1, Build901 2013/11/27)

>  <Rbt.Parameter_File>
/export/apps/rDock/src/rDock_2013.1_src/data/scripts/dock_solv.prm

>  <Rbt.Receptor>
prm/blind_docking_80.prm

>  <SCORE>
-14.3635

>  <SCORE.INTER>
0.15094

>  <SCORE.INTER.CONST>
1

>  <SCORE.INTER.POLAR>
0

>  <SCORE.INTER.ROT>
9

>  <SCORE.INTER.SOLV>
5.91314

>  <SCORE.INTER.VDW>
-11.4704

>  <SCORE.INTER.norm>
0.0116107

>  <SCORE.INTRA>
-14.5144

>  <SCORE.INTRA.DIHEDRAL>
-29.891

>  <SCORE.INTRA.DIHEDRAL.0>
31.9578

>  <SCORE.INTRA.POLAR>
0

>  <SCORE.INTRA.POLAR.0>
0

>  <SCORE.INTRA.REPUL>
0

>  <SCORE.INTRA.REPUL.0>
0

>  <SCORE.INTRA.SOLV>
0.650269

>  <SCORE.INTRA.SOLV.lig_0>
-48.4032

>  <SCORE.INTRA.VDW>
0.105942

>  <SCORE.INTRA.VDW.0>
-1.65238

>  <SCORE.INTRA.norm>
-1.11649

>  <SCORE.RESTR>
0

>  <SCORE.RESTR.CAVITY>
0

>  <SCORE.RESTR.norm>
0

>  <SCORE.SYSTEM>
0

>  <SCORE.SYSTEM.CONST>
0

>  <SCORE.SYSTEM.DIHEDRAL>
0

>  <SCORE.SYSTEM.SOLV>
0

>  <SCORE.SYSTEM.norm>
0

>  <SCORE.heavy>
13

>  <SCORE.norm>
-1.10488

>  <RMSD>
18.237

$$$$
ligand
 OpenBabel11021811473D
libRbt.so/2013.1/901 2013/11/27
 13 12  0  0  0  0  0  0  0  0999 V2000
   34.4126   24.0901   60.1489 O   0  0  0  0  0  0  0  0  0  0  0  0
   36.3770   25.2256   62.1186 O   0  0  0  0  0  0  0  0  0  0  0  0
   31.3789   23.0442   62.1233 P   0  0  1  0  0  0  0  0  0  0  0  0
   31.3214   21.9843   63.1883 O   0  5  0  0  0  0  0  0  0  0  0  0
   31.2605   24.4786   62.2687 O   0  0  0  0  0  0  0  0  0  0  0  0
   32.3501   22.3977   61.0088 O   0  0  0  0  0  0  0  0  0  0  0  0
   36.3652   24.4015   64.8608 O   0  0  0  0  0  0  0  0  0  0  0  0
   32.3892   22.8919   59.6524 C   0  0  0  0  0  0  0  0  0  0  0  0
   36.5649   25.1487   60.6921 C   0  0  0  0  0  0  0  0  0  0  0  0
   37.3436   25.3293   64.3593 C   0  0  0  0  0  0  0  0  0  0  0  0
   33.1048   24.2496   59.5934 C   0  0  0  0  0  0  0  0  0  0  0  0
   35.2064   25.2781   59.9644 C   0  0  0  0  0  0  0  0  0  0  0  0
   37.6011   25.0664   62.8570 C   0  0  0  0  0  0  0  0  0  0  0  0
  1 12  1  0  0  0  0
  1 11  1  0  0  0  0
  2 13  1  0  0  0  0
  2  9  1  0  0  0  0
  3  4  1  1  0  0  0
  3  5  2  0  0  0  0
  3  6  1  0  0  0  0
  6  8  1  0  0  0  0
  7 10  1  0  0  0  0
  8 11  1  0  0  0  0
  9 12  1  0  0  0  0
 10 13  1  0  0  0  0
M  CHG  1   4  -1
M  END
>  <CHROM.1>
174.25020096,173.25501073,162.01910724,72.99264543,56.71289716,178.02862946
-71.53663266,59.85474179,172.28673436,34.01592527,24.01535705,61.81458873
-2.95329819,0.40557794,1.69613190

>  <Name>
ligand

>  <RI>
0

>  <Rbt.Current_Directory>
/home/itssahil/PROJECTS/Mol_Feturizer/New_Systems/rnas/3GS8

>  <Rbt.Executable>
rbdock ($Id: //depot/dev/client3/rdock/2013.1/src/exe/rbdock.cxx#4 $)

>  <Rbt.Library>
libRbt.so (2013.1, Build901 2013/11/27)

>  <Rbt.Parameter_File>
/export/apps/rDock/src/rDock_2013.1_src/data/scripts/dock_solv.prm

>  <Rbt.Receptor>
prm/blind_docking_100.prm

>  <SCORE>
-13.8734

>  <SCORE.INTER>
0.596928

>  <SCORE.INTER.CONST>
1

>  <SCORE.INTER.POLAR>
0

>  <SCORE.INTER.ROT>
9

>  <SCORE.INTER.SOLV>
7.63077

>  <SCORE.INTER.VDW>
-11.7456

>  <SCORE.INTER.norm>
0.0459176

>  <SCORE.INTRA>
-14.4704

>  <SCORE.INTRA.DIHEDRAL>
-29.6515

>  <SCORE.INTRA.DIHEDRAL.0>
31.9578

>  <SCORE.INTRA.POLAR>
0

>  <SCORE.INTRA.POLAR.0>
0

>  <SCORE.INTRA.REPUL>
0

>  <SCORE.INTRA.REPUL.0>
0

>  <SCORE.INTRA.SOLV>
0.709458

>  <SCORE.INTRA.SOLV.lig_0>
-48.4032

>  <SCORE.INTRA.VDW>
0.000635455

>  <SCORE.INTRA.VDW.0>
-1.65238

>  <SCORE.INTRA.norm>
-1.11311

>  <SCORE.RESTR>
0

>  <SCORE.RESTR.CAVITY>
0

>  <SCORE.RESTR.norm>
0

>  <SCORE.SYSTEM>
0

>  <SCORE.SYSTEM.CONST>
0

>  <SCORE.SYSTEM.DIHEDRAL>
0

>  <SCORE.SYSTEM.SOLV>
0

>  <SCORE.SYSTEM.norm>
0

>  <SCORE.heavy>
13

>  <SCORE.norm>
-1.06719

>  <RMSD>
18.264

$$$$
ligand
 OpenBabel11021811473D
libRbt.so/2013.1/901 2013/11/27
 13 12  0  0  0  0  0  0  0  0999 V2000
   34.8307   24.8909   60.1847 O   0  0  0  0  0  0  0  0  0  0  0  0
   37.6216   24.9983   61.0750 O   0  0  0  0  0  0  0  0  0  0  0  0
   32.3140   22.6566   62.9073 P   0  0  1  0  0  0  0  0  0  0  0  0
   32.2334   23.8886   63.7655 O   0  5  0  0  0  0  0  0  0  0  0  0
   31.3495   21.5873   62.7686 O   0  0  0  0  0  0  0  0  0  0  0  0
   33.2125   23.1349   61.6554 O   0  0  0  0  0  0  0  0  0  0  0  0
   38.1964   24.5566   63.8627 O   0  0  0  0  0  0  0  0  0  0  0  0
   32.6635   23.9316   60.5833 C   0  0  0  0  0  0  0  0  0  0  0  0
   37.1065   25.8043   59.9975 C   0  0  0  0  0  0  0  0  0  0  0  0
   39.2379   24.6747   62.8774 C   0  0  0  0  0  0  0  0  0  0  0  0
   33.7404   24.2361   59.5315 C   0  0  0  0  0  0  0  0  0  0  0  0
   35.9438   25.0717   59.2881 C   0  0  0  0  0  0  0  0  0  0  0  0
   38.7683   25.5831   61.7170 C   0  0  0  0  0  0  0  0  0  0  0  0
  1 12  1  0  0  0  0
  1 11  1  0  0  0  0
  2 13  1  0  0  0  0
  2  9  1  0  0  0  0
  3  4  1  6  0  0  0
  3  5  2  0  0  0  0
  3  6  1  0  0  0  0
  6  8  1  0  0  0  0
  7 10  1  0  0  0  0
  8 11  1  0  0  0  0
  9 12  1  0  0  0  0
 10 13  1  0  0  0  0
M  CHG  1   4  -1
M  END
>  <CHROM.1>
178.93401748,178.74087897,-78.13087743,-179.90763682,-56.85849827,175.89926250
64.13909546,-61.60609426,173.46535268,34.90791730,24.08364006,61.70067974
0.23919052,-0.31755066,-1.24177578

>  <Name>
ligand

>  <RI>
0

>  <Rbt.Current_Directory>
/home/itssahil/PROJECTS/Mol_Feturizer/New_Systems/rnas/3GS8

>  <Rbt.Executable>
rbdock ($Id: //depot/dev/client3/rdock/2013.1/src/exe/rbdock.cxx#4 $)

>  <Rbt.Library>
libRbt.so (2013.1, Build901 2013/11/27)

>  <Rbt.Parameter_File>
/export/apps/rDock/src/rDock_2013.1_src/data/scripts/dock_solv.prm

>  <Rbt.Receptor>
prm/blind_docking_100.prm

>  <SCORE>
-15.9812

>  <SCORE.INTER>
0.173244

>  <SCORE.INTER.CONST>
1

>  <SCORE.INTER.POLAR>
0

>  <SCORE.INTER.ROT>
9

>  <SCORE.INTER.SOLV>
5.26501

>  <SCORE.INTER.VDW>
-11.2395

>  <SCORE.INTER.norm>
0.0133265

>  <SCORE.INTRA>
-16.1545

>  <SCORE.INTRA.DIHEDRAL>
-31.2583

>  <SCORE.INTRA.DIHEDRAL.0>
31.9578

>  <SCORE.INTRA.POLAR>
0

>  <SCORE.INTRA.POLAR.0>
0

>  <SCORE.INTRA.REPUL>
0

>  <SCORE.INTRA.REPUL.0>
0

>  <SCORE.INTRA.SOLV>
-1.15565

>  <SCORE.INTRA.SOLV.lig_0>
-48.4032

>  <SCORE.INTRA.VDW>
0.0525042

>  <SCORE.INTRA.VDW.0>
-1.65238

>  <SCORE.INTRA.norm>
-1.24265

>  <SCORE.RESTR>
0

>  <SCORE.RESTR.CAVITY>
0

>  <SCORE.RESTR.norm>
0

>  <SCORE.SYSTEM>
0

>  <SCORE.SYSTEM.CONST>
0

>  <SCORE.SYSTEM.DIHEDRAL>
0

>  <SCORE.SYSTEM.SOLV>
0

>  <SCORE.SYSTEM.norm>
0

>  <SCORE.heavy>
13

>  <SCORE.norm>
-1.22933

>  <RMSD>
18.323

$$$$
ligand
 OpenBabel11021811473D
libRbt.so/2013.1/901 2013/11/27
 13 12  0  0  0  0  0  0  0  0999 V2000
   34.5659   24.5546   60.4923 O   0  0  0  0  0  0  0  0  0  0  0  0
   32.8822   22.2030   60.5987 O   0  0  0  0  0  0  0  0  0  0  0  0
   38.6200   24.0285   62.0821 P   0  0  1  0  0  0  0  0  0  0  0  0
   39.1591   22.6815   61.6871 O   0  5  0  0  0  0  0  0  0  0  0  0
   39.3287   25.1537   62.6518 O   0  0  0  0  0  0  0  0  0  0  0  0
   37.3901   24.2495   61.0614 O   0  0  0  0  0  0  0  0  0  0  0  0
   31.5412   19.1573   62.2163 O   0  0  0  0  0  0  0  0  0  0  0  0
   36.7196   25.5228   60.9400 C   0  0  0  0  0  0  0  0  0  0  0  0
   32.3661   23.4914   60.2119 C   0  0  0  0  0  0  0  0  0  0  0  0
   32.5434   20.0394   61.6805 C   0  0  0  0  0  0  0  0  0  0  0  0
   35.5562   25.4268   59.9419 C   0  0  0  0  0  0  0  0  0  0  0  0
   33.4826   24.3446   59.5661 C   0  0  0  0  0  0  0  0  0  0  0  0
   31.8883   21.3565   61.2026 C   0  0  0  0  0  0  0  0  0  0  0  0
  1 12  1  0  0  0  0
  1 11  1  0  0  0  0
  2 13  1  0  0  0  0
  2  9  1  0  0  0  0
  3  4  1  6  0  0  0
  3  5  2  0  0  0  0
  3  6  1  0  0  0  0
  6  8  1  0  0  0  0
  7 10  1  0  0  0  0
  8 11  1  0  0  0  0
  9 12  1  0  0  0  0
 10 13  1  0  0  0  0
M  CHG  1   4  -1
M  END
>  <CHROM.1>
-175.54326093,-175.88371643,-169.54686780,-177.64631842,66.23148511,-179.75104790
-60.28486492,-176.73165417,-176.04150725,35.40537632,23.29577453,61.20068903
2.75277426,0.30058893,2.69115985

>  <Name>
ligand

>  <RI>
0

>  <Rbt.Current_Directory>
/home/itssahil/PROJECTS/Mol_Feturizer/New_Systems/rnas/3GS8

>  <Rbt.Executable>
rbdock ($Id: //depot/dev/client3/rdock/2013.1/src/exe/rbdock.cxx#4 $)

>  <Rbt.Library>
libRbt.so (2013.1, Build901 2013/11/27)

>  <Rbt.Parameter_File>
/export/apps/rDock/src/rDock_2013.1_src/data/scripts/dock_solv.prm

>  <Rbt.Receptor>
prm/blind_docking_100.prm

>  <SCORE>
-16.0724

>  <SCORE.INTER>
-0.0665419

>  <SCORE.INTER.CONST>
1

>  <SCORE.INTER.POLAR>
0

>  <SCORE.INTER.ROT>
9

>  <SCORE.INTER.SOLV>
12.5561

>  <SCORE.INTER.VDW>
-13.8297

>  <SCORE.INTER.norm>
-0.00511861

>  <SCORE.INTRA>
-16.0069

>  <SCORE.INTRA.DIHEDRAL>
-30.7677

>  <SCORE.INTRA.DIHEDRAL.0>
31.9578

>  <SCORE.INTRA.POLAR>
0

>  <SCORE.INTRA.POLAR.0>
0

>  <SCORE.INTRA.REPUL>
0

>  <SCORE.INTRA.REPUL.0>
0

>  <SCORE.INTRA.SOLV>
-1.64753

>  <SCORE.INTRA.SOLV.lig_0>
-48.4032

>  <SCORE.INTRA.VDW>
0.200726

>  <SCORE.INTRA.VDW.0>
-1.65238

>  <SCORE.INTRA.norm>
-1.2313

>  <SCORE.RESTR>
0.0010271

>  <SCORE.RESTR.CAVITY>
0.0010271

>  <SCORE.RESTR.norm>
7.9008e-05

>  <SCORE.SYSTEM>
0

>  <SCORE.SYSTEM.CONST>
0

>  <SCORE.SYSTEM.DIHEDRAL>
0

>  <SCORE.SYSTEM.SOLV>
0

>  <SCORE.SYSTEM.norm>
0

>  <SCORE.heavy>
13

>  <SCORE.norm>
-1.23634

>  <RMSD>
18.333

$$$$
ligand
 OpenBabel11021811473D
libRbt.so/2013.1/901 2013/11/27
 13 12  0  0  0  0  0  0  0  0999 V2000
   35.0625   23.8170   59.6872 O   0  0  0  0  0  0  0  0  0  0  0  0
   37.9292   23.6965   60.2906 O   0  0  0  0  0  0  0  0  0  0  0  0
   31.7304   21.1790   60.6428 P   0  0  1  0  0  0  0  0  0  0  0  0
   32.2011   21.1051   62.0690 O   0  5  0  0  0  0  0  0  0  0  0  0
   30.3992   20.9654   60.1185 O   0  0  0  0  0  0  0  0  0  0  0  0
   32.7211   22.2671   59.9813 O   0  0  0  0  0  0  0  0  0  0  0  0
   39.8231   24.2499   62.3660 O   0  0  0  0  0  0  0  0  0  0  0  0
   32.7982   23.6241   60.4694 C   0  0  0  0  0  0  0  0  0  0  0  0
   37.4098   23.8348   58.9538 C   0  0  0  0  0  0  0  0  0  0  0  0
   39.6948   22.9349   61.7968 C   0  0  0  0  0  0  0  0  0  0  0  0
   33.7805   24.4470   59.6229 C   0  0  0  0  0  0  0  0  0  0  0  0
   36.0564   24.5826   58.9789 C   0  0  0  0  0  0  0  0  0  0  0  0
   39.2070   23.0372   60.3326 C   0  0  0  0  0  0  0  0  0  0  0  0
  1 12  1  0  0  0  0
  1 11  1  0  0  0  0
  2 13  1  0  0  0  0
  2  9  1  0  0  0  0
  3  4  1  1  0  0  0
  3  5  2  0  0  0  0
  3  6  1  0  0  0  0
  6  8  1  0  0  0  0
  7 10  1  0  0  0  0
  8 11  1  0  0  0  0
  9 12  1  0  0  0  0
 10 13  1  0  0  0  0
M  CHG  1   4  -1
M  END
>  <CHROM.1>
-175.24762127,179.75370521,-60.06493870,-177.91909826,-58.79945851,-178.51237112
-64.20846581,-59.87013996,-176.49676090,34.97348010,22.88529021,60.44652557
0.16470817,-0.23991409,-0.82109067

>  <Name>
ligand

>  <RI>
0

>  <Rbt.Current_Directory>
/home/itssahil/PROJECTS/Mol_Feturizer/New_Systems/rnas/3GS8

>  <Rbt.Executable>
rbdock ($Id: //depot/dev/client3/rdock/2013.1/src/exe/rbdock.cxx#4 $)

>  <Rbt.Library>
libRbt.so (2013.1, Build901 2013/11/27)

>  <Rbt.Parameter_File>
/export/apps/rDock/src/rDock_2013.1_src/data/scripts/dock_solv.prm

>  <Rbt.Receptor>
prm/blind_docking_80.prm

>  <SCORE>
-18.0871

>  <SCORE.INTER>
-2.11132

>  <SCORE.INTER.CONST>
1

>  <SCORE.INTER.POLAR>
0

>  <SCORE.INTER.ROT>
9

>  <SCORE.INTER.SOLV>
12.6543

>  <SCORE.INTER.VDW>
-15.2257

>  <SCORE.INTER.norm>
-0.162409

>  <SCORE.INTRA>
-15.9758

>  <SCORE.INTRA.DIHEDRAL>
-31.2194

>  <SCORE.INTRA.DIHEDRAL.0>
31.9578

>  <SCORE.INTRA.POLAR>
0

>  <SCORE.INTRA.POLAR.0>
0

>  <SCORE.INTRA.REPUL>
0

>  <SCORE.INTRA.REPUL.0>
0

>  <SCORE.INTRA.SOLV>
-1.11767

>  <SCORE.INTRA.SOLV.lig_0>
-48.4032

>  <SCORE.INTRA.VDW>
0.192708

>  <SCORE.INTRA.VDW.0>
-1.65238

>  <SCORE.INTRA.norm>
-1.22891

>  <SCORE.RESTR>
0

>  <SCORE.RESTR.CAVITY>
0

>  <SCORE.RESTR.norm>
0

>  <SCORE.SYSTEM>
0

>  <SCORE.SYSTEM.CONST>
0

>  <SCORE.SYSTEM.DIHEDRAL>
0

>  <SCORE.SYSTEM.SOLV>
0

>  <SCORE.SYSTEM.norm>
0

>  <SCORE.heavy>
13

>  <SCORE.norm>
-1.39132

>  <RMSD>
18.358

$$$$
ligand
 OpenBabel11021811473D
libRbt.so/2013.1/901 2013/11/27
 13 12  0  0  0  0  0  0  0  0999 V2000
   31.8395   23.2783   60.3260 O   0  0  0  0  0  0  0  0  0  0  0  0
   31.4651   20.5559   61.4513 O   0  0  0  0  0  0  0  0  0  0  0  0
   36.4296   25.3863   59.8909 P   0  0  1  0  0  0  0  0  0  0  0  0
   36.5177   25.8850   61.3067 O   0  5  0  0  0  0  0  0  0  0  0  0
   37.3589   24.5437   59.1703 O   0  0  0  0  0  0  0  0  0  0  0  0
   34.8404   25.2846   59.6318 O   0  0  0  0  0  0  0  0  0  0  0  0
   32.6348   18.6371   63.2266 O   0  0  0  0  0  0  0  0  0  0  0  0
   34.0644   24.1550   60.0873 C   0  0  0  0  0  0  0  0  0  0  0  0
   30.9762   20.9811   60.1644 C   0  0  0  0  0  0  0  0  0  0  0  0
   31.2800   19.0903   63.3964 C   0  0  0  0  0  0  0  0  0  0  0  0
   32.5878   24.3236   59.7002 C   0  0  0  0  0  0  0  0  0  0  0  0
   31.9107   22.0574   59.5644 C   0  0  0  0  0  0  0  0  0  0  0  0
   30.6823   19.4964   62.0289 C   0  0  0  0  0  0  0  0  0  0  0  0
  1 12  1  0  0  0  0
  1 11  1  0  0  0  0
  2 13  1  0  0  0  0
  2  9  1  0  0  0  0
  3  4  1  1  0  0  0
  3  5  2  0  0  0  0
  3  6  1  0  0  0  0
  6  8  1  0  0  0  0
  7 10  1  0  0  0  0
  8 11  1  0  0  0  0
  9 12  1  0  0  0  0
 10 13  1  0  0  0  0
M  CHG  1   4  -1
M  END
>  <CHROM.1>
-173.80301914,179.41638701,-81.13166445,-179.84347907,-172.29029610,-176.53936412
-68.00468765,-59.89620486,-82.17458862,33.57582223,22.83948984,60.69973067
2.30316695,0.34582000,2.47540514

>  <Name>
ligand

>  <RI>
0

>  <Rbt.Current_Directory>
/home/itssahil/PROJECTS/Mol_Feturizer/New_Systems/rnas/3GS8

>  <Rbt.Executable>
rbdock ($Id: //depot/dev/client3/rdock/2013.1/src/exe/rbdock.cxx#4 $)

>  <Rbt.Library>
libRbt.so (2013.1, Build901 2013/11/27)

>  <Rbt.Parameter_File>
/export/apps/rDock/src/rDock_2013.1_src/data/scripts/dock_solv.prm

>  <Rbt.Receptor>
prm/blind_docking_80.prm

>  <SCORE>
-15.2768

>  <SCORE.INTER>
-1.16986

>  <SCORE.INTER.CONST>
1

>  <SCORE.INTER.POLAR>
0

>  <SCORE.INTER.ROT>
9

>  <SCORE.INTER.SOLV>
12.8101

>  <SCORE.INTER.VDW>
-14.6499

>  <SCORE.INTER.norm>
-0.0899893

>  <SCORE.INTRA>
-14.1069

>  <SCORE.INTRA.DIHEDRAL>
-28.7863

>  <SCORE.INTRA.DIHEDRAL.0>
31.9578

>  <SCORE.INTRA.POLAR>
0

>  <SCORE.INTRA.POLAR.0>
0

>  <SCORE.INTRA.REPUL>
0

>  <SCORE.INTRA.REPUL.0>
0

>  <SCORE.INTRA.SOLV>
-1.31196

>  <SCORE.INTRA.SOLV.lig_0>
-48.4032

>  <SCORE.INTRA.VDW>
0.942196

>  <SCORE.INTRA.VDW.0>
-1.65238

>  <SCORE.INTRA.norm>
-1.08515

>  <SCORE.RESTR>
0

>  <SCORE.RESTR.CAVITY>
0

>  <SCORE.RESTR.norm>
0

>  <SCORE.SYSTEM>
0

>  <SCORE.SYSTEM.CONST>
0

>  <SCORE.SYSTEM.DIHEDRAL>
0

>  <SCORE.SYSTEM.SOLV>
0

>  <SCORE.SYSTEM.norm>
0

>  <SCORE.heavy>
13

>  <SCORE.norm>
-1.17514

>  <RMSD>
18.361

$$$$
ligand
 OpenBabel11021811473D
libRbt.so/2013.1/901 2013/11/27
 13 12  0  0  0  0  0  0  0  0999 V2000
   34.8369   24.3589   60.0223 O   0  0  0  0  0  0  0  0  0  0  0  0
   32.9674   22.4513   61.1292 O   0  0  0  0  0  0  0  0  0  0  0  0
   38.5728   24.9328   62.2579 P   0  0  1  0  0  0  0  0  0  0  0  0
   38.3308   25.0917   63.7334 O   0  5  0  0  0  0  0  0  0  0  0  0
   39.5851   24.1459   61.5878 O   0  0  0  0  0  0  0  0  0  0  0  0
   37.1025   25.1157   61.6191 O   0  0  0  0  0  0  0  0  0  0  0  0
   32.1482   19.2940   62.8776 O   0  0  0  0  0  0  0  0  0  0  0  0
   36.9126   25.5478   60.2543 C   0  0  0  0  0  0  0  0  0  0  0  0
   32.8201   22.9703   59.7932 C   0  0  0  0  0  0  0  0  0  0  0  0
   32.7005   20.6123   62.7144 C   0  0  0  0  0  0  0  0  0  0  0  0
   35.4162   25.6626   59.9281 C   0  0  0  0  0  0  0  0  0  0  0  0
   33.4336   24.3866   59.6972 C   0  0  0  0  0  0  0  0  0  0  0  0
   32.4298   21.1257   61.2807 C   0  0  0  0  0  0  0  0  0  0  0  0
  1 12  1  0  0  0  0
  1 11  1  0  0  0  0
  2 13  1  0  0  0  0
  2  9  1  0  0  0  0
  3  4  1  1  0  0  0
  3  5  2  0  0  0  0
  3  6  1  0  0  0  0
  6  8  1  0  0  0  0
  7 10  1  0  0  0  0
  8 11  1  0  0  0  0
  9 12  1  0  0  0  0
 10 13  1  0  0  0  0
M  CHG  1   4  -1
M  END
>  <CHROM.1>
179.61899850,176.72846832,155.69246439,-178.79224993,-63.87505584,-179.27585650
59.97292661,179.19106123,-178.66757565,35.48314503,23.62292854,61.40618582
2.76234119,0.45969619,2.39119527

>  <Name>
ligand

>  <RI>
0

>  <Rbt.Current_Directory>
/home/itssahil/PROJECTS/Mol_Feturizer/New_Systems/rnas/3GS8

>  <Rbt.Executable>
rbdock ($Id: //depot/dev/client3/rdock/2013.1/src/exe/rbdock.cxx#4 $)

>  <Rbt.Library>
libRbt.so (2013.1, Build901 2013/11/27)

>  <Rbt.Parameter_File>
/export/apps/rDock/src/rDock_2013.1_src/data/scripts/dock_solv.prm

>  <Rbt.Receptor>
prm/blind_docking_80.prm

>  <SCORE>
-16.7181

>  <SCORE.INTER>
-0.236535

>  <SCORE.INTER.CONST>
1

>  <SCORE.INTER.POLAR>
0

>  <SCORE.INTER.ROT>
9

>  <SCORE.INTER.SOLV>
9.49235

>  <SCORE.INTER.VDW>
-12.9218

>  <SCORE.INTER.norm>
-0.018195

>  <SCORE.INTRA>
-16.4816

>  <SCORE.INTRA.DIHEDRAL>
-31.503

>  <SCORE.INTRA.DIHEDRAL.0>
31.9578

>  <SCORE.INTRA.POLAR>
0

>  <SCORE.INTRA.POLAR.0>
0

>  <SCORE.INTRA.REPUL>
0

>  <SCORE.INTRA.REPUL.0>
0

>  <SCORE.INTRA.SOLV>
-1.74857

>  <SCORE.INTRA.SOLV.lig_0>
-48.4032

>  <SCORE.INTRA.VDW>
0.144219

>  <SCORE.INTRA.VDW.0>
-1.65238

>  <SCORE.INTRA.norm>
-1.26781

>  <SCORE.RESTR>
0

>  <SCORE.RESTR.CAVITY>
0

>  <SCORE.RESTR.norm>
0

>  <SCORE.SYSTEM>
0

>  <SCORE.SYSTEM.CONST>
0

>  <SCORE.SYSTEM.DIHEDRAL>
0

>  <SCORE.SYSTEM.SOLV>
0

>  <SCORE.SYSTEM.norm>
0

>  <SCORE.heavy>
13

>  <SCORE.norm>
-1.28601

>  <RMSD>
18.364

$$$$
ligand
 OpenBabel11021811473D
libRbt.so/2013.1/901 2013/11/27
 13 12  0  0  0  0  0  0  0  0999 V2000
   34.9759   23.8588   59.4259 O   0  0  0  0  0  0  0  0  0  0  0  0
   32.9871   22.3430   60.8168 O   0  0  0  0  0  0  0  0  0  0  0  0
   37.0466   24.7949   63.1355 P   0  0  1  0  0  0  0  0  0  0  0  0
   38.3951   25.4562   63.0621 O   0  5  0  0  0  0  0  0  0  0  0  0
   35.9934   24.9959   64.1066 O   0  0  0  0  0  0  0  0  0  0  0  0
   36.7053   24.4764   61.5910 O   0  0  0  0  0  0  0  0  0  0  0  0
   31.7055   19.1359   62.1465 O   0  0  0  0  0  0  0  0  0  0  0  0
   36.1984   25.4913   60.6973 C   0  0  0  0  0  0  0  0  0  0  0  0
   32.6159   23.2569   59.7667 C   0  0  0  0  0  0  0  0  0  0  0  0
   32.5849   20.2699   62.0442 C   0  0  0  0  0  0  0  0  0  0  0  0
   35.9447   24.9029   59.3015 C   0  0  0  0  0  0  0  0  0  0  0  0
   33.6577   24.3941   59.6521 C   0  0  0  0  0  0  0  0  0  0  0  0
   32.0845   21.2296   60.9393 C   0  0  0  0  0  0  0  0  0  0  0  0
  1 12  1  0  0  0  0
  1 11  1  0  0  0  0
  2 13  1  0  0  0  0
  2  9  1  0  0  0  0
  3  4  1  6  0  0  0
  3  5  2  0  0  0  0
  3  6  1  0  0  0  0
  6  8  1  0  0  0  0
  7 10  1  0  0  0  0
  8 11  1  0  0  0  0
  9 12  1  0  0  0  0
 10 13  1  0  0  0  0
M  CHG  1   4  -1
M  END
>  <CHROM.1>
179.26431914,177.64072407,-79.84083828,-179.15005566,60.42112714,-177.64274581
56.80772420,-178.45796037,73.78890625,34.89867524,23.53767441,61.46437409
2.99808756,0.72801041,2.07743468

>  <Name>
ligand

>  <RI>
0

>  <Rbt.Current_Directory>
/home/itssahil/PROJECTS/Mol_Feturizer/New_Systems/rnas/3GS8

>  <Rbt.Executable>
rbdock ($Id: //depot/dev/client3/rdock/2013.1/src/exe/rbdock.cxx#4 $)

>  <Rbt.Library>
libRbt.so (2013.1, Build901 2013/11/27)

>  <Rbt.Parameter_File>
/export/apps/rDock/src/rDock_2013.1_src/data/scripts/dock_solv.prm

>  <Rbt.Receptor>
prm/blind_docking_80.prm

>  <SCORE>
-15.3673

>  <SCORE.INTER>
-0.560811

>  <SCORE.INTER.CONST>
1

>  <SCORE.INTER.POLAR>
0

>  <SCORE.INTER.ROT>
9

>  <SCORE.INTER.SOLV>
9.57521

>  <SCORE.INTER.VDW>
-13.1656

>  <SCORE.INTER.norm>
-0.0431393

>  <SCORE.INTRA>
-14.8065

>  <SCORE.INTRA.DIHEDRAL>
-30.6613

>  <SCORE.INTRA.DIHEDRAL.0>
31.9578

>  <SCORE.INTRA.POLAR>
0

>  <SCORE.INTRA.POLAR.0>
0

>  <SCORE.INTRA.REPUL>
0

>  <SCORE.INTRA.REPUL.0>
0

>  <SCORE.INTRA.SOLV>
-1.38417

>  <SCORE.INTRA.SOLV.lig_0>
-48.4032

>  <SCORE.INTRA.VDW>
1.21625

>  <SCORE.INTRA.VDW.0>
-1.65238

>  <SCORE.INTRA.norm>
-1.13896

>  <SCORE.RESTR>
0

>  <SCORE.RESTR.CAVITY>
0

>  <SCORE.RESTR.norm>
0

>  <SCORE.SYSTEM>
0

>  <SCORE.SYSTEM.CONST>
0

>  <SCORE.SYSTEM.DIHEDRAL>
0

>  <SCORE.SYSTEM.SOLV>
0

>  <SCORE.SYSTEM.norm>
0

>  <SCORE.heavy>
13

>  <SCORE.norm>
-1.1821

>  <RMSD>
18.378

$$$$
ligand
 OpenBabel11021811473D
libRbt.so/2013.1/901 2013/11/27
 13 12  0  0  0  0  0  0  0  0999 V2000
   34.8831   24.2025   59.9977 O   0  0  0  0  0  0  0  0  0  0  0  0
   33.0538   22.3323   61.2038 O   0  0  0  0  0  0  0  0  0  0  0  0
   38.7241   24.4500   62.0728 P   0  0  1  0  0  0  0  0  0  0  0  0
   39.3291   23.5173   61.0603 O   0  5  0  0  0  0  0  0  0  0  0  0
   39.3817   25.4468   62.8894 O   0  0  0  0  0  0  0  0  0  0  0  0
   37.2296   24.6865   61.5126 O   0  0  0  0  0  0  0  0  0  0  0  0
   32.2474   19.1871   62.9795 O   0  0  0  0  0  0  0  0  0  0  0  0
   36.9837   25.3426   60.2498 C   0  0  0  0  0  0  0  0  0  0  0  0
   32.8121   22.8803   59.8933 C   0  0  0  0  0  0  0  0  0  0  0  0
   32.7871   20.5095   62.8075 C   0  0  0  0  0  0  0  0  0  0  0  0
   35.4753   25.5038   60.0105 C   0  0  0  0  0  0  0  0  0  0  0  0
   33.4629   24.2775   59.7677 C   0  0  0  0  0  0  0  0  0  0  0  0
   32.4866   21.0222   61.3796 C   0  0  0  0  0  0  0  0  0  0  0  0
  1 12  1  0  0  0  0
  1 11  1  0  0  0  0
  2 13  1  0  0  0  0
  2  9  1  0  0  0  0
  3  4  1  6  0  0  0
  3  5  2  0  0  0  0
  3  6  1  0  0  0  0
  6  8  1  0  0  0  0
  7 10  1  0  0  0  0
  8 11  1  0  0  0  0
  9 12  1  0  0  0  0
 10 13  1  0  0  0  0
M  CHG  1   4  -1
M  END
>  <CHROM.1>
-174.45809797,-179.86915860,-64.19666165,-176.67259094,-59.97642724,-179.26503389
58.86166568,-178.74089046,-179.61435983,35.61237787,23.41877607,61.30780550
2.71739948,0.36904706,2.46334042

>  <Name>
ligand

>  <RI>
0

>  <Rbt.Current_Directory>
/home/itssahil/PROJECTS/Mol_Feturizer/New_Systems/rnas/3GS8

>  <Rbt.Executable>
rbdock ($Id: //depot/dev/client3/rdock/2013.1/src/exe/rbdock.cxx#4 $)

>  <Rbt.Library>
libRbt.so (2013.1, Build901 2013/11/27)

>  <Rbt.Parameter_File>
/export/apps/rDock/src/rDock_2013.1_src/data/scripts/dock_solv.prm

>  <Rbt.Receptor>
prm/blind_docking_80.prm

>  <SCORE>
-16.9574

>  <SCORE.INTER>
-0.788694

>  <SCORE.INTER.CONST>
1

>  <SCORE.INTER.POLAR>
0

>  <SCORE.INTER.ROT>
9

>  <SCORE.INTER.SOLV>
9.74573

>  <SCORE.INTER.VDW>
-13.3744

>  <SCORE.INTER.norm>
-0.0606688

>  <SCORE.INTRA>
-16.1687

>  <SCORE.INTRA.DIHEDRAL>
-31.3527

>  <SCORE.INTRA.DIHEDRAL.0>
31.9578

>  <SCORE.INTRA.POLAR>
0

>  <SCORE.INTRA.POLAR.0>
0

>  <SCORE.INTRA.REPUL>
0

>  <SCORE.INTRA.REPUL.0>
0

>  <SCORE.INTRA.SOLV>
-1.38183

>  <SCORE.INTRA.SOLV.lig_0>
-48.4032

>  <SCORE.INTRA.VDW>
0.198587

>  <SCORE.INTRA.VDW.0>
-1.65238

>  <SCORE.INTRA.norm>
-1.24375

>  <SCORE.RESTR>
0

>  <SCORE.RESTR.CAVITY>
0

>  <SCORE.RESTR.norm>
0

>  <SCORE.SYSTEM>
0

>  <SCORE.SYSTEM.CONST>
0

>  <SCORE.SYSTEM.DIHEDRAL>
0

>  <SCORE.SYSTEM.SOLV>
0

>  <SCORE.SYSTEM.norm>
0

>  <SCORE.heavy>
13

>  <SCORE.norm>
-1.30441

>  <RMSD>
18.410

$$$$
ligand
 OpenBabel11021811473D
libRbt.so/2013.1/901 2013/11/27
 13 12  0  0  0  0  0  0  0  0999 V2000
   34.7162   23.8222   59.4112 O   0  0  0  0  0  0  0  0  0  0  0  0
   37.6437   23.5182   59.4199 O   0  0  0  0  0  0  0  0  0  0  0  0
   32.0766   20.6967   61.2100 P   0  0  1  0  0  0  0  0  0  0  0  0
   32.6668   20.2113   62.5050 O   0  5  0  0  0  0  0  0  0  0  0  0
   30.7404   20.4943   60.6940 O   0  0  0  0  0  0  0  0  0  0  0  0
   32.8794   22.0674   60.9273 O   0  0  0  0  0  0  0  0  0  0  0  0
   39.7383   23.1472   62.4483 O   0  0  0  0  0  0  0  0  0  0  0  0
   32.5178   22.9536   59.8458 C   0  0  0  0  0  0  0  0  0  0  0  0
   36.9565   24.5965   58.7559 C   0  0  0  0  0  0  0  0  0  0  0  0
   39.0637   22.7349   61.2465 C   0  0  0  0  0  0  0  0  0  0  0  0
   33.4103   24.2035   59.8512 C   0  0  0  0  0  0  0  0  0  0  0  0
   35.6376   24.9266   59.4929 C   0  0  0  0  0  0  0  0  0  0  0  0
   38.2897   23.9278   60.6382 C   0  0  0  0  0  0  0  0  0  0  0  0
  1 12  1  0  0  0  0
  1 11  1  0  0  0  0
  2 13  1  0  0  0  0
  2  9  1  0  0  0  0
  3  4  1  1  0  0  0
  3  5  2  0  0  0  0
  3  6  1  0  0  0  0
  6  8  1  0  0  0  0
  7 10  1  0  0  0  0
  8 11  1  0  0  0  0
  9 12  1  0  0  0  0
 10 13  1  0  0  0  0
M  CHG  1   4  -1
M  END
>  <CHROM.1>
-168.51153026,-176.99752418,-172.75717859,177.58200568,72.21497389,-75.42582935
-65.36039325,178.62351096,-175.40172519,34.83907621,22.65789687,60.57588983
0.33658710,-0.21894689,-0.73358452

>  <Name>
ligand

>  <RI>
0

>  <Rbt.Current_Directory>
/home/itssahil/PROJECTS/Mol_Feturizer/New_Systems/rnas/3GS8

>  <Rbt.Executable>
rbdock ($Id: //depot/dev/client3/rdock/2013.1/src/exe/rbdock.cxx#4 $)

>  <Rbt.Library>
libRbt.so (2013.1, Build901 2013/11/27)

>  <Rbt.Parameter_File>
/export/apps/rDock/src/rDock_2013.1_src/data/scripts/dock_solv.prm

>  <Rbt.Receptor>
prm/blind_docking_80.prm

>  <SCORE>
-15.7128

>  <SCORE.INTER>
-1.4049

>  <SCORE.INTER.CONST>
1

>  <SCORE.INTER.POLAR>
0

>  <SCORE.INTER.ROT>
9

>  <SCORE.INTER.SOLV>
13.422

>  <SCORE.INTER.VDW>
-15.0106

>  <SCORE.INTER.norm>
-0.10807

>  <SCORE.INTRA>
-14.3079

>  <SCORE.INTRA.DIHEDRAL>
-28.7426

>  <SCORE.INTRA.DIHEDRAL.0>
31.9578

>  <SCORE.INTRA.POLAR>
0

>  <SCORE.INTRA.POLAR.0>
0

>  <SCORE.INTRA.REPUL>
0

>  <SCORE.INTRA.REPUL.0>
0

>  <SCORE.INTRA.SOLV>
-1.67281

>  <SCORE.INTRA.SOLV.lig_0>
-48.4032

>  <SCORE.INTRA.VDW>
0.899788

>  <SCORE.INTRA.VDW.0>
-1.65238

>  <SCORE.INTRA.norm>
-1.10061

>  <SCORE.RESTR>
0

>  <SCORE.RESTR.CAVITY>
0

>  <SCORE.RESTR.norm>
0

>  <SCORE.SYSTEM>
0

>  <SCORE.SYSTEM.CONST>
0

>  <SCORE.SYSTEM.DIHEDRAL>
0

>  <SCORE.SYSTEM.SOLV>
0

>  <SCORE.SYSTEM.norm>
0

>  <SCORE.heavy>
13

>  <SCORE.norm>
-1.20868

>  <RMSD>
18.423

$$$$
ligand
 OpenBabel11021811473D
libRbt.so/2013.1/901 2013/11/27
 13 12  0  0  0  0  0  0  0  0999 V2000
   35.1107   24.2273   60.0352 O   0  0  0  0  0  0  0  0  0  0  0  0
   37.5949   24.9551   61.2663 O   0  0  0  0  0  0  0  0  0  0  0  0
   32.0498   23.0755   62.9215 P   0  0  1  0  0  0  0  0  0  0  0  0
   32.5683   21.6672   62.8272 O   0  5  0  0  0  0  0  0  0  0  0  0
   31.5104   23.7645   64.0736 O   0  0  0  0  0  0  0  0  0  0  0  0
   32.9121   23.8634   61.8086 O   0  0  0  0  0  0  0  0  0  0  0  0
   39.3024   22.7295   60.3462 O   0  0  0  0  0  0  0  0  0  0  0  0
   32.8441   23.5200   60.4075 C   0  0  0  0  0  0  0  0  0  0  0  0
   37.4766   24.8674   59.8330 C   0  0  0  0  0  0  0  0  0  0  0  0
   39.2234   23.1889   61.7072 C   0  0  0  0  0  0  0  0  0  0  0  0
   33.7689   24.4283   59.5839 C   0  0  0  0  0  0  0  0  0  0  0  0
   36.0191   25.1455   59.3971 C   0  0  0  0  0  0  0  0  0  0  0  0
   38.9314   24.7074   61.7371 C   0  0  0  0  0  0  0  0  0  0  0  0
  1 12  1  0  0  0  0
  1 11  1  0  0  0  0
  2 13  1  0  0  0  0
  2  9  1  0  0  0  0
  3  4  1  1  0  0  0
  3  5  2  0  0  0  0
  3  6  1  0  0  0  0
  6  8  1  0  0  0  0
  7 10  1  0  0  0  0
  8 11  1  0  0  0  0
  9 12  1  0  0  0  0
 10 13  1  0  0  0  0
M  CHG  1   4  -1
M  END
>  <CHROM.1>
-176.85093011,-76.92594347,61.94926581,-179.82884102,61.32010406,-179.92794746
-57.35227246,68.83530629,-174.27276200,35.04032451,23.77611493,61.39054826
0.33103027,0.01633454,-1.08937555

>  <Name>
ligand

>  <RI>
0

>  <Rbt.Current_Directory>
/home/itssahil/PROJECTS/Mol_Feturizer/New_Systems/rnas/3GS8

>  <Rbt.Executable>
rbdock ($Id: //depot/dev/client3/rdock/2013.1/src/exe/rbdock.cxx#4 $)

>  <Rbt.Library>
libRbt.so (2013.1, Build901 2013/11/27)

>  <Rbt.Parameter_File>
/export/apps/rDock/src/rDock_2013.1_src/data/scripts/dock_solv.prm

>  <Rbt.Receptor>
prm/blind_docking_100.prm

>  <SCORE>
-15.0539

>  <SCORE.INTER>
-0.92826

>  <SCORE.INTER.CONST>
1

>  <SCORE.INTER.POLAR>
0

>  <SCORE.INTER.ROT>
9

>  <SCORE.INTER.SOLV>
5.8011

>  <SCORE.INTER.VDW>
-12.1525

>  <SCORE.INTER.norm>
-0.0714046

>  <SCORE.INTRA>
-14.1257

>  <SCORE.INTRA.DIHEDRAL>
-29.5957

>  <SCORE.INTRA.DIHEDRAL.0>
31.9578

>  <SCORE.INTRA.POLAR>
0

>  <SCORE.INTRA.POLAR.0>
0

>  <SCORE.INTRA.REPUL>
0

>  <SCORE.INTRA.REPUL.0>
0

>  <SCORE.INTRA.SOLV>
-0.963792

>  <SCORE.INTRA.SOLV.lig_0>
-48.4032

>  <SCORE.INTRA.VDW>
1.1541

>  <SCORE.INTRA.VDW.0>
-1.65238

>  <SCORE.INTRA.norm>
-1.08659

>  <SCORE.RESTR>
0

>  <SCORE.RESTR.CAVITY>
0

>  <SCORE.RESTR.norm>
0

>  <SCORE.SYSTEM>
0

>  <SCORE.SYSTEM.CONST>
0

>  <SCORE.SYSTEM.DIHEDRAL>
0

>  <SCORE.SYSTEM.SOLV>
0

>  <SCORE.SYSTEM.norm>
0

>  <SCORE.heavy>
13

>  <SCORE.norm>
-1.15799

>  <RMSD>
18.464

$$$$
ligand
 OpenBabel11021811473D
libRbt.so/2013.1/901 2013/11/27
 13 12  0  0  0  0  0  0  0  0999 V2000
   35.0180   24.1081   60.0335 O   0  0  0  0  0  0  0  0  0  0  0  0
   37.7741   23.3602   59.5107 O   0  0  0  0  0  0  0  0  0  0  0  0
   31.9703   22.7755   62.8558 P   0  0  1  0  0  0  0  0  0  0  0  0
   30.5712   23.3120   62.7310 O   0  5  0  0  0  0  0  0  0  0  0  0
   32.3976   21.4414   63.2169 O   0  0  0  0  0  0  0  0  0  0  0  0
   32.8015   23.6557   61.7892 O   0  0  0  0  0  0  0  0  0  0  0  0
   38.8188   23.9890   62.1751 O   0  0  0  0  0  0  0  0  0  0  0  0
   32.7519   23.3828   60.3720 C   0  0  0  0  0  0  0  0  0  0  0  0
   37.3919   24.7144   59.8206 C   0  0  0  0  0  0  0  0  0  0  0  0
   39.1207   22.7760   61.4630 C   0  0  0  0  0  0  0  0  0  0  0  0
   33.6741   24.3422   59.6052 C   0  0  0  0  0  0  0  0  0  0  0  0
   35.9414   24.9821   59.3559 C   0  0  0  0  0  0  0  0  0  0  0  0
   39.1095   23.0401   59.9391 C   0  0  0  0  0  0  0  0  0  0  0  0
  1 12  1  0  0  0  0
  1 11  1  0  0  0  0
  2 13  1  0  0  0  0
  2  9  1  0  0  0  0
  3  4  1  6  0  0  0
  3  5  2  0  0  0  0
  3  6  1  0  0  0  0
  6  8  1  0  0  0  0
  7 10  1  0  0  0  0
  8 11  1  0  0  0  0
  9 12  1  0  0  0  0
 10 13  1  0  0  0  0
M  CHG  1   4  -1
M  END
>  <CHROM.1>
-179.66809919,77.87843336,-78.32458935,-178.03517703,62.90691122,-179.02397342
61.23018182,-66.63112314,-179.75154317,34.88787508,23.45646805,61.17248791
0.31772750,0.05432419,-1.03065453

>  <Name>
ligand

>  <RI>
0

>  <Rbt.Current_Directory>
/home/itssahil/PROJECTS/Mol_Feturizer/New_Systems/rnas/3GS8

>  <Rbt.Executable>
rbdock ($Id: //depot/dev/client3/rdock/2013.1/src/exe/rbdock.cxx#4 $)

>  <Rbt.Library>
libRbt.so (2013.1, Build901 2013/11/27)

>  <Rbt.Parameter_File>
/export/apps/rDock/src/rDock_2013.1_src/data/scripts/dock_solv.prm

>  <Rbt.Receptor>
prm/blind_docking_80.prm

>  <SCORE>
-16.1944

>  <SCORE.INTER>
-1.79529

>  <SCORE.INTER.CONST>
1

>  <SCORE.INTER.POLAR>
0

>  <SCORE.INTER.ROT>
9

>  <SCORE.INTER.SOLV>
6.38432

>  <SCORE.INTER.VDW>
-12.925

>  <SCORE.INTER.norm>
-0.1381

>  <SCORE.INTRA>
-14.3991

>  <SCORE.INTRA.DIHEDRAL>
-29.9818

>  <SCORE.INTRA.DIHEDRAL.0>
31.9578

>  <SCORE.INTRA.POLAR>
0

>  <SCORE.INTRA.POLAR.0>
0

>  <SCORE.INTRA.REPUL>
0

>  <SCORE.INTRA.REPUL.0>
0

>  <SCORE.INTRA.SOLV>
-0.855941

>  <SCORE.INTRA.SOLV.lig_0>
-48.4032

>  <SCORE.INTRA.VDW>
1.01982

>  <SCORE.INTRA.VDW.0>
-1.65238

>  <SCORE.INTRA.norm>
-1.10762

>  <SCORE.RESTR>
0

>  <SCORE.RESTR.CAVITY>
0

>  <SCORE.RESTR.norm>
0

>  <SCORE.SYSTEM>
0

>  <SCORE.SYSTEM.CONST>
0

>  <SCORE.SYSTEM.DIHEDRAL>
0

>  <SCORE.SYSTEM.SOLV>
0

>  <SCORE.SYSTEM.norm>
0

>  <SCORE.heavy>
13

>  <SCORE.norm>
-1.24572

>  <RMSD>
18.464

$$$$
ligand
 OpenBabel11021811473D
libRbt.so/2013.1/901 2013/11/27
 13 12  0  0  0  0  0  0  0  0999 V2000
   38.5163   22.4761   57.6913 O   0  0  0  0  0  0  0  0  0  0  0  0
   41.4009   21.9592   55.4047 O   0  0  0  0  0  0  0  0  0  0  0  0
   36.0396   25.1281   60.1959 P   0  0  1  0  0  0  0  0  0  0  0  0
   35.1286   24.0186   60.6430 O   0  5  0  0  0  0  0  0  0  0  0  0
   36.3138   26.3901   60.8477 O   0  0  0  0  0  0  0  0  0  0  0  0
   37.1854   24.3546   59.3639 O   0  0  0  0  0  0  0  0  0  0  0  0
   44.0832   22.4105   54.3127 O   0  0  0  0  0  0  0  0  0  0  0  0
   37.8511   23.1855   59.8890 C   0  0  0  0  0  0  0  0  0  0  0  0
   40.4082   21.6015   56.3857 C   0  0  0  0  0  0  0  0  0  0  0  0
   43.2517   21.2917   53.9573 C   0  0  0  0  0  0  0  0  0  0  0  0
   39.0298   22.7862   58.9891 C   0  0  0  0  0  0  0  0  0  0  0  0
   39.4703   22.7999   56.6614 C   0  0  0  0  0  0  0  0  0  0  0  0
   42.3461   20.9052   55.1501 C   0  0  0  0  0  0  0  0  0  0  0  0
  1 12  1  0  0  0  0
  1 11  1  0  0  0  0
  2 13  1  0  0  0  0
  2  9  1  0  0  0  0
  3  4  1  1  0  0  0
  3  5  2  0  0  0  0
  3  6  1  0  0  0  0
  6  8  1  0  0  0  0
  7 10  1  0  0  0  0
  8 11  1  0  0  0  0
  9 12  1  0  0  0  0
 10 13  1  0  0  0  0
M  CHG  1   4  -1
M  END
>  <CHROM.1>
88.91930527,172.30400910,-48.52025329,-171.47360985,-61.09611254,177.20064031
-177.03801310,66.72523131,148.55766710,39.01697072,23.22495857,57.87920890
0.51041212,-0.62073563,-2.90227219

>  <Name>
ligand

>  <RI>
0

>  <Rbt.Current_Directory>
/home/itssahil/PROJECTS/Mol_Feturizer/New_Systems/rnas/3GS8

>  <Rbt.Executable>
rbdock ($Id: //depot/dev/client3/rdock/2013.1/src/exe/rbdock.cxx#4 $)

>  <Rbt.Library>
libRbt.so (2013.1, Build901 2013/11/27)

>  <Rbt.Parameter_File>
/export/apps/rDock/src/rDock_2013.1_src/data/scripts/dock_solv.prm

>  <Rbt.Receptor>
prm/blind_docking_100.prm

>  <SCORE>
-7.15926

>  <SCORE.INTER>
4.26747

>  <SCORE.INTER.CONST>
1

>  <SCORE.INTER.POLAR>
0

>  <SCORE.INTER.ROT>
9

>  <SCORE.INTER.SOLV>
18.8806

>  <SCORE.INTER.VDW>
-13.0485

>  <SCORE.INTER.norm>
0.328267

>  <SCORE.INTRA>
-11.4267

>  <SCORE.INTRA.DIHEDRAL>
-23.057

>  <SCORE.INTRA.DIHEDRAL.0>
31.9578

>  <SCORE.INTRA.POLAR>
0

>  <SCORE.INTRA.POLAR.0>
0

>  <SCORE.INTRA.REPUL>
0

>  <SCORE.INTRA.REPUL.0>
0

>  <SCORE.INTRA.SOLV>
-1.3151

>  <SCORE.INTRA.SOLV.lig_0>
-48.4032

>  <SCORE.INTRA.VDW>
0.759341

>  <SCORE.INTRA.VDW.0>
-1.65238

>  <SCORE.INTRA.norm>
-0.878979

>  <SCORE.RESTR>
0

>  <SCORE.RESTR.CAVITY>
0

>  <SCORE.RESTR.norm>
0

>  <SCORE.SYSTEM>
0

>  <SCORE.SYSTEM.CONST>
0

>  <SCORE.SYSTEM.DIHEDRAL>
0

>  <SCORE.SYSTEM.SOLV>
0

>  <SCORE.SYSTEM.norm>
0

>  <SCORE.heavy>
13

>  <SCORE.norm>
-0.550712

>  <RMSD>
18.479

$$$$
ligand
 OpenBabel11021811473D
libRbt.so/2013.1/901 2013/11/27
 13 12  0  0  0  0  0  0  0  0999 V2000
   34.7065   23.7591   59.5536 O   0  0  0  0  0  0  0  0  0  0  0  0
   37.5869   23.7871   60.4096 O   0  0  0  0  0  0  0  0  0  0  0  0
   31.8630   20.8870   61.2854 P   0  0  1  0  0  0  0  0  0  0  0  0
   32.5574   20.3636   62.5121 O   0  5  0  0  0  0  0  0  0  0  0  0
   30.4784   20.7325   60.8957 O   0  0  0  0  0  0  0  0  0  0  0  0
   32.6776   22.2378   60.9461 O   0  0  0  0  0  0  0  0  0  0  0  0
   39.4489   23.7816   62.5807 O   0  0  0  0  0  0  0  0  0  0  0  0
   32.4370   22.9897   59.7368 C   0  0  0  0  0  0  0  0  0  0  0  0
   37.0655   24.3527   59.1914 C   0  0  0  0  0  0  0  0  0  0  0  0
   39.4179   22.7131   61.6179 C   0  0  0  0  0  0  0  0  0  0  0  0
   33.3575   24.2175   59.6729 C   0  0  0  0  0  0  0  0  0  0  0  0
   35.6220   24.8624   59.4114 C   0  0  0  0  0  0  0  0  0  0  0  0
   38.9093   23.2421   60.2564 C   0  0  0  0  0  0  0  0  0  0  0  0
  1 12  1  0  0  0  0
  1 11  1  0  0  0  0
  2 13  1  0  0  0  0
  2  9  1  0  0  0  0
  3  4  1  1  0  0  0
  3  5  2  0  0  0  0
  3  6  1  0  0  0  0
  6  8  1  0  0  0  0
  7 10  1  0  0  0  0
  8 11  1  0  0  0  0
  9 12  1  0  0  0  0
 10 13  1  0  0  0  0
M  CHG  1   4  -1
M  END
>  <CHROM.1>
-176.32578859,177.54842323,172.75140691,-179.62102548,65.83647365,177.51813428
-71.57473836,-59.51566622,176.70974407,34.79936595,22.72787856,60.70376397
0.26919820,-0.22140384,-0.76180357

>  <Name>
ligand

>  <RI>
0

>  <Rbt.Current_Directory>
/home/itssahil/PROJECTS/Mol_Feturizer/New_Systems/rnas/3GS8

>  <Rbt.Executable>
rbdock ($Id: //depot/dev/client3/rdock/2013.1/src/exe/rbdock.cxx#4 $)

>  <Rbt.Library>
libRbt.so (2013.1, Build901 2013/11/27)

>  <Rbt.Parameter_File>
/export/apps/rDock/src/rDock_2013.1_src/data/scripts/dock_solv.prm

>  <Rbt.Receptor>
prm/blind_docking_100.prm

>  <SCORE>
-17.9916

>  <SCORE.INTER>
-1.98312

>  <SCORE.INTER.CONST>
1

>  <SCORE.INTER.POLAR>
0

>  <SCORE.INTER.ROT>
9

>  <SCORE.INTER.SOLV>
11.4078

>  <SCORE.INTER.VDW>
-14.7247

>  <SCORE.INTER.norm>
-0.152547

>  <SCORE.INTRA>
-16.0085

>  <SCORE.INTRA.DIHEDRAL>
-30.8158

>  <SCORE.INTRA.DIHEDRAL.0>
31.9578

>  <SCORE.INTRA.POLAR>
0

>  <SCORE.INTRA.POLAR.0>
0

>  <SCORE.INTRA.REPUL>
0

>  <SCORE.INTRA.REPUL.0>
0

>  <SCORE.INTRA.SOLV>
-1.47136

>  <SCORE.INTRA.SOLV.lig_0>
-48.4032

>  <SCORE.INTRA.VDW>
0.135081

>  <SCORE.INTRA.VDW.0>
-1.65238

>  <SCORE.INTRA.norm>
-1.23142

>  <SCORE.RESTR>
0

>  <SCORE.RESTR.CAVITY>
0

>  <SCORE.RESTR.norm>
0

>  <SCORE.SYSTEM>
0

>  <SCORE.SYSTEM.CONST>
0

>  <SCORE.SYSTEM.DIHEDRAL>
0

>  <SCORE.SYSTEM.SOLV>
0

>  <SCORE.SYSTEM.norm>
0

>  <SCORE.heavy>
13

>  <SCORE.norm>
-1.38397

>  <RMSD>
18.513

$$$$
ligand
 OpenBabel11021811473D
libRbt.so/2013.1/901 2013/11/27
 13 12  0  0  0  0  0  0  0  0999 V2000
   34.4968   23.3973   63.1958 O   0  0  0  0  0  0  0  0  0  0  0  0
   35.8788   25.3818   61.7432 O   0  0  0  0  0  0  0  0  0  0  0  0
   32.2788   22.4125   61.3651 P   0  0  1  0  0  0  0  0  0  0  0  0
   31.4592   21.5692   60.4281 O   0  5  0  0  0  0  0  0  0  0  0  0
   32.3293   23.8543   61.4733 O   0  0  0  0  0  0  0  0  0  0  0  0
   32.4353   21.4739   62.6681 O   0  0  0  0  0  0  0  0  0  0  0  0
   37.8392   25.3252   59.7086 O   0  0  0  0  0  0  0  0  0  0  0  0
   33.7298   21.1197   63.2015 C   0  0  0  0  0  0  0  0  0  0  0  0
   35.2609   25.7266   62.9983 C   0  0  0  0  0  0  0  0  0  0  0  0
   36.6068   26.0392   59.5063 C   0  0  0  0  0  0  0  0  0  0  0  0
   34.2964   22.2680   64.0495 C   0  0  0  0  0  0  0  0  0  0  0  0
   35.1430   24.4756   63.8997 C   0  0  0  0  0  0  0  0  0  0  0  0
   36.0387   26.5102   60.8656 C   0  0  0  0  0  0  0  0  0  0  0  0
  1 12  1  0  0  0  0
  1 11  1  0  0  0  0
  2 13  1  0  0  0  0
  2  9  1  0  0  0  0
  3  4  1  1  0  0  0
  3  5  2  0  0  0  0
  3  6  1  0  0  0  0
  6  8  1  0  0  0  0
  7 10  1  0  0  0  0
  8 11  1  0  0  0  0
  9 12  1  0  0  0  0
 10 13  1  0  0  0  0
M  CHG  1   4  -1
M  END
>  <CHROM.1>
-175.84320067,-175.72011786,123.80163323,79.95599960,-63.38725352,-179.00191964
-52.36450227,-55.90626495,-174.69630529,34.25079910,23.68201337,61.86345113
-2.72814652,-0.68436564,-1.27590119

>  <Name>
ligand

>  <RI>
0

>  <Rbt.Current_Directory>
/home/itssahil/PROJECTS/Mol_Feturizer/New_Systems/rnas/3GS8

>  <Rbt.Executable>
rbdock ($Id: //depot/dev/client3/rdock/2013.1/src/exe/rbdock.cxx#4 $)

>  <Rbt.Library>
libRbt.so (2013.1, Build901 2013/11/27)

>  <Rbt.Parameter_File>
/export/apps/rDock/src/rDock_2013.1_src/data/scripts/dock_solv.prm

>  <Rbt.Receptor>
prm/blind_docking_80.prm

>  <SCORE>
-14.1788

>  <SCORE.INTER>
-0.963281

>  <SCORE.INTER.CONST>
1

>  <SCORE.INTER.POLAR>
0

>  <SCORE.INTER.ROT>
9

>  <SCORE.INTER.SOLV>
9.119

>  <SCORE.INTER.VDW>
-13.2819

>  <SCORE.INTER.norm>
-0.0740985

>  <SCORE.INTRA>
-13.2155

>  <SCORE.INTRA.DIHEDRAL>
-28.4716

>  <SCORE.INTRA.DIHEDRAL.0>
31.9578

>  <SCORE.INTRA.POLAR>
0

>  <SCORE.INTRA.POLAR.0>
0

>  <SCORE.INTRA.REPUL>
0

>  <SCORE.INTRA.REPUL.0>
0

>  <SCORE.INTRA.SOLV>
3.11493

>  <SCORE.INTRA.SOLV.lig_0>
-48.4032

>  <SCORE.INTRA.VDW>
-0.537191

>  <SCORE.INTRA.VDW.0>
-1.65238

>  <SCORE.INTRA.norm>
-1.01658

>  <SCORE.RESTR>
0

>  <SCORE.RESTR.CAVITY>
0

>  <SCORE.RESTR.norm>
0

>  <SCORE.SYSTEM>
0

>  <SCORE.SYSTEM.CONST>
0

>  <SCORE.SYSTEM.DIHEDRAL>
0

>  <SCORE.SYSTEM.SOLV>
0

>  <SCORE.SYSTEM.norm>
0

>  <SCORE.heavy>
13

>  <SCORE.norm>
-1.09068

>  <RMSD>
18.536

$$$$
ligand
 OpenBabel11021811473D
libRbt.so/2013.1/901 2013/11/27
 13 12  0  0  0  0  0  0  0  0999 V2000
   32.1157   23.5681   60.4813 O   0  0  0  0  0  0  0  0  0  0  0  0
   34.7102   24.8403   60.7149 O   0  0  0  0  0  0  0  0  0  0  0  0
   31.0384   18.8363   61.9552 P   0  0  1  0  0  0  0  0  0  0  0  0
   30.5189   17.7997   60.9977 O   0  5  0  0  0  0  0  0  0  0  0  0
   31.5183   18.6568   63.3081 O   0  0  0  0  0  0  0  0  0  0  0  0
   31.6875   19.9476   60.9822 O   0  0  0  0  0  0  0  0  0  0  0  0
   36.0603   24.5699   63.1811 O   0  0  0  0  0  0  0  0  0  0  0  0
   31.6284   21.3576   61.2891 C   0  0  0  0  0  0  0  0  0  0  0  0
   34.2051   24.3601   59.4539 C   0  0  0  0  0  0  0  0  0  0  0  0
   36.6057   25.4080   62.1469 C   0  0  0  0  0  0  0  0  0  0  0  0
   32.2595   22.1828   60.1579 C   0  0  0  0  0  0  0  0  0  0  0  0
   32.6593   24.4057   59.4428 C   0  0  0  0  0  0  0  0  0  0  0  0
   36.1466   24.9026   60.7591 C   0  0  0  0  0  0  0  0  0  0  0  0
  1 12  1  0  0  0  0
  1 11  1  0  0  0  0
  2 13  1  0  0  0  0
  2  9  1  0  0  0  0
  3  4  1  6  0  0  0
  3  5  2  0  0  0  0
  3  6  1  0  0  0  0
  6  8  1  0  0  0  0
  7 10  1  0  0  0  0
  8 11  1  0  0  0  0
  9 12  1  0  0  0  0
 10 13  1  0  0  0  0
M  CHG  1   4  -1
M  END
>  <CHROM.1>
-72.91954353,-179.26162068,144.49114768,-177.07143843,177.19998473,-176.31886280
-60.78806249,55.76472647,-178.58737077,32.97264902,22.04283905,61.23515625
0.71652603,-0.70599337,-0.73919641

>  <Name>
ligand

>  <RI>
0

>  <Rbt.Current_Directory>
/home/itssahil/PROJECTS/Mol_Feturizer/New_Systems/rnas/3GS8

>  <Rbt.Executable>
rbdock ($Id: //depot/dev/client3/rdock/2013.1/src/exe/rbdock.cxx#4 $)

>  <Rbt.Library>
libRbt.so (2013.1, Build901 2013/11/27)

>  <Rbt.Parameter_File>
/export/apps/rDock/src/rDock_2013.1_src/data/scripts/dock_solv.prm

>  <Rbt.Receptor>
prm/blind_docking_100.prm

>  <SCORE>
-14.6994

>  <SCORE.INTER>
0.142155

>  <SCORE.INTER.CONST>
1

>  <SCORE.INTER.POLAR>
0

>  <SCORE.INTER.ROT>
9

>  <SCORE.INTER.SOLV>
8.56302

>  <SCORE.INTER.VDW>
-12.3596

>  <SCORE.INTER.norm>
0.010935

>  <SCORE.INTRA>
-14.8416

>  <SCORE.INTRA.DIHEDRAL>
-30.427

>  <SCORE.INTRA.DIHEDRAL.0>
31.9578

>  <SCORE.INTRA.POLAR>
0

>  <SCORE.INTRA.POLAR.0>
0

>  <SCORE.INTRA.REPUL>
0

>  <SCORE.INTRA.REPUL.0>
0

>  <SCORE.INTRA.SOLV>
-1.54523

>  <SCORE.INTRA.SOLV.lig_0>
-48.4032

>  <SCORE.INTRA.VDW>
1.14455

>  <SCORE.INTRA.VDW.0>
-1.65238

>  <SCORE.INTRA.norm>
-1.14166

>  <SCORE.RESTR>
0

>  <SCORE.RESTR.CAVITY>
0

>  <SCORE.RESTR.norm>
0

>  <SCORE.SYSTEM>
0

>  <SCORE.SYSTEM.CONST>
0

>  <SCORE.SYSTEM.DIHEDRAL>
0

>  <SCORE.SYSTEM.SOLV>
0

>  <SCORE.SYSTEM.norm>
0

>  <SCORE.heavy>
13

>  <SCORE.norm>
-1.13072

>  <RMSD>
18.650

$$$$
ligand
 OpenBabel11021811473D
libRbt.so/2013.1/901 2013/11/27
 13 12  0  0  0  0  0  0  0  0999 V2000
   34.6133   24.6106   60.4610 O   0  0  0  0  0  0  0  0  0  0  0  0
   37.5588   24.2998   60.8993 O   0  0  0  0  0  0  0  0  0  0  0  0
   32.2609   21.4037   61.9274 P   0  0  1  0  0  0  0  0  0  0  0  0
   33.3210   20.5190   62.5229 O   0  5  0  0  0  0  0  0  0  0  0  0
   31.0042   21.8242   62.5077 O   0  0  0  0  0  0  0  0  0  0  0  0
   33.0977   22.3822   60.9550 O   0  0  0  0  0  0  0  0  0  0  0  0
   40.6549   23.1184   62.5464 O   0  0  0  0  0  0  0  0  0  0  0  0
   32.4827   23.5108   60.2965 C   0  0  0  0  0  0  0  0  0  0  0  0
   36.8632   25.5548   60.7689 C   0  0  0  0  0  0  0  0  0  0  0  0
   39.5041   23.0496   61.6859 C   0  0  0  0  0  0  0  0  0  0  0  0
   33.5388   24.3445   59.5560 C   0  0  0  0  0  0  0  0  0  0  0  0
   35.6432   25.3970   59.8316 C   0  0  0  0  0  0  0  0  0  0  0  0
   38.7345   24.3907   61.7230 C   0  0  0  0  0  0  0  0  0  0  0  0
  1 12  1  0  0  0  0
  1 11  1  0  0  0  0
  2 13  1  0  0  0  0
  2  9  1  0  0  0  0
  3  4  1  1  0  0  0
  3  5  2  0  0  0  0
  3  6  1  0  0  0  0
  6  8  1  0  0  0  0
  7 10  1  0  0  0  0
  8 11  1  0  0  0  0
  9 12  1  0  0  0  0
 10 13  1  0  0  0  0
M  CHG  1   4  -1
M  END
>  <CHROM.1>
-174.13499993,-173.81834765,-172.37164251,174.11917447,-49.88429887,177.91441170
70.48353414,-177.91295321,-179.78820582,35.06665345,23.21933219,61.28896434
2.88578199,0.16085515,2.53773537

>  <Name>
ligand

>  <RI>
0

>  <Rbt.Current_Directory>
/home/itssahil/PROJECTS/Mol_Feturizer/New_Systems/rnas/3GS8

>  <Rbt.Executable>
rbdock ($Id: //depot/dev/client3/rdock/2013.1/src/exe/rbdock.cxx#4 $)

>  <Rbt.Library>
libRbt.so (2013.1, Build901 2013/11/27)

>  <Rbt.Parameter_File>
/export/apps/rDock/src/rDock_2013.1_src/data/scripts/dock_solv.prm

>  <Rbt.Receptor>
prm/blind_docking_100.prm

>  <SCORE>
-16.2118

>  <SCORE.INTER>
-0.715388

>  <SCORE.INTER.CONST>
1

>  <SCORE.INTER.POLAR>
0

>  <SCORE.INTER.ROT>
9

>  <SCORE.INTER.SOLV>
9.27377

>  <SCORE.INTER.VDW>
-13.1682

>  <SCORE.INTER.norm>
-0.0550298

>  <SCORE.INTRA>
-15.4964

>  <SCORE.INTRA.DIHEDRAL>
-29.9677

>  <SCORE.INTRA.DIHEDRAL.0>
31.9578

>  <SCORE.INTRA.POLAR>
0

>  <SCORE.INTRA.POLAR.0>
0

>  <SCORE.INTRA.REPUL>
0

>  <SCORE.INTRA.REPUL.0>
0

>  <SCORE.INTRA.SOLV>
-1.5451

>  <SCORE.INTRA.SOLV.lig_0>
-48.4032

>  <SCORE.INTRA.VDW>
0.259948

>  <SCORE.INTRA.VDW.0>
-1.65238

>  <SCORE.INTRA.norm>
-1.19203

>  <SCORE.RESTR>
0

>  <SCORE.RESTR.CAVITY>
0

>  <SCORE.RESTR.norm>
0

>  <SCORE.SYSTEM>
0

>  <SCORE.SYSTEM.CONST>
0

>  <SCORE.SYSTEM.DIHEDRAL>
0

>  <SCORE.SYSTEM.SOLV>
0

>  <SCORE.SYSTEM.norm>
0

>  <SCORE.heavy>
13

>  <SCORE.norm>
-1.24706

>  <RMSD>
18.657

$$$$
ligand
 OpenBabel11021811473D
libRbt.so/2013.1/901 2013/11/27
 13 12  0  0  0  0  0  0  0  0999 V2000
   32.2180   23.2563   60.7927 O   0  0  0  0  0  0  0  0  0  0  0  0
   31.1577   20.7453   62.0262 O   0  0  0  0  0  0  0  0  0  0  0  0
   36.1701   25.2185   60.3895 P   0  0  1  0  0  0  0  0  0  0  0  0
   36.2516   26.6499   60.8428 O   0  5  0  0  0  0  0  0  0  0  0  0
   37.1717   24.1797   60.4926 O   0  0  0  0  0  0  0  0  0  0  0  0
   34.5990   24.8764   60.5223 O   0  0  0  0  0  0  0  0  0  0  0  0
   31.4766   17.5115   63.7976 O   0  0  0  0  0  0  0  0  0  0  0  0
   33.8307   24.3761   59.4065 C   0  0  0  0  0  0  0  0  0  0  0  0
   32.4243   20.8700   61.3508 C   0  0  0  0  0  0  0  0  0  0  0  0
   31.4350   18.4060   62.6717 C   0  0  0  0  0  0  0  0  0  0  0  0
   32.3462   24.2600   59.7825 C   0  0  0  0  0  0  0  0  0  0  0  0
   32.3332   21.9341   60.2322 C   0  0  0  0  0  0  0  0  0  0  0  0
   31.2076   19.8570   63.1565 C   0  0  0  0  0  0  0  0  0  0  0  0
  1 12  1  0  0  0  0
  1 11  1  0  0  0  0
  2 13  1  0  0  0  0
  2  9  1  0  0  0  0
  3  4  1  1  0  0  0
  3  5  2  0  0  0  0
  3  6  1  0  0  0  0
  6  8  1  0  0  0  0
  7 10  1  0  0  0  0
  8 11  1  0  0  0  0
  9 12  1  0  0  0  0
 10 13  1  0  0  0  0
M  CHG  1   4  -1
M  END
>  <CHROM.1>
170.78985460,-67.79307078,124.66925474,-174.88923632,-65.78201850,-174.77768984
70.25774500,-179.60932001,-75.85261100,33.54060788,22.71507493,61.13781230
2.18094493,0.25574626,2.59784733

>  <Name>
ligand

>  <RI>
0

>  <Rbt.Current_Directory>
/home/itssahil/PROJECTS/Mol_Feturizer/New_Systems/rnas/3GS8

>  <Rbt.Executable>
rbdock ($Id: //depot/dev/client3/rdock/2013.1/src/exe/rbdock.cxx#4 $)

>  <Rbt.Library>
libRbt.so (2013.1, Build901 2013/11/27)

>  <Rbt.Parameter_File>
/export/apps/rDock/src/rDock_2013.1_src/data/scripts/dock_solv.prm

>  <Rbt.Receptor>
prm/blind_docking_100.prm

>  <SCORE>
-13.5458

>  <SCORE.INTER>
-0.91562

>  <SCORE.INTER.CONST>
1

>  <SCORE.INTER.POLAR>
0

>  <SCORE.INTER.ROT>
9

>  <SCORE.INTER.SOLV>
9.61465

>  <SCORE.INTER.VDW>
-13.4153

>  <SCORE.INTER.norm>
-0.0704323

>  <SCORE.INTRA>
-12.6301

>  <SCORE.INTRA.DIHEDRAL>
-28.2739

>  <SCORE.INTRA.DIHEDRAL.0>
31.9578

>  <SCORE.INTRA.POLAR>
0

>  <SCORE.INTRA.POLAR.0>
0

>  <SCORE.INTRA.REPUL>
0

>  <SCORE.INTRA.REPUL.0>
0

>  <SCORE.INTRA.SOLV>
-1.73423

>  <SCORE.INTRA.SOLV.lig_0>
-48.4032

>  <SCORE.INTRA.VDW>
2.37391

>  <SCORE.INTRA.VDW.0>
-1.65238

>  <SCORE.INTRA.norm>
-0.971549

>  <SCORE.RESTR>
0

>  <SCORE.RESTR.CAVITY>
0

>  <SCORE.RESTR.norm>
0

>  <SCORE.SYSTEM>
0

>  <SCORE.SYSTEM.CONST>
0

>  <SCORE.SYSTEM.DIHEDRAL>
0

>  <SCORE.SYSTEM.SOLV>
0

>  <SCORE.SYSTEM.norm>
0

>  <SCORE.heavy>
13

>  <SCORE.norm>
-1.04198

>  <RMSD>
18.759

$$$$
ligand
 OpenBabel11021811473D
libRbt.so/2013.1/901 2013/11/27
 13 12  0  0  0  0  0  0  0  0999 V2000
   35.2670   25.3049   61.8958 O   0  0  0  0  0  0  0  0  0  0  0  0
   37.2145   24.7219   59.8594 O   0  0  0  0  0  0  0  0  0  0  0  0
   33.9560   21.7675   63.8557 P   0  0  1  0  0  0  0  0  0  0  0  0
   32.6299   21.9680   63.1760 O   0  5  0  0  0  0  0  0  0  0  0  0
   34.6677   20.5322   64.1018 O   0  0  0  0  0  0  0  0  0  0  0  0
   34.7490   23.1349   63.5322 O   0  0  0  0  0  0  0  0  0  0  0  0
   37.6225   21.9031   59.4572 O   0  0  0  0  0  0  0  0  0  0  0  0
   34.2031   24.4298   63.8652 C   0  0  0  0  0  0  0  0  0  0  0  0
   36.4597   25.9491   59.8438 C   0  0  0  0  0  0  0  0  0  0  0  0
   38.2822   22.8909   58.6456 C   0  0  0  0  0  0  0  0  0  0  0  0
   35.0840   25.5500   63.2925 C   0  0  0  0  0  0  0  0  0  0  0  0
   36.0510   26.3459   61.2815 C   0  0  0  0  0  0  0  0  0  0  0  0
   37.4096   24.1642   58.5479 C   0  0  0  0  0  0  0  0  0  0  0  0
  1 12  1  0  0  0  0
  1 11  1  0  0  0  0
  2 13  1  0  0  0  0
  2  9  1  0  0  0  0
  3  4  1  6  0  0  0
  3  5  2  0  0  0  0
  3  6  1  0  0  0  0
  6  8  1  0  0  0  0
  7 10  1  0  0  0  0
  8 11  1  0  0  0  0
  9 12  1  0  0  0  0
 10 13  1  0  0  0  0
M  CHG  1   4  -1
M  END
>  <CHROM.1>
169.71863244,177.32011790,55.34557994,-173.07118578,52.84943804,168.99083976
-58.51317487,61.19533602,178.08783926,35.50739948,23.53893240,61.84054212
0.39523286,0.90829995,-0.02815291

>  <Name>
ligand

>  <RI>
0

>  <Rbt.Current_Directory>
/home/itssahil/PROJECTS/Mol_Feturizer/New_Systems/rnas/3GS8

>  <Rbt.Executable>
rbdock ($Id: //depot/dev/client3/rdock/2013.1/src/exe/rbdock.cxx#4 $)

>  <Rbt.Library>
libRbt.so (2013.1, Build901 2013/11/27)

>  <Rbt.Parameter_File>
/export/apps/rDock/src/rDock_2013.1_src/data/scripts/dock_solv.prm

>  <Rbt.Receptor>
prm/blind_docking_80.prm

>  <SCORE>
-15.6165

>  <SCORE.INTER>
-0.263318

>  <SCORE.INTER.CONST>
1

>  <SCORE.INTER.POLAR>
0

>  <SCORE.INTER.ROT>
9

>  <SCORE.INTER.SOLV>
15.769

>  <SCORE.INTER.VDW>
-15.0319

>  <SCORE.INTER.norm>
-0.0202553

>  <SCORE.INTRA>
-15.3532

>  <SCORE.INTRA.DIHEDRAL>
-29.9959

>  <SCORE.INTRA.DIHEDRAL.0>
31.9578

>  <SCORE.INTRA.POLAR>
0

>  <SCORE.INTRA.POLAR.0>
0

>  <SCORE.INTRA.REPUL>
0

>  <SCORE.INTRA.REPUL.0>
0

>  <SCORE.INTRA.SOLV>
-1.11273

>  <SCORE.INTRA.SOLV.lig_0>
-48.4032

>  <SCORE.INTRA.VDW>
0.201142

>  <SCORE.INTRA.VDW.0>
-1.65238

>  <SCORE.INTRA.norm>
-1.18101

>  <SCORE.RESTR>
0

>  <SCORE.RESTR.CAVITY>
0

>  <SCORE.RESTR.norm>
0

>  <SCORE.SYSTEM>
0

>  <SCORE.SYSTEM.CONST>
0

>  <SCORE.SYSTEM.DIHEDRAL>
0

>  <SCORE.SYSTEM.SOLV>
0

>  <SCORE.SYSTEM.norm>
0

>  <SCORE.heavy>
13

>  <SCORE.norm>
-1.20127

>  <RMSD>
18.764

$$$$
ligand
 OpenBabel11021811473D
libRbt.so/2013.1/901 2013/11/27
 13 12  0  0  0  0  0  0  0  0999 V2000
   35.4768   22.5715   62.0500 O   0  0  0  0  0  0  0  0  0  0  0  0
   37.3792   24.6542   61.5323 O   0  0  0  0  0  0  0  0  0  0  0  0
   31.1128   22.4614   62.0150 P   0  0  1  0  0  0  0  0  0  0  0  0
   30.4160   21.1291   62.0329 O   0  5  0  0  0  0  0  0  0  0  0  0
   30.6825   23.7140   62.5970 O   0  0  0  0  0  0  0  0  0  0  0  0
   32.6751   22.0622   61.9598 O   0  0  0  0  0  0  0  0  0  0  0  0
   35.5622   26.6074   60.3759 O   0  0  0  0  0  0  0  0  0  0  0  0
   33.4590   21.8833   63.1595 C   0  0  0  0  0  0  0  0  0  0  0  0
   37.4231   23.4120   60.8036 C   0  0  0  0  0  0  0  0  0  0  0  0
   36.7572   26.1594   59.7120 C   0  0  0  0  0  0  0  0  0  0  0  0
   34.9045   21.5023   62.8074 C   0  0  0  0  0  0  0  0  0  0  0  0
   36.8293   22.2677   61.6577 C   0  0  0  0  0  0  0  0  0  0  0  0
   37.8319   25.7781   60.7570 C   0  0  0  0  0  0  0  0  0  0  0  0
  1 12  1  0  0  0  0
  1 11  1  0  0  0  0
  2 13  1  0  0  0  0
  2  9  1  0  0  0  0
  3  4  1  1  0  0  0
  3  5  2  0  0  0  0
  3  6  1  0  0  0  0
  6  8  1  0  0  0  0
  7 10  1  0  0  0  0
  8 11  1  0  0  0  0
  9 12  1  0  0  0  0
 10 13  1  0  0  0  0
M  CHG  1   4  -1
M  END
>  <CHROM.1>
178.29062791,73.88959398,-90.72685040,179.75472256,61.43752092,-175.91487029
57.49801150,64.36640761,-178.69488921,34.31669251,23.32800160,61.68602647
-0.50666964,-0.05260013,2.75312479

>  <Name>
ligand

>  <RI>
0

>  <Rbt.Current_Directory>
/home/itssahil/PROJECTS/Mol_Feturizer/New_Systems/rnas/3GS8

>  <Rbt.Executable>
rbdock ($Id: //depot/dev/client3/rdock/2013.1/src/exe/rbdock.cxx#4 $)

>  <Rbt.Library>
libRbt.so (2013.1, Build901 2013/11/27)

>  <Rbt.Parameter_File>
/export/apps/rDock/src/rDock_2013.1_src/data/scripts/dock_solv.prm

>  <Rbt.Receptor>
prm/blind_docking_100.prm

>  <SCORE>
-14.3009

>  <SCORE.INTER>
0.665411

>  <SCORE.INTER.CONST>
1

>  <SCORE.INTER.POLAR>
0

>  <SCORE.INTER.ROT>
9

>  <SCORE.INTER.SOLV>
7.08324

>  <SCORE.INTER.VDW>
-11.5175

>  <SCORE.INTER.norm>
0.0511855

>  <SCORE.INTRA>
-14.9663

>  <SCORE.INTRA.DIHEDRAL>
-30.4204

>  <SCORE.INTRA.DIHEDRAL.0>
31.9578

>  <SCORE.INTRA.POLAR>
0

>  <SCORE.INTRA.POLAR.0>
0

>  <SCORE.INTRA.REPUL>
0

>  <SCORE.INTRA.REPUL.0>
0

>  <SCORE.INTRA.SOLV>
-1.08423

>  <SCORE.INTRA.SOLV.lig_0>
-48.4032

>  <SCORE.INTRA.VDW>
0.785989

>  <SCORE.INTRA.VDW.0>
-1.65238

>  <SCORE.INTRA.norm>
-1.15126

>  <SCORE.RESTR>
0

>  <SCORE.RESTR.CAVITY>
0

>  <SCORE.RESTR.norm>
0

>  <SCORE.SYSTEM>
0

>  <SCORE.SYSTEM.CONST>
0

>  <SCORE.SYSTEM.DIHEDRAL>
0

>  <SCORE.SYSTEM.SOLV>
0

>  <SCORE.SYSTEM.norm>
0

>  <SCORE.heavy>
13

>  <SCORE.norm>
-1.10007

>  <RMSD>
18.767

$$$$
ligand
 OpenBabel11021811473D
libRbt.so/2013.1/901 2013/11/27
 13 12  0  0  0  0  0  0  0  0999 V2000
   32.8732   23.3741   60.5559 O   0  0  0  0  0  0  0  0  0  0  0  0
   35.7406   23.5088   60.4484 O   0  0  0  0  0  0  0  0  0  0  0  0
   29.5862   20.9270   62.1512 P   0  0  1  0  0  0  0  0  0  0  0  0
   28.7919   20.1385   61.1470 O   0  5  0  0  0  0  0  0  0  0  0  0
   29.9722   20.5513   63.4938 O   0  0  0  0  0  0  0  0  0  0  0  0
   30.5519   21.8340   61.2303 O   0  0  0  0  0  0  0  0  0  0  0  0
   38.0209   23.7075   62.1856 O   0  0  0  0  0  0  0  0  0  0  0  0
   31.6971   21.2782   60.5481 C   0  0  0  0  0  0  0  0  0  0  0  0
   34.9331   23.9185   59.3276 C   0  0  0  0  0  0  0  0  0  0  0  0
   37.8269   22.5794   61.3142 C   0  0  0  0  0  0  0  0  0  0  0  0
   32.3843   22.3487   59.6876 C   0  0  0  0  0  0  0  0  0  0  0  0
   33.5490   24.4078   59.8142 C   0  0  0  0  0  0  0  0  0  0  0  0
   37.0326   23.0106   60.0590 C   0  0  0  0  0  0  0  0  0  0  0  0
  1 12  1  0  0  0  0
  1 11  1  0  0  0  0
  2 13  1  0  0  0  0
  2  9  1  0  0  0  0
  3  4  1  6  0  0  0
  3  5  2  0  0  0  0
  3  6  1  0  0  0  0
  6  8  1  0  0  0  0
  7 10  1  0  0  0  0
  8 11  1  0  0  0  0
  9 12  1  0  0  0  0
 10 13  1  0  0  0  0
M  CHG  1   4  -1
M  END
>  <CHROM.1>
-73.98018561,-179.36970982,-74.58480084,176.87756842,63.15815441,178.56006712
-58.00742073,-60.89320757,179.21442148,32.96991220,22.29527840,61.05209576
0.30975105,-0.22622255,-1.01492529

>  <Name>
ligand

>  <RI>
0

>  <Rbt.Current_Directory>
/home/itssahil/PROJECTS/Mol_Feturizer/New_Systems/rnas/3GS8

>  <Rbt.Executable>
rbdock ($Id: //depot/dev/client3/rdock/2013.1/src/exe/rbdock.cxx#4 $)

>  <Rbt.Library>
libRbt.so (2013.1, Build901 2013/11/27)

>  <Rbt.Parameter_File>
/export/apps/rDock/src/rDock_2013.1_src/data/scripts/dock_solv.prm

>  <Rbt.Receptor>
prm/blind_docking_80.prm

>  <SCORE>
-14.3244

>  <SCORE.INTER>
0.651993

>  <SCORE.INTER.CONST>
1

>  <SCORE.INTER.POLAR>
0

>  <SCORE.INTER.ROT>
9

>  <SCORE.INTER.SOLV>
5.97895

>  <SCORE.INTER.VDW>
-11.1583

>  <SCORE.INTER.norm>
0.0501533

>  <SCORE.INTRA>
-14.9764

>  <SCORE.INTRA.DIHEDRAL>
-30.6328

>  <SCORE.INTRA.DIHEDRAL.0>
31.9578

>  <SCORE.INTRA.POLAR>
0

>  <SCORE.INTRA.POLAR.0>
0

>  <SCORE.INTRA.REPUL>
0

>  <SCORE.INTRA.REPUL.0>
0

>  <SCORE.INTRA.SOLV>
-1.09392

>  <SCORE.INTRA.SOLV.lig_0>
-48.4032

>  <SCORE.INTRA.VDW>
0.886938

>  <SCORE.INTRA.VDW.0>
-1.65238

>  <SCORE.INTRA.norm>
-1.15203

>  <SCORE.RESTR>
0

>  <SCORE.RESTR.CAVITY>
0

>  <SCORE.RESTR.norm>
0

>  <SCORE.SYSTEM>
0

>  <SCORE.SYSTEM.CONST>
0

>  <SCORE.SYSTEM.DIHEDRAL>
0

>  <SCORE.SYSTEM.SOLV>
0

>  <SCORE.SYSTEM.norm>
0

>  <SCORE.heavy>
13

>  <SCORE.norm>
-1.10188

>  <RMSD>
18.771

$$$$
ligand
 OpenBabel11021811473D
libRbt.so/2013.1/901 2013/11/27
 13 12  0  0  0  0  0  0  0  0999 V2000
   33.9312   23.7455   60.4332 O   0  0  0  0  0  0  0  0  0  0  0  0
   36.8478   23.8473   60.0146 O   0  0  0  0  0  0  0  0  0  0  0  0
   32.1984   20.0971   62.0923 P   0  0  1  0  0  0  0  0  0  0  0  0
   32.8085   20.5103   63.4030 O   0  5  0  0  0  0  0  0  0  0  0  0
   30.9872   19.3415   61.8577 O   0  0  0  0  0  0  0  0  0  0  0  0
   32.6560   21.2705   61.0839 O   0  0  0  0  0  0  0  0  0  0  0  0
   40.3234   22.9875   60.9492 O   0  0  0  0  0  0  0  0  0  0  0  0
   31.9405   22.5219   60.9955 C   0  0  0  0  0  0  0  0  0  0  0  0
   36.0081   25.0160   60.0857 C   0  0  0  0  0  0  0  0  0  0  0  0
   39.0174   22.7867   60.3802 C   0  0  0  0  0  0  0  0  0  0  0  0
   32.6087   23.4543   59.9743 C   0  0  0  0  0  0  0  0  0  0  0  0
   34.5888   24.6891   59.5656 C   0  0  0  0  0  0  0  0  0  0  0  0
   38.1732   24.0745   60.5253 C   0  0  0  0  0  0  0  0  0  0  0  0
  1 12  1  0  0  0  0
  1 11  1  0  0  0  0
  2 13  1  0  0  0  0
  2  9  1  0  0  0  0
  3  4  1  1  0  0  0
  3  5  2  0  0  0  0
  3  6  1  0  0  0  0
  6  8  1  0  0  0  0
  7 10  1  0  0  0  0
  8 11  1  0  0  0  0
  9 12  1  0  0  0  0
 10 13  1  0  0  0  0
M  CHG  1   4  -1
M  END
>  <CHROM.1>
178.97248381,-178.57525290,-82.69659566,179.15127419,-62.46064537,-178.12858107
65.86482867,-177.18275554,-176.20057916,34.55889254,22.39871423,60.99502063
0.50663881,-0.04780874,-0.52854121

>  <Name>
ligand

>  <RI>
0

>  <Rbt.Current_Directory>
/home/itssahil/PROJECTS/Mol_Feturizer/New_Systems/rnas/3GS8

>  <Rbt.Executable>
rbdock ($Id: //depot/dev/client3/rdock/2013.1/src/exe/rbdock.cxx#4 $)

>  <Rbt.Library>
libRbt.so (2013.1, Build901 2013/11/27)

>  <Rbt.Parameter_File>
/export/apps/rDock/src/rDock_2013.1_src/data/scripts/dock_solv.prm

>  <Rbt.Receptor>
prm/blind_docking_80.prm

>  <SCORE>
-16.6804

>  <SCORE.INTER>
-0.414293

>  <SCORE.INTER.CONST>
1

>  <SCORE.INTER.POLAR>
0

>  <SCORE.INTER.ROT>
9

>  <SCORE.INTER.SOLV>
11.2597

>  <SCORE.INTER.VDW>
-13.6294

>  <SCORE.INTER.norm>
-0.0318687

>  <SCORE.INTRA>
-16.2661

>  <SCORE.INTRA.DIHEDRAL>
-31.3607

>  <SCORE.INTRA.DIHEDRAL.0>
31.9578

>  <SCORE.INTRA.POLAR>
0

>  <SCORE.INTRA.POLAR.0>
0

>  <SCORE.INTRA.REPUL>
0

>  <SCORE.INTRA.REPUL.0>
0

>  <SCORE.INTRA.SOLV>
-1.44404

>  <SCORE.INTRA.SOLV.lig_0>
-48.4032

>  <SCORE.INTRA.VDW>
0.136246

>  <SCORE.INTRA.VDW.0>
-1.65238

>  <SCORE.INTRA.norm>
-1.25124

>  <SCORE.RESTR>
0

>  <SCORE.RESTR.CAVITY>
0

>  <SCORE.RESTR.norm>
0

>  <SCORE.SYSTEM>
0

>  <SCORE.SYSTEM.CONST>
0

>  <SCORE.SYSTEM.DIHEDRAL>
0

>  <SCORE.SYSTEM.SOLV>
0

>  <SCORE.SYSTEM.norm>
0

>  <SCORE.heavy>
13

>  <SCORE.norm>
-1.28311

>  <RMSD>
18.790

$$$$
ligand
 OpenBabel11021811473D
libRbt.so/2013.1/901 2013/11/27
 13 12  0  0  0  0  0  0  0  0999 V2000
   31.9388   22.6311   61.2037 O   0  0  0  0  0  0  0  0  0  0  0  0
   30.7812   20.2433   62.2164 O   0  0  0  0  0  0  0  0  0  0  0  0
   36.1203   25.2160   59.9975 P   0  0  1  0  0  0  0  0  0  0  0  0
   36.2044   26.6596   59.5854 O   0  5  0  0  0  0  0  0  0  0  0  0
   36.9998   24.4740   60.8743 O   0  0  0  0  0  0  0  0  0  0  0  0
   34.5370   24.9090   59.9522 O   0  0  0  0  0  0  0  0  0  0  0  0
   29.6039   20.5490   64.8121 O   0  0  0  0  0  0  0  0  0  0  0  0
   33.9774   23.7047   60.5200 C   0  0  0  0  0  0  0  0  0  0  0  0
   31.9286   20.1760   61.3477 C   0  0  0  0  0  0  0  0  0  0  0  0
   29.4869   19.3213   64.0713 C   0  0  0  0  0  0  0  0  0  0  0  0
   32.4433   23.7408   60.4564 C   0  0  0  0  0  0  0  0  0  0  0  0
   31.9784   21.4180   60.4275 C   0  0  0  0  0  0  0  0  0  0  0  0
   30.7109   19.1448   63.1425 C   0  0  0  0  0  0  0  0  0  0  0  0
  1 12  1  0  0  0  0
  1 11  1  0  0  0  0
  2 13  1  0  0  0  0
  2  9  1  0  0  0  0
  3  4  1  1  0  0  0
  3  5  2  0  0  0  0
  3  6  1  0  0  0  0
  6  8  1  0  0  0  0
  7 10  1  0  0  0  0
  8 11  1  0  0  0  0
  9 12  1  0  0  0  0
 10 13  1  0  0  0  0
M  CHG  1   4  -1
M  END
>  <CHROM.1>
159.65454133,177.78000176,-168.04333415,174.47184799,-171.47977982,-177.29803278
54.50821671,-60.17228051,-81.01923620,33.11768009,22.73896264,61.31675774
2.58947600,0.66804963,1.81558580

>  <Name>
ligand

>  <RI>
0

>  <Rbt.Current_Directory>
/home/itssahil/PROJECTS/Mol_Feturizer/New_Systems/rnas/3GS8

>  <Rbt.Executable>
rbdock ($Id: //depot/dev/client3/rdock/2013.1/src/exe/rbdock.cxx#4 $)

>  <Rbt.Library>
libRbt.so (2013.1, Build901 2013/11/27)

>  <Rbt.Parameter_File>
/export/apps/rDock/src/rDock_2013.1_src/data/scripts/dock_solv.prm

>  <Rbt.Receptor>
prm/blind_docking_80.prm

>  <SCORE>
-12.3652

>  <SCORE.INTER>
0.705912

>  <SCORE.INTER.CONST>
1

>  <SCORE.INTER.POLAR>
0

>  <SCORE.INTER.ROT>
9

>  <SCORE.INTER.SOLV>
10.8794

>  <SCORE.INTER.VDW>
-12.7559

>  <SCORE.INTER.norm>
0.054301

>  <SCORE.INTRA>
-13.0712

>  <SCORE.INTRA.DIHEDRAL>
-26.7798

>  <SCORE.INTRA.DIHEDRAL.0>
31.9578

>  <SCORE.INTRA.POLAR>
0

>  <SCORE.INTRA.POLAR.0>
0

>  <SCORE.INTRA.REPUL>
0

>  <SCORE.INTRA.REPUL.0>
0

>  <SCORE.INTRA.SOLV>
-1.45836

>  <SCORE.INTRA.SOLV.lig_0>
-48.4032

>  <SCORE.INTRA.VDW>
1.04795

>  <SCORE.INTRA.VDW.0>
-1.65238

>  <SCORE.INTRA.norm>
-1.00547

>  <SCORE.RESTR>
0

>  <SCORE.RESTR.CAVITY>
0

>  <SCORE.RESTR.norm>
0

>  <SCORE.SYSTEM>
0

>  <SCORE.SYSTEM.CONST>
0

>  <SCORE.SYSTEM.DIHEDRAL>
0

>  <SCORE.SYSTEM.SOLV>
0

>  <SCORE.SYSTEM.norm>
0

>  <SCORE.heavy>
13

>  <SCORE.norm>
-0.951172

>  <RMSD>
18.814

$$$$
ligand
 OpenBabel11021811473D
libRbt.so/2013.1/901 2013/11/27
 13 12  0  0  0  0  0  0  0  0999 V2000
   34.0030   23.4097   59.8974 O   0  0  0  0  0  0  0  0  0  0  0  0
   36.8134   24.0232   60.3331 O   0  0  0  0  0  0  0  0  0  0  0  0
   32.3166   20.2761   62.4504 P   0  0  1  0  0  0  0  0  0  0  0  0
   33.4028   20.0933   63.4739 O   0  5  0  0  0  0  0  0  0  0  0  0
   30.9541   19.7908   62.4822 O   0  0  0  0  0  0  0  0  0  0  0  0
   32.6791   21.6956   61.7744 O   0  0  0  0  0  0  0  0  0  0  0  0
   38.2742   22.0402   61.7246 O   0  0  0  0  0  0  0  0  0  0  0  0
   32.0734   22.1273   60.5365 C   0  0  0  0  0  0  0  0  0  0  0  0
   36.0717   24.5522   59.2169 C   0  0  0  0  0  0  0  0  0  0  0  0
   38.9255   23.2433   61.2799 C   0  0  0  0  0  0  0  0  0  0  0  0
   32.5969   23.5141   60.1347 C   0  0  0  0  0  0  0  0  0  0  0  0
   34.5764   24.6939   59.5852 C   0  0  0  0  0  0  0  0  0  0  0  0
   38.2034   23.8063   60.0334 C   0  0  0  0  0  0  0  0  0  0  0  0
  1 12  1  0  0  0  0
  1 11  1  0  0  0  0
  2 13  1  0  0  0  0
  2  9  1  0  0  0  0
  3  4  1  1  0  0  0
  3  5  2  0  0  0  0
  3  6  1  0  0  0  0
  6  8  1  0  0  0  0
  7 10  1  0  0  0  0
  8 11  1  0  0  0  0
  9 12  1  0  0  0  0
 10 13  1  0  0  0  0
M  CHG  1   4  -1
M  END
>  <CHROM.1>
-175.34050385,179.86461135,165.84279896,179.69863990,63.14098908,177.17693081
-61.87561247,56.22950883,-176.87335952,34.47539496,22.33550223,61.14572189
0.58480850,-0.11674001,-0.71361441

>  <Name>
ligand

>  <RI>
0

>  <Rbt.Current_Directory>
/home/itssahil/PROJECTS/Mol_Feturizer/New_Systems/rnas/3GS8

>  <Rbt.Executable>
rbdock ($Id: //depot/dev/client3/rdock/2013.1/src/exe/rbdock.cxx#4 $)

>  <Rbt.Library>
libRbt.so (2013.1, Build901 2013/11/27)

>  <Rbt.Parameter_File>
/export/apps/rDock/src/rDock_2013.1_src/data/scripts/dock_solv.prm

>  <Rbt.Receptor>
prm/blind_docking_80.prm

>  <SCORE>
-16.7368

>  <SCORE.INTER>
-0.406522

>  <SCORE.INTER.CONST>
1

>  <SCORE.INTER.POLAR>
0

>  <SCORE.INTER.ROT>
9

>  <SCORE.INTER.SOLV>
12.4069

>  <SCORE.INTER.VDW>
-14.0066

>  <SCORE.INTER.norm>
-0.0312709

>  <SCORE.INTRA>
-16.3303

>  <SCORE.INTRA.DIHEDRAL>
-31.3738

>  <SCORE.INTRA.DIHEDRAL.0>
31.9578

>  <SCORE.INTRA.POLAR>
0

>  <SCORE.INTRA.POLAR.0>
0

>  <SCORE.INTRA.REPUL>
0

>  <SCORE.INTRA.REPUL.0>
0

>  <SCORE.INTRA.SOLV>
-1.44795

>  <SCORE.INTRA.SOLV.lig_0>
-48.4032

>  <SCORE.INTRA.VDW>
0.080584

>  <SCORE.INTRA.VDW.0>
-1.65238

>  <SCORE.INTRA.norm>
-1.25618

>  <SCORE.RESTR>
0

>  <SCORE.RESTR.CAVITY>
0

>  <SCORE.RESTR.norm>
0

>  <SCORE.SYSTEM>
0

>  <SCORE.SYSTEM.CONST>
0

>  <SCORE.SYSTEM.DIHEDRAL>
0

>  <SCORE.SYSTEM.SOLV>
0

>  <SCORE.SYSTEM.norm>
0

>  <SCORE.heavy>
13

>  <SCORE.norm>
-1.28745

>  <RMSD>
18.838

$$$$
ligand
 OpenBabel11021811473D
libRbt.so/2013.1/901 2013/11/27
 13 12  0  0  0  0  0  0  0  0999 V2000
   32.4167   21.7923   60.7985 O   0  0  0  0  0  0  0  0  0  0  0  0
   34.6212   24.7309   60.2294 O   0  0  0  0  0  0  0  0  0  0  0  0
   30.3839   18.9167   63.2697 P   0  0  1  0  0  0  0  0  0  0  0  0
   28.9532   18.5665   62.9674 O   0  5  0  0  0  0  0  0  0  0  0  0
   31.4542   18.0468   63.7062 O   0  0  0  0  0  0  0  0  0  0  0  0
   30.6738   20.1678   62.2931 O   0  0  0  0  0  0  0  0  0  0  0  0
   36.7095   26.2179   58.8271 O   0  0  0  0  0  0  0  0  0  0  0  0
   30.8124   20.0040   60.8649 C   0  0  0  0  0  0  0  0  0  0  0  0
   34.1571   23.5283   60.8730 C   0  0  0  0  0  0  0  0  0  0  0  0
   36.2058   26.5866   60.1232 C   0  0  0  0  0  0  0  0  0  0  0  0
   31.1991   21.3354   60.2042 C   0  0  0  0  0  0  0  0  0  0  0  0
   32.8642   23.0206   60.1931 C   0  0  0  0  0  0  0  0  0  0  0  0
   35.7510   25.3246   60.8930 C   0  0  0  0  0  0  0  0  0  0  0  0
  1 12  1  0  0  0  0
  1 11  1  0  0  0  0
  2 13  1  0  0  0  0
  2  9  1  0  0  0  0
  3  4  1  6  0  0  0
  3  5  2  0  0  0  0
  3  6  1  0  0  0  0
  6  8  1  0  0  0  0
  7 10  1  0  0  0  0
  8 11  1  0  0  0  0
  9 12  1  0  0  0  0
 10 13  1  0  0  0  0
M  CHG  1   4  -1
M  END
>  <CHROM.1>
178.22943842,178.67252932,-72.01281655,-175.24340480,57.69525334,174.52848194
177.99077410,-65.82705283,178.09099099,32.57450192,21.87807947,61.35754827
0.76258085,-0.59908114,-0.95065110

>  <Name>
ligand

>  <RI>
0

>  <Rbt.Current_Directory>
/home/itssahil/PROJECTS/Mol_Feturizer/New_Systems/rnas/3GS8

>  <Rbt.Executable>
rbdock ($Id: //depot/dev/client3/rdock/2013.1/src/exe/rbdock.cxx#4 $)

>  <Rbt.Library>
libRbt.so (2013.1, Build901 2013/11/27)

>  <Rbt.Parameter_File>
/export/apps/rDock/src/rDock_2013.1_src/data/scripts/dock_solv.prm

>  <Rbt.Receptor>
prm/blind_docking_100.prm

>  <SCORE>
-16.1922

>  <SCORE.INTER>
-0.186119

>  <SCORE.INTER.CONST>
1

>  <SCORE.INTER.POLAR>
0

>  <SCORE.INTER.ROT>
9

>  <SCORE.INTER.SOLV>
7.80935

>  <SCORE.INTER.VDW>
-12.3272

>  <SCORE.INTER.norm>
-0.0143168

>  <SCORE.INTRA>
-16.0061

>  <SCORE.INTRA.DIHEDRAL>
-31.1994

>  <SCORE.INTRA.DIHEDRAL.0>
31.9578

>  <SCORE.INTRA.POLAR>
0

>  <SCORE.INTRA.POLAR.0>
0

>  <SCORE.INTRA.REPUL>
0

>  <SCORE.INTRA.REPUL.0>
0

>  <SCORE.INTRA.SOLV>
-1.30285

>  <SCORE.INTRA.SOLV.lig_0>
-48.4032

>  <SCORE.INTRA.VDW>
0.245049

>  <SCORE.INTRA.VDW.0>
-1.65238

>  <SCORE.INTRA.norm>
-1.23124

>  <SCORE.RESTR>
0

>  <SCORE.RESTR.CAVITY>
0

>  <SCORE.RESTR.norm>
0

>  <SCORE.SYSTEM>
0

>  <SCORE.SYSTEM.CONST>
0

>  <SCORE.SYSTEM.DIHEDRAL>
0

>  <SCORE.SYSTEM.SOLV>
0

>  <SCORE.SYSTEM.norm>
0

>  <SCORE.heavy>
13

>  <SCORE.norm>
-1.24555

>  <RMSD>
18.964

$$$$
ligand
 OpenBabel11021811473D
libRbt.so/2013.1/901 2013/11/27
 13 12  0  0  0  0  0  0  0  0999 V2000
   33.5440   23.6165   60.8112 O   0  0  0  0  0  0  0  0  0  0  0  0
   36.2072   23.6811   59.7038 O   0  0  0  0  0  0  0  0  0  0  0  0
   30.1063   21.0460   63.5158 P   0  0  1  0  0  0  0  0  0  0  0  0
   29.9712   22.1426   64.5358 O   0  5  0  0  0  0  0  0  0  0  0  0
   29.3387   19.8259   63.3938 O   0  0  0  0  0  0  0  0  0  0  0  0
   30.6529   21.8198   62.2098 O   0  0  0  0  0  0  0  0  0  0  0  0
   38.2120   22.2858   61.2177 O   0  0  0  0  0  0  0  0  0  0  0  0
   31.9685   22.4142   62.1707 C   0  0  0  0  0  0  0  0  0  0  0  0
   35.2997   24.7896   59.5505 C   0  0  0  0  0  0  0  0  0  0  0  0
   38.4921   22.8459   59.9225 C   0  0  0  0  0  0  0  0  0  0  0  0
   32.2114   23.0982   60.8173 C   0  0  0  0  0  0  0  0  0  0  0  0
   33.8358   24.2914   59.5722 C   0  0  0  0  0  0  0  0  0  0  0  0
   37.5898   24.0769   59.6718 C   0  0  0  0  0  0  0  0  0  0  0  0
  1 12  1  0  0  0  0
  1 11  1  0  0  0  0
  2 13  1  0  0  0  0
  2  9  1  0  0  0  0
  3  4  1  6  0  0  0
  3  5  2  0  0  0  0
  3  6  1  0  0  0  0
  6  8  1  0  0  0  0
  7 10  1  0  0  0  0
  8 11  1  0  0  0  0
  9 12  1  0  0  0  0
 10 13  1  0  0  0  0
M  CHG  1   4  -1
M  END
>  <CHROM.1>
-177.34613799,176.80314098,67.12378733,-179.16665408,-177.49572098,179.12955372
59.32416949,-60.90373405,-179.19377276,33.32705783,22.59621911,61.52871629
0.51762443,0.13540205,-0.73644771

>  <Name>
ligand

>  <RI>
0

>  <Rbt.Current_Directory>
/home/itssahil/PROJECTS/Mol_Feturizer/New_Systems/rnas/3GS8

>  <Rbt.Executable>
rbdock ($Id: //depot/dev/client3/rdock/2013.1/src/exe/rbdock.cxx#4 $)

>  <Rbt.Library>
libRbt.so (2013.1, Build901 2013/11/27)

>  <Rbt.Parameter_File>
/export/apps/rDock/src/rDock_2013.1_src/data/scripts/dock_solv.prm

>  <Rbt.Receptor>
prm/blind_docking_80.prm

>  <SCORE>
-14.9449

>  <SCORE.INTER>
1.09372

>  <SCORE.INTER.CONST>
1

>  <SCORE.INTER.POLAR>
0

>  <SCORE.INTER.ROT>
9

>  <SCORE.INTER.SOLV>
5.76276

>  <SCORE.INTER.VDW>
-10.7918

>  <SCORE.INTER.norm>
0.0841327

>  <SCORE.INTRA>
-16.0386

>  <SCORE.INTRA.DIHEDRAL>
-31.2032

>  <SCORE.INTRA.DIHEDRAL.0>
31.9578

>  <SCORE.INTRA.POLAR>
0

>  <SCORE.INTRA.POLAR.0>
0

>  <SCORE.INTRA.REPUL>
0

>  <SCORE.INTRA.REPUL.0>
0

>  <SCORE.INTRA.SOLV>
-1.40881

>  <SCORE.INTRA.SOLV.lig_0>
-48.4032

>  <SCORE.INTRA.VDW>
0.267428

>  <SCORE.INTRA.VDW.0>
-1.65238

>  <SCORE.INTRA.norm>
-1.23374

>  <SCORE.RESTR>
0

>  <SCORE.RESTR.CAVITY>
0

>  <SCORE.RESTR.norm>
0

>  <SCORE.SYSTEM>
0

>  <SCORE.SYSTEM.CONST>
0

>  <SCORE.SYSTEM.DIHEDRAL>
0

>  <SCORE.SYSTEM.SOLV>
0

>  <SCORE.SYSTEM.norm>
0

>  <SCORE.heavy>
13

>  <SCORE.norm>
-1.1496

>  <RMSD>
19.010

$$$$
ligand
 OpenBabel11021811473D
libRbt.so/2013.1/901 2013/11/27
 13 12  0  0  0  0  0  0  0  0999 V2000
   35.9913   22.6471   62.3600 O   0  0  0  0  0  0  0  0  0  0  0  0
   37.6310   24.4935   60.9568 O   0  0  0  0  0  0  0  0  0  0  0  0
   32.1802   24.1798   63.9290 P   0  0  1  0  0  0  0  0  0  0  0  0
   30.9187   23.4147   63.6384 O   0  5  0  0  0  0  0  0  0  0  0  0
   32.5335   24.9204   65.1204 O   0  0  0  0  0  0  0  0  0  0  0  0
   33.2991   23.3864   63.0794 O   0  0  0  0  0  0  0  0  0  0  0  0
   35.6196   26.3863   60.2724 O   0  0  0  0  0  0  0  0  0  0  0  0
   33.9818   22.2300   63.6106 C   0  0  0  0  0  0  0  0  0  0  0  0
   38.1369   23.1850   61.2851 C   0  0  0  0  0  0  0  0  0  0  0  0
   36.6426   26.0227   59.3286 C   0  0  0  0  0  0  0  0  0  0  0  0
   34.9727   21.6682   62.5804 C   0  0  0  0  0  0  0  0  0  0  0  0
   36.9716   22.1765   61.4150 C   0  0  0  0  0  0  0  0  0  0  0  0
   37.1346   24.5835   59.6097 C   0  0  0  0  0  0  0  0  0  0  0  0
  1 12  1  0  0  0  0
  1 11  1  0  0  0  0
  2 13  1  0  0  0  0
  2  9  1  0  0  0  0
  3  4  1  1  0  0  0
  3  5  2  0  0  0  0
  3  6  1  0  0  0  0
  6  8  1  0  0  0  0
  7 10  1  0  0  0  0
  8 11  1  0  0  0  0
  9 12  1  0  0  0  0
 10 13  1  0  0  0  0
M  CHG  1   4  -1
M  END
>  <CHROM.1>
-174.64476581,-178.69123313,-85.76065337,179.12121318,64.84781241,-71.32890410
-54.50308891,-57.98539921,179.10750548,34.80355400,23.84632299,62.26563781
-0.36812803,-0.52808551,2.65862776

>  <Name>
ligand

>  <RI>
0

>  <Rbt.Current_Directory>
/home/itssahil/PROJECTS/Mol_Feturizer/New_Systems/rnas/3GS8

>  <Rbt.Executable>
rbdock ($Id: //depot/dev/client3/rdock/2013.1/src/exe/rbdock.cxx#4 $)

>  <Rbt.Library>
libRbt.so (2013.1, Build901 2013/11/27)

>  <Rbt.Parameter_File>
/export/apps/rDock/src/rDock_2013.1_src/data/scripts/dock_solv.prm

>  <Rbt.Receptor>
prm/blind_docking_80.prm

>  <SCORE>
-14.9553

>  <SCORE.INTER>
0.0768471

>  <SCORE.INTER.CONST>
1

>  <SCORE.INTER.POLAR>
0

>  <SCORE.INTER.ROT>
9

>  <SCORE.INTER.SOLV>
7.42549

>  <SCORE.INTER.VDW>
-12.0239

>  <SCORE.INTER.norm>
0.00591131

>  <SCORE.INTRA>
-15.0334

>  <SCORE.INTRA.DIHEDRAL>
-30.628

>  <SCORE.INTRA.DIHEDRAL.0>
31.9578

>  <SCORE.INTRA.POLAR>
0

>  <SCORE.INTRA.POLAR.0>
0

>  <SCORE.INTRA.REPUL>
0

>  <SCORE.INTRA.REPUL.0>
0

>  <SCORE.INTRA.SOLV>
-1.10653

>  <SCORE.INTRA.SOLV.lig_0>
-48.4032

>  <SCORE.INTRA.VDW>
0.833849

>  <SCORE.INTRA.VDW.0>
-1.65238

>  <SCORE.INTRA.norm>
-1.15642

>  <SCORE.RESTR>
0.00126212

>  <SCORE.RESTR.CAVITY>
0.00126212

>  <SCORE.RESTR.norm>
9.70865e-05

>  <SCORE.SYSTEM>
0

>  <SCORE.SYSTEM.CONST>
0

>  <SCORE.SYSTEM.DIHEDRAL>
0

>  <SCORE.SYSTEM.SOLV>
0

>  <SCORE.SYSTEM.norm>
0

>  <SCORE.heavy>
13

>  <SCORE.norm>
-1.15041

>  <RMSD>
19.015

$$$$
ligand
 OpenBabel11021811473D
libRbt.so/2013.1/901 2013/11/27
 13 12  0  0  0  0  0  0  0  0999 V2000
   34.4967   23.0022   63.2127 O   0  0  0  0  0  0  0  0  0  0  0  0
   32.6747   20.8236   62.7896 O   0  0  0  0  0  0  0  0  0  0  0  0
   36.0539   25.7287   60.2791 P   0  0  1  0  0  0  0  0  0  0  0  0
   36.2688   27.1200   60.8075 O   0  5  0  0  0  0  0  0  0  0  0  0
   36.5485   25.1414   59.0530 O   0  0  0  0  0  0  0  0  0  0  0  0
   35.8899   24.8445   61.6187 O   0  0  0  0  0  0  0  0  0  0  0  0
   31.1861   20.9837   60.3526 O   0  0  0  0  0  0  0  0  0  0  0  0
   35.0750   25.2838   62.7271 C   0  0  0  0  0  0  0  0  0  0  0  0
   33.9051   20.6343   63.5150 C   0  0  0  0  0  0  0  0  0  0  0  0
   30.9440   19.9383   61.3107 C   0  0  0  0  0  0  0  0  0  0  0  0
   35.0063   24.1971   63.8102 C   0  0  0  0  0  0  0  0  0  0  0  0
   34.3381   21.9563   64.1907 C   0  0  0  0  0  0  0  0  0  0  0  0
   32.2374   19.6372   62.1037 C   0  0  0  0  0  0  0  0  0  0  0  0
  1 12  1  0  0  0  0
  1 11  1  0  0  0  0
  2 13  1  0  0  0  0
  2  9  1  0  0  0  0
  3  4  1  1  0  0  0
  3  5  2  0  0  0  0
  3  6  1  0  0  0  0
  6  8  1  0  0  0  0
  7 10  1  0  0  0  0
  8 11  1  0  0  0  0
  9 12  1  0  0  0  0
 10 13  1  0  0  0  0
M  CHG  1   4  -1
M  END
>  <CHROM.1>
-175.05437311,-177.92239197,44.26792169,175.20216926,-57.05380116,178.28125048
-57.88354048,59.51230275,-176.94322666,34.36785249,23.27493058,61.80770064
-2.66420125,-0.87030497,-1.24490938

>  <Name>
ligand

>  <RI>
0

>  <Rbt.Current_Directory>
/home/itssahil/PROJECTS/Mol_Feturizer/New_Systems/rnas/3GS8

>  <Rbt.Executable>
rbdock ($Id: //depot/dev/client3/rdock/2013.1/src/exe/rbdock.cxx#4 $)

>  <Rbt.Library>
libRbt.so (2013.1, Build901 2013/11/27)

>  <Rbt.Parameter_File>
/export/apps/rDock/src/rDock_2013.1_src/data/scripts/dock_solv.prm

>  <Rbt.Receptor>
prm/blind_docking_100.prm

>  <SCORE>
-15.0546

>  <SCORE.INTER>
0.79954

>  <SCORE.INTER.CONST>
1

>  <SCORE.INTER.POLAR>
0

>  <SCORE.INTER.ROT>
9

>  <SCORE.INTER.SOLV>
15.35

>  <SCORE.INTER.VDW>
-14.1836

>  <SCORE.INTER.norm>
0.0615031

>  <SCORE.INTRA>
-15.8542

>  <SCORE.INTRA.DIHEDRAL>
-31.3106

>  <SCORE.INTRA.DIHEDRAL.0>
31.9578

>  <SCORE.INTRA.POLAR>
0

>  <SCORE.INTRA.POLAR.0>
0

>  <SCORE.INTRA.REPUL>
0

>  <SCORE.INTRA.REPUL.0>
0

>  <SCORE.INTRA.SOLV>
-1.13664

>  <SCORE.INTRA.SOLV.lig_0>
-48.4032

>  <SCORE.INTRA.VDW>
0.369424

>  <SCORE.INTRA.VDW.0>
-1.65238

>  <SCORE.INTRA.norm>
-1.21955

>  <SCORE.RESTR>
0

>  <SCORE.RESTR.CAVITY>
0

>  <SCORE.RESTR.norm>
0

>  <SCORE.SYSTEM>
0

>  <SCORE.SYSTEM.CONST>
0

>  <SCORE.SYSTEM.DIHEDRAL>
0

>  <SCORE.SYSTEM.SOLV>
0

>  <SCORE.SYSTEM.norm>
0

>  <SCORE.heavy>
13

>  <SCORE.norm>
-1.15805

>  <RMSD>
19.109

$$$$
ligand
 OpenBabel11021811473D
libRbt.so/2013.1/901 2013/11/27
 13 12  0  0  0  0  0  0  0  0999 V2000
   32.4732   22.2846   60.8510 O   0  0  0  0  0  0  0  0  0  0  0  0
   34.6290   24.0932   59.8033 O   0  0  0  0  0  0  0  0  0  0  0  0
   30.7563   18.2150   63.3401 P   0  0  1  0  0  0  0  0  0  0  0  0
   32.0086   18.1160   64.1665 O   0  5  0  0  0  0  0  0  0  0  0  0
   29.3811   18.2677   63.7862 O   0  0  0  0  0  0  0  0  0  0  0  0
   31.2387   19.0263   62.0316 O   0  0  0  0  0  0  0  0  0  0  0  0
   37.2345   24.4051   58.6453 O   0  0  0  0  0  0  0  0  0  0  0  0
   31.7612   20.3699   62.1173 C   0  0  0  0  0  0  0  0  0  0  0  0
   33.2122   24.3438   59.7277 C   0  0  0  0  0  0  0  0  0  0  0  0
   36.9108   24.9546   59.9348 C   0  0  0  0  0  0  0  0  0  0  0  0
   31.8505   21.0041   60.7213 C   0  0  0  0  0  0  0  0  0  0  0  0
   32.4374   23.0108   59.6073 C   0  0  0  0  0  0  0  0  0  0  0  0
   35.4024   25.2894   60.0040 C   0  0  0  0  0  0  0  0  0  0  0  0
  1 12  1  0  0  0  0
  1 11  1  0  0  0  0
  2 13  1  0  0  0  0
  2  9  1  0  0  0  0
  3  4  1  1  0  0  0
  3  5  2  0  0  0  0
  3  6  1  0  0  0  0
  6  8  1  0  0  0  0
  7 10  1  0  0  0  0
  8 11  1  0  0  0  0
  9 12  1  0  0  0  0
 10 13  1  0  0  0  0
M  CHG  1   4  -1
M  END
>  <CHROM.1>
-175.43994803,-174.47850162,-61.53157249,-167.62933954,-175.30967148,-176.21167682
71.34555405,60.35096275,-172.65986494,32.82988849,21.46789465,61.33386611
0.97117731,-0.13813983,-0.64935541

>  <Name>
ligand

>  <RI>
0

>  <Rbt.Current_Directory>
/home/itssahil/PROJECTS/Mol_Feturizer/New_Systems/rnas/3GS8

>  <Rbt.Executable>
rbdock ($Id: //depot/dev/client3/rdock/2013.1/src/exe/rbdock.cxx#4 $)

>  <Rbt.Library>
libRbt.so (2013.1, Build901 2013/11/27)

>  <Rbt.Parameter_File>
/export/apps/rDock/src/rDock_2013.1_src/data/scripts/dock_solv.prm

>  <Rbt.Receptor>
prm/blind_docking_100.prm

>  <SCORE>
-15.3501

>  <SCORE.INTER>
-0.194804

>  <SCORE.INTER.CONST>
1

>  <SCORE.INTER.POLAR>
0

>  <SCORE.INTER.ROT>
9

>  <SCORE.INTER.SOLV>
11.1419

>  <SCORE.INTER.VDW>
-13.4438

>  <SCORE.INTER.norm>
-0.0149849

>  <SCORE.INTRA>
-15.1553

>  <SCORE.INTRA.DIHEDRAL>
-29.6547

>  <SCORE.INTRA.DIHEDRAL.0>
31.9578

>  <SCORE.INTRA.POLAR>
0

>  <SCORE.INTRA.POLAR.0>
0

>  <SCORE.INTRA.REPUL>
0

>  <SCORE.INTRA.REPUL.0>
0

>  <SCORE.INTRA.SOLV>
-1.26669

>  <SCORE.INTRA.SOLV.lig_0>
-48.4032

>  <SCORE.INTRA.VDW>
0.305408

>  <SCORE.INTRA.VDW.0>
-1.65238

>  <SCORE.INTRA.norm>
-1.16579

>  <SCORE.RESTR>
0

>  <SCORE.RESTR.CAVITY>
0

>  <SCORE.RESTR.norm>
0

>  <SCORE.SYSTEM>
0

>  <SCORE.SYSTEM.CONST>
0

>  <SCORE.SYSTEM.DIHEDRAL>
0

>  <SCORE.SYSTEM.SOLV>
0

>  <SCORE.SYSTEM.norm>
0

>  <SCORE.heavy>
13

>  <SCORE.norm>
-1.18078

>  <RMSD>
19.228

$$$$
ligand
 OpenBabel11021811473D
libRbt.so/2013.1/901 2013/11/27
 13 12  0  0  0  0  0  0  0  0999 V2000
   35.0725   23.2501   62.5796 O   0  0  0  0  0  0  0  0  0  0  0  0
   35.5530   25.8485   61.4940 O   0  0  0  0  0  0  0  0  0  0  0  0
   31.8972   19.3053   62.8377 P   0  0  1  0  0  0  0  0  0  0  0  0
   32.3762   19.0466   61.4361 O   0  5  0  0  0  0  0  0  0  0  0  0
   31.1531   18.4278   63.7148 O   0  0  0  0  0  0  0  0  0  0  0  0
   32.9986   20.3288   63.4230 O   0  0  0  0  0  0  0  0  0  0  0  0
   36.1071   24.9379   58.8473 O   0  0  0  0  0  0  0  0  0  0  0  0
   33.6215   21.3342   62.5943 C   0  0  0  0  0  0  0  0  0  0  0  0
   36.5120   25.2337   62.3762 C   0  0  0  0  0  0  0  0  0  0  0  0
   36.9691   25.8840   59.5042 C   0  0  0  0  0  0  0  0  0  0  0  0
   34.4836   22.2774   63.4464 C   0  0  0  0  0  0  0  0  0  0  0  0
   35.8057   24.2395   63.3272 C   0  0  0  0  0  0  0  0  0  0  0  0
   36.1589   26.7196   60.5228 C   0  0  0  0  0  0  0  0  0  0  0  0
  1 12  1  0  0  0  0
  1 11  1  0  0  0  0
  2 13  1  0  0  0  0
  2  9  1  0  0  0  0
  3  4  1  6  0  0  0
  3  5  2  0  0  0  0
  3  6  1  0  0  0  0
  6  8  1  0  0  0  0
  7 10  1  0  0  0  0
  8 11  1  0  0  0  0
  9 12  1  0  0  0  0
 10 13  1  0  0  0  0
M  CHG  1   4  -1
M  END
>  <CHROM.1>
176.40528556,69.14613757,35.39004176,172.59827648,-179.91065506,-176.11340327
56.30316795,58.80099964,175.07848339,34.26998814,22.50195283,62.06941128
-0.29110259,0.98481264,1.57980600

>  <Name>
ligand

>  <RI>
0

>  <Rbt.Current_Directory>
/home/itssahil/PROJECTS/Mol_Feturizer/New_Systems/rnas/3GS8

>  <Rbt.Executable>
rbdock ($Id: //depot/dev/client3/rdock/2013.1/src/exe/rbdock.cxx#4 $)

>  <Rbt.Library>
libRbt.so (2013.1, Build901 2013/11/27)

>  <Rbt.Parameter_File>
/export/apps/rDock/src/rDock_2013.1_src/data/scripts/dock_solv.prm

>  <Rbt.Receptor>
prm/blind_docking_100.prm

>  <SCORE>
-14.9

>  <SCORE.INTER>
-0.688927

>  <SCORE.INTER.CONST>
1

>  <SCORE.INTER.POLAR>
0

>  <SCORE.INTER.ROT>
9

>  <SCORE.INTER.SOLV>
13.2724

>  <SCORE.INTER.VDW>
-14.4834

>  <SCORE.INTER.norm>
-0.0529944

>  <SCORE.INTRA>
-14.2111

>  <SCORE.INTRA.DIHEDRAL>
-30.6451

>  <SCORE.INTRA.DIHEDRAL.0>
31.9578

>  <SCORE.INTRA.POLAR>
0

>  <SCORE.INTRA.POLAR.0>
0

>  <SCORE.INTRA.REPUL>
0

>  <SCORE.INTRA.REPUL.0>
0

>  <SCORE.INTRA.SOLV>
-1.10751

>  <SCORE.INTRA.SOLV.lig_0>
-48.4032

>  <SCORE.INTRA.VDW>
1.66518

>  <SCORE.INTRA.VDW.0>
-1.65238

>  <SCORE.INTRA.norm>
-1.09316

>  <SCORE.RESTR>
0

>  <SCORE.RESTR.CAVITY>
0

>  <SCORE.RESTR.norm>
0

>  <SCORE.SYSTEM>
0

>  <SCORE.SYSTEM.CONST>
0

>  <SCORE.SYSTEM.DIHEDRAL>
0

>  <SCORE.SYSTEM.SOLV>
0

>  <SCORE.SYSTEM.norm>
0

>  <SCORE.heavy>
13

>  <SCORE.norm>
-1.14616

>  <RMSD>
19.232

$$$$
ligand
 OpenBabel11021811473D
libRbt.so/2013.1/901 2013/11/27
 13 12  0  0  0  0  0  0  0  0999 V2000
   32.6030   21.4457   60.1798 O   0  0  0  0  0  0  0  0  0  0  0  0
   33.5581   24.5519   59.5743 O   0  0  0  0  0  0  0  0  0  0  0  0
   31.3670   17.9918   63.6788 P   0  0  1  0  0  0  0  0  0  0  0  0
   30.5869   18.2084   64.9459 O   0  5  0  0  0  0  0  0  0  0  0  0
   31.5868   16.7601   62.9524 O   0  0  0  0  0  0  0  0  0  0  0  0
   31.2148   19.3991   62.9045 O   0  0  0  0  0  0  0  0  0  0  0  0
   37.2029   23.9258   59.4605 O   0  0  0  0  0  0  0  0  0  0  0  0
   32.1479   19.8117   61.8824 C   0  0  0  0  0  0  0  0  0  0  0  0
   32.4054   23.8967   60.1382 C   0  0  0  0  0  0  0  0  0  0  0  0
   35.9752   24.6408   59.2346 C   0  0  0  0  0  0  0  0  0  0  0  0
   31.6896   21.1254   61.2321 C   0  0  0  0  0  0  0  0  0  0  0  0
   32.1326   22.5639   59.4027 C   0  0  0  0  0  0  0  0  0  0  0  0
   34.7922   23.8763   59.8736 C   0  0  0  0  0  0  0  0  0  0  0  0
  1 12  1  0  0  0  0
  1 11  1  0  0  0  0
  2 13  1  0  0  0  0
  2  9  1  0  0  0  0
  3  4  1  6  0  0  0
  3  5  2  0  0  0  0
  3  6  1  0  0  0  0
  6  8  1  0  0  0  0
  7 10  1  0  0  0  0
  8 11  1  0  0  0  0
  9 12  1  0  0  0  0
 10 13  1  0  0  0  0
M  CHG  1   4  -1
M  END
>  <CHROM.1>
78.56118425,-179.99613631,158.51511813,174.87279247,-176.68589535,-70.35429444
101.83315871,-176.46867967,171.88900493,32.74183615,21.08787882,61.41598125
1.10178816,0.02444596,-0.58403503

>  <Name>
ligand

>  <RI>
0

>  <Rbt.Current_Directory>
/home/itssahil/PROJECTS/Mol_Feturizer/New_Systems/rnas/3GS8

>  <Rbt.Executable>
rbdock ($Id: //depot/dev/client3/rdock/2013.1/src/exe/rbdock.cxx#4 $)

>  <Rbt.Library>
libRbt.so (2013.1, Build901 2013/11/27)

>  <Rbt.Parameter_File>
/export/apps/rDock/src/rDock_2013.1_src/data/scripts/dock_solv.prm

>  <Rbt.Receptor>
prm/blind_docking_100.prm

>  <SCORE>
-11.3816

>  <SCORE.INTER>
-0.0703302

>  <SCORE.INTER.CONST>
1

>  <SCORE.INTER.POLAR>
0

>  <SCORE.INTER.ROT>
9

>  <SCORE.INTER.SOLV>
16.8569

>  <SCORE.INTER.VDW>
-15.2659

>  <SCORE.INTER.norm>
-0.00541002

>  <SCORE.INTRA>
-11.3113

>  <SCORE.INTRA.DIHEDRAL>
-24.6725

>  <SCORE.INTRA.DIHEDRAL.0>
31.9578

>  <SCORE.INTRA.POLAR>
0

>  <SCORE.INTRA.POLAR.0>
0

>  <SCORE.INTRA.REPUL>
0

>  <SCORE.INTRA.REPUL.0>
0

>  <SCORE.INTRA.SOLV>
-1.74853

>  <SCORE.INTRA.SOLV.lig_0>
-48.4032

>  <SCORE.INTRA.VDW>
1.89922

>  <SCORE.INTRA.VDW.0>
-1.65238

>  <SCORE.INTRA.norm>
-0.8701

>  <SCORE.RESTR>
0

>  <SCORE.RESTR.CAVITY>
0

>  <SCORE.RESTR.norm>
0

>  <SCORE.SYSTEM>
0

>  <SCORE.SYSTEM.CONST>
0

>  <SCORE.SYSTEM.DIHEDRAL>
0

>  <SCORE.SYSTEM.SOLV>
0

>  <SCORE.SYSTEM.norm>
0

>  <SCORE.heavy>
13

>  <SCORE.norm>
-0.87551

>  <RMSD>
19.445

$$$$
ligand
 OpenBabel11021811473D
libRbt.so/2013.1/901 2013/11/27
 13 12  0  0  0  0  0  0  0  0999 V2000
   34.4569   22.8680   63.2413 O   0  0  0  0  0  0  0  0  0  0  0  0
   35.9465   24.7064   61.6029 O   0  0  0  0  0  0  0  0  0  0  0  0
   31.5046   19.6644   62.5274 P   0  0  1  0  0  0  0  0  0  0  0  0
   31.3993   18.6301   63.6137 O   0  5  0  0  0  0  0  0  0  0  0  0
   30.5519   19.9811   61.4859 O   0  0  0  0  0  0  0  0  0  0  0  0
   32.4191   20.8131   63.1965 O   0  0  0  0  0  0  0  0  0  0  0  0
   37.0960   26.0961   58.3711 O   0  0  0  0  0  0  0  0  0  0  0  0
   33.7985   20.5778   63.5536 C   0  0  0  0  0  0  0  0  0  0  0  0
   35.1485   25.1676   62.7103 C   0  0  0  0  0  0  0  0  0  0  0  0
   36.9461   25.1143   59.4119 C   0  0  0  0  0  0  0  0  0  0  0  0
   34.4041   21.8238   64.2166 C   0  0  0  0  0  0  0  0  0  0  0  0
   35.0410   24.0654   63.7898 C   0  0  0  0  0  0  0  0  0  0  0  0
   36.0882   25.6901   60.5630 C   0  0  0  0  0  0  0  0  0  0  0  0
  1 12  1  0  0  0  0
  1 11  1  0  0  0  0
  2 13  1  0  0  0  0
  2  9  1  0  0  0  0
  3  4  1  1  0  0  0
  3  5  2  0  0  0  0
  3  6  1  0  0  0  0
  6  8  1  0  0  0  0
  7 10  1  0  0  0  0
  8 11  1  0  0  0  0
  9 12  1  0  0  0  0
 10 13  1  0  0  0  0
M  CHG  1   4  -1
M  END
>  <CHROM.1>
177.57841699,-179.58303364,65.32044694,-177.86018588,-65.97207096,-179.84325277
-58.57572396,-179.76001860,-178.89236932,33.96586205,22.43386400,62.18950961
-0.45516462,0.83471253,1.73185208

>  <Name>
ligand

>  <RI>
0

>  <Rbt.Current_Directory>
/home/itssahil/PROJECTS/Mol_Feturizer/New_Systems/rnas/3GS8

>  <Rbt.Executable>
rbdock ($Id: //depot/dev/client3/rdock/2013.1/src/exe/rbdock.cxx#4 $)

>  <Rbt.Library>
libRbt.so (2013.1, Build901 2013/11/27)

>  <Rbt.Parameter_File>
/export/apps/rDock/src/rDock_2013.1_src/data/scripts/dock_solv.prm

>  <Rbt.Receptor>
prm/blind_docking_80.prm

>  <SCORE>
-15.7783

>  <SCORE.INTER>
0.357399

>  <SCORE.INTER.CONST>
1

>  <SCORE.INTER.POLAR>
0

>  <SCORE.INTER.ROT>
9

>  <SCORE.INTER.SOLV>
8.44717

>  <SCORE.INTER.VDW>
-12.1775

>  <SCORE.INTER.norm>
0.0274922

>  <SCORE.INTRA>
-16.1357

>  <SCORE.INTRA.DIHEDRAL>
-31.1723

>  <SCORE.INTRA.DIHEDRAL.0>
31.9578

>  <SCORE.INTRA.POLAR>
0

>  <SCORE.INTRA.POLAR.0>
0

>  <SCORE.INTRA.REPUL>
0

>  <SCORE.INTRA.REPUL.0>
0

>  <SCORE.INTRA.SOLV>
-1.56841

>  <SCORE.INTRA.SOLV.lig_0>
-48.4032

>  <SCORE.INTRA.VDW>
0.234654

>  <SCORE.INTRA.VDW.0>
-1.65238

>  <SCORE.INTRA.norm>
-1.24121

>  <SCORE.RESTR>
0

>  <SCORE.RESTR.CAVITY>
0

>  <SCORE.RESTR.norm>
0

>  <SCORE.SYSTEM>
0

>  <SCORE.SYSTEM.CONST>
0

>  <SCORE.SYSTEM.DIHEDRAL>
0

>  <SCORE.SYSTEM.SOLV>
0

>  <SCORE.SYSTEM.norm>
0

>  <SCORE.heavy>
13

>  <SCORE.norm>
-1.21372

>  <RMSD>
19.469

$$$$
ligand
 OpenBabel11021811473D
libRbt.so/2013.1/901 2013/11/27
 13 12  0  0  0  0  0  0  0  0999 V2000
   34.3992   22.6621   63.0870 O   0  0  0  0  0  0  0  0  0  0  0  0
   35.6332   24.5069   61.2642 O   0  0  0  0  0  0  0  0  0  0  0  0
   31.4615   19.5128   62.3993 P   0  0  1  0  0  0  0  0  0  0  0  0
   30.9040   18.7541   63.5717 O   0  5  0  0  0  0  0  0  0  0  0  0
   30.8720   19.7208   61.0947 O   0  0  0  0  0  0  0  0  0  0  0  0
   32.3714   20.6506   63.0927 O   0  0  0  0  0  0  0  0  0  0  0  0
   37.8839   26.1523   60.6880 O   0  0  0  0  0  0  0  0  0  0  0  0
   33.7304   20.3923   63.5074 C   0  0  0  0  0  0  0  0  0  0  0  0
   35.0086   24.9658   62.4788 C   0  0  0  0  0  0  0  0  0  0  0  0
   36.5438   26.6476   60.5198 C   0  0  0  0  0  0  0  0  0  0  0  0
   34.3621   21.6584   64.1046 C   0  0  0  0  0  0  0  0  0  0  0  0
   35.0524   23.8573   63.5564 C   0  0  0  0  0  0  0  0  0  0  0  0
   35.5828   25.4776   60.2038 C   0  0  0  0  0  0  0  0  0  0  0  0
  1 12  1  0  0  0  0
  1 11  1  0  0  0  0
  2 13  1  0  0  0  0
  2  9  1  0  0  0  0
  3  4  1  1  0  0  0
  3  5  2  0  0  0  0
  3  6  1  0  0  0  0
  6  8  1  0  0  0  0
  7 10  1  0  0  0  0
  8 11  1  0  0  0  0
  9 12  1  0  0  0  0
 10 13  1  0  0  0  0
M  CHG  1   4  -1
M  END
>  <CHROM.1>
-176.46394750,71.40712849,83.99041961,178.73615711,-62.16037954,177.91410803
-57.94618785,58.13363729,-176.66986343,33.89807586,22.39972973,62.27659283
-0.55002062,0.77467593,2.03011770

>  <Name>
ligand

>  <RI>
0

>  <Rbt.Current_Directory>
/home/itssahil/PROJECTS/Mol_Feturizer/New_Systems/rnas/3GS8

>  <Rbt.Executable>
rbdock ($Id: //depot/dev/client3/rdock/2013.1/src/exe/rbdock.cxx#4 $)

>  <Rbt.Library>
libRbt.so (2013.1, Build901 2013/11/27)

>  <Rbt.Parameter_File>
/export/apps/rDock/src/rDock_2013.1_src/data/scripts/dock_solv.prm

>  <Rbt.Receptor>
prm/blind_docking_80.prm

>  <SCORE>
-15.2934

>  <SCORE.INTER>
-0.666193

>  <SCORE.INTER.CONST>
1

>  <SCORE.INTER.POLAR>
0

>  <SCORE.INTER.ROT>
9

>  <SCORE.INTER.SOLV>
7.74277

>  <SCORE.INTER.VDW>
-12.6251

>  <SCORE.INTER.norm>
-0.0512456

>  <SCORE.INTRA>
-14.6272

>  <SCORE.INTRA.DIHEDRAL>
-30.071

>  <SCORE.INTRA.DIHEDRAL.0>
31.9578

>  <SCORE.INTRA.POLAR>
0

>  <SCORE.INTRA.POLAR.0>
0

>  <SCORE.INTRA.REPUL>
0

>  <SCORE.INTRA.REPUL.0>
0

>  <SCORE.INTRA.SOLV>
-1.24221

>  <SCORE.INTRA.SOLV.lig_0>
-48.4032

>  <SCORE.INTRA.VDW>
1.02935

>  <SCORE.INTRA.VDW.0>
-1.65238

>  <SCORE.INTRA.norm>
-1.12517

>  <SCORE.RESTR>
0

>  <SCORE.RESTR.CAVITY>
0

>  <SCORE.RESTR.norm>
0

>  <SCORE.SYSTEM>
0

>  <SCORE.SYSTEM.CONST>
0

>  <SCORE.SYSTEM.DIHEDRAL>
0

>  <SCORE.SYSTEM.SOLV>
0

>  <SCORE.SYSTEM.norm>
0

>  <SCORE.heavy>
13

>  <SCORE.norm>
-1.17642

>  <RMSD>
19.477

$$$$
ligand
 OpenBabel11021811473D
libRbt.so/2013.1/901 2013/11/27
 13 12  0  0  0  0  0  0  0  0999 V2000
   35.0774   22.4936   63.1436 O   0  0  0  0  0  0  0  0  0  0  0  0
   35.2531   25.0395   61.7396 O   0  0  0  0  0  0  0  0  0  0  0  0
   31.3515   19.1618   62.2767 P   0  0  1  0  0  0  0  0  0  0  0  0
   31.0302   17.8992   63.0275 O   0  5  0  0  0  0  0  0  0  0  0  0
   30.4581   20.0230   61.5332 O   0  0  0  0  0  0  0  0  0  0  0  0
   32.6069   19.7673   63.0895 O   0  0  0  0  0  0  0  0  0  0  0  0
   36.8538   25.0549   59.3644 O   0  0  0  0  0  0  0  0  0  0  0  0
   33.3157   20.9403   62.6342 C   0  0  0  0  0  0  0  0  0  0  0  0
   35.0445   24.9526   63.1626 C   0  0  0  0  0  0  0  0  0  0  0  0
   36.1615   26.2337   59.8123 C   0  0  0  0  0  0  0  0  0  0  0  0
   34.4634   21.2839   63.5951 C   0  0  0  0  0  0  0  0  0  0  0  0
   34.2971   23.6458   63.5164 C   0  0  0  0  0  0  0  0  0  0  0  0
   36.0044   26.2028   61.3507 C   0  0  0  0  0  0  0  0  0  0  0  0
  1 12  1  0  0  0  0
  1 11  1  0  0  0  0
  2 13  1  0  0  0  0
  2  9  1  0  0  0  0
  3  4  1  1  0  0  0
  3  5  2  0  0  0  0
  3  6  1  0  0  0  0
  6  8  1  0  0  0  0
  7 10  1  0  0  0  0
  8 11  1  0  0  0  0
  9 12  1  0  0  0  0
 10 13  1  0  0  0  0
M  CHG  1   4  -1
M  END
>  <CHROM.1>
173.73501039,-178.99311969,174.63436214,-179.72500862,-176.54462791,-177.06066380
62.20673545,-59.94277451,78.45568157,33.75651872,22.20111404,62.17046152
-0.44386238,0.88426655,1.88580656

>  <Name>
ligand

>  <RI>
0

>  <Rbt.Current_Directory>
/home/itssahil/PROJECTS/Mol_Feturizer/New_Systems/rnas/3GS8

>  <Rbt.Executable>
rbdock ($Id: //depot/dev/client3/rdock/2013.1/src/exe/rbdock.cxx#4 $)

>  <Rbt.Library>
libRbt.so (2013.1, Build901 2013/11/27)

>  <Rbt.Parameter_File>
/export/apps/rDock/src/rDock_2013.1_src/data/scripts/dock_solv.prm

>  <Rbt.Receptor>
prm/blind_docking_100.prm

>  <SCORE>
-15.5178

>  <SCORE.INTER>
-1.00495

>  <SCORE.INTER.CONST>
1

>  <SCORE.INTER.POLAR>
0

>  <SCORE.INTER.ROT>
9

>  <SCORE.INTER.SOLV>
7.30029

>  <SCORE.INTER.VDW>
-12.7034

>  <SCORE.INTER.norm>
-0.0773039

>  <SCORE.INTRA>
-14.5128

>  <SCORE.INTRA.DIHEDRAL>
-29.733

>  <SCORE.INTRA.DIHEDRAL.0>
31.9578

>  <SCORE.INTRA.POLAR>
0

>  <SCORE.INTRA.POLAR.0>
0

>  <SCORE.INTRA.REPUL>
0

>  <SCORE.INTRA.REPUL.0>
0

>  <SCORE.INTRA.SOLV>
-1.54056

>  <SCORE.INTRA.SOLV.lig_0>
-48.4032

>  <SCORE.INTRA.VDW>
1.12395

>  <SCORE.INTRA.VDW.0>
-1.65238

>  <SCORE.INTRA.norm>
-1.11637

>  <SCORE.RESTR>
0

>  <SCORE.RESTR.CAVITY>
0

>  <SCORE.RESTR.norm>
0

>  <SCORE.SYSTEM>
0

>  <SCORE.SYSTEM.CONST>
0

>  <SCORE.SYSTEM.DIHEDRAL>
0

>  <SCORE.SYSTEM.SOLV>
0

>  <SCORE.SYSTEM.norm>
0

>  <SCORE.heavy>
13

>  <SCORE.norm>
-1.19368

>  <RMSD>
19.489

$$$$
ligand
 OpenBabel11021811473D
libRbt.so/2013.1/901 2013/11/27
 13 12  0  0  0  0  0  0  0  0999 V2000
   34.1354   22.9840   63.6910 O   0  0  0  0  0  0  0  0  0  0  0  0
   34.8709   25.6073   62.7979 O   0  0  0  0  0  0  0  0  0  0  0  0
   30.8260   20.3146   62.6750 P   0  0  1  0  0  0  0  0  0  0  0  0
   29.6939   20.4667   63.6529 O   0  5  0  0  0  0  0  0  0  0  0  0
   30.7690   20.2381   61.2315 O   0  0  0  0  0  0  0  0  0  0  0  0
   32.0609   21.0356   63.4224 O   0  0  0  0  0  0  0  0  0  0  0  0
   35.7462   27.2700   60.6491 O   0  0  0  0  0  0  0  0  0  0  0  0
   33.4325   20.7764   63.0520 C   0  0  0  0  0  0  0  0  0  0  0  0
   34.7341   25.3140   64.2019 C   0  0  0  0  0  0  0  0  0  0  0  0
   36.3011   25.9579   60.8492 C   0  0  0  0  0  0  0  0  0  0  0  0
   34.3917   21.5972   63.9265 C   0  0  0  0  0  0  0  0  0  0  0  0
   35.0180   23.8171   64.4673 C   0  0  0  0  0  0  0  0  0  0  0  0
   36.2367   25.5787   62.3473 C   0  0  0  0  0  0  0  0  0  0  0  0
  1 12  1  0  0  0  0
  1 11  1  0  0  0  0
  2 13  1  0  0  0  0
  2  9  1  0  0  0  0
  3  4  1  6  0  0  0
  3  5  2  0  0  0  0
  3  6  1  0  0  0  0
  6  8  1  0  0  0  0
  7 10  1  0  0  0  0
  8 11  1  0  0  0  0
  9 12  1  0  0  0  0
 10 13  1  0  0  0  0
M  CHG  1   4  -1
M  END
>  <CHROM.1>
179.85831222,-177.75661886,160.40111102,179.96202800,-62.41092495,-71.38680005
-57.41660782,58.91831227,-179.11155900,33.43101859,22.91078735,62.81478238
-0.48222858,0.75233515,2.09463076

>  <Name>
ligand

>  <RI>
0

>  <Rbt.Current_Directory>
/home/itssahil/PROJECTS/Mol_Feturizer/New_Systems/rnas/3GS8

>  <Rbt.Executable>
rbdock ($Id: //depot/dev/client3/rdock/2013.1/src/exe/rbdock.cxx#4 $)

>  <Rbt.Library>
libRbt.so (2013.1, Build901 2013/11/27)

>  <Rbt.Parameter_File>
/export/apps/rDock/src/rDock_2013.1_src/data/scripts/dock_solv.prm

>  <Rbt.Receptor>
prm/blind_docking_80.prm

>  <SCORE>
-13.9922

>  <SCORE.INTER>
1.27638

>  <SCORE.INTER.CONST>
1

>  <SCORE.INTER.POLAR>
0

>  <SCORE.INTER.ROT>
9

>  <SCORE.INTER.SOLV>
6.64584

>  <SCORE.INTER.VDW>
-10.9644

>  <SCORE.INTER.norm>
0.098183

>  <SCORE.INTRA>
-15.2686

>  <SCORE.INTRA.DIHEDRAL>
-30.9683

>  <SCORE.INTRA.DIHEDRAL.0>
31.9578

>  <SCORE.INTRA.POLAR>
0

>  <SCORE.INTRA.POLAR.0>
0

>  <SCORE.INTRA.REPUL>
0

>  <SCORE.INTRA.REPUL.0>
0

>  <SCORE.INTRA.SOLV>
-1.37574

>  <SCORE.INTRA.SOLV.lig_0>
-48.4032

>  <SCORE.INTRA.VDW>
0.903475

>  <SCORE.INTRA.VDW.0>
-1.65238

>  <SCORE.INTRA.norm>
-1.1745

>  <SCORE.RESTR>
0

>  <SCORE.RESTR.CAVITY>
0

>  <SCORE.RESTR.norm>
0

>  <SCORE.SYSTEM>
0

>  <SCORE.SYSTEM.CONST>
0

>  <SCORE.SYSTEM.DIHEDRAL>
0

>  <SCORE.SYSTEM.SOLV>
0

>  <SCORE.SYSTEM.norm>
0

>  <SCORE.heavy>
13

>  <SCORE.norm>
-1.07632

>  <RMSD>
19.541

$$$$
ligand
 OpenBabel11021811473D
libRbt.so/2013.1/901 2013/11/27
 13 12  0  0  0  0  0  0  0  0999 V2000
   31.4282   21.8426   61.4966 O   0  0  0  0  0  0  0  0  0  0  0  0
   34.1919   23.5621   59.7306 O   0  0  0  0  0  0  0  0  0  0  0  0
   31.2159   17.9432   63.5306 P   0  0  1  0  0  0  0  0  0  0  0  0
   30.5758   16.5987   63.7395 O   0  5  0  0  0  0  0  0  0  0  0  0
   32.5653   18.2453   63.1054 O   0  0  0  0  0  0  0  0  0  0  0  0
   29.9766   18.8804   63.0959 O   0  0  0  0  0  0  0  0  0  0  0  0
   36.8621   26.0569   59.1482 O   0  0  0  0  0  0  0  0  0  0  0  0
   30.1481   20.2843   62.8040 C   0  0  0  0  0  0  0  0  0  0  0  0
   33.0139   23.4696   60.5550 C   0  0  0  0  0  0  0  0  0  0  0  0
   36.1878   24.7905   59.0426 C   0  0  0  0  0  0  0  0  0  0  0  0
   31.0222   20.4729   61.5554 C   0  0  0  0  0  0  0  0  0  0  0  0
   32.3961   22.0556   60.4510 C   0  0  0  0  0  0  0  0  0  0  0  0
   34.8924   24.8086   59.8875 C   0  0  0  0  0  0  0  0  0  0  0  0
  1 12  1  0  0  0  0
  1 11  1  0  0  0  0
  2 13  1  0  0  0  0
  2  9  1  0  0  0  0
  3  4  1  6  0  0  0
  3  5  2  0  0  0  0
  3  6  1  0  0  0  0
  6  8  1  0  0  0  0
  7 10  1  0  0  0  0
  8 11  1  0  0  0  0
  9 12  1  0  0  0  0
 10 13  1  0  0  0  0
M  CHG  1   4  -1
M  END
>  <CHROM.1>
-169.91486577,176.32683484,179.48127971,65.30775249,-166.14762495,-174.02238939
166.04295379,177.43169569,172.29262295,32.53383222,21.14636444,61.58509758
2.10500222,-0.08616377,2.67498587

>  <Name>
ligand

>  <RI>
0

>  <Rbt.Current_Directory>
/home/itssahil/PROJECTS/Mol_Feturizer/New_Systems/rnas/3GS8

>  <Rbt.Executable>
rbdock ($Id: //depot/dev/client3/rdock/2013.1/src/exe/rbdock.cxx#4 $)

>  <Rbt.Library>
libRbt.so (2013.1, Build901 2013/11/27)

>  <Rbt.Parameter_File>
/export/apps/rDock/src/rDock_2013.1_src/data/scripts/dock_solv.prm

>  <Rbt.Receptor>
prm/blind_docking_100.prm

>  <SCORE>
-12.4315

>  <SCORE.INTER>
1.50895

>  <SCORE.INTER.CONST>
1

>  <SCORE.INTER.POLAR>
0

>  <SCORE.INTER.ROT>
9

>  <SCORE.INTER.SOLV>
12.6764

>  <SCORE.INTER.VDW>
-12.8195

>  <SCORE.INTER.norm>
0.116073

>  <SCORE.INTRA>
-13.9405

>  <SCORE.INTRA.DIHEDRAL>
-28.9214

>  <SCORE.INTRA.DIHEDRAL.0>
31.9578

>  <SCORE.INTRA.POLAR>
0

>  <SCORE.INTRA.POLAR.0>
0

>  <SCORE.INTRA.REPUL>
0

>  <SCORE.INTRA.REPUL.0>
0

>  <SCORE.INTRA.SOLV>
-0.0843803

>  <SCORE.INTRA.SOLV.lig_0>
-48.4032

>  <SCORE.INTRA.VDW>
0.562421

>  <SCORE.INTRA.VDW.0>
-1.65238

>  <SCORE.INTRA.norm>
-1.07234

>  <SCORE.RESTR>
0

>  <SCORE.RESTR.CAVITY>
0

>  <SCORE.RESTR.norm>
0

>  <SCORE.SYSTEM>
0

>  <SCORE.SYSTEM.CONST>
0

>  <SCORE.SYSTEM.DIHEDRAL>
0

>  <SCORE.SYSTEM.SOLV>
0

>  <SCORE.SYSTEM.norm>
0

>  <SCORE.heavy>
13

>  <SCORE.norm>
-0.95627

>  <RMSD>
19.559

$$$$
ligand
 OpenBabel11021811473D
libRbt.so/2013.1/901 2013/11/27
 13 12  0  0  0  0  0  0  0  0999 V2000
   32.7114   21.9121   62.0162 O   0  0  0  0  0  0  0  0  0  0  0  0
   34.7317   24.6442   60.5184 O   0  0  0  0  0  0  0  0  0  0  0  0
   31.3296   18.0789   63.4328 P   0  0  1  0  0  0  0  0  0  0  0  0
   30.8307   17.2276   62.2981 O   0  5  0  0  0  0  0  0  0  0  0  0
   31.6135   17.6901   64.7970 O   0  0  0  0  0  0  0  0  0  0  0  0
   32.2080   19.2099   62.6895 O   0  0  0  0  0  0  0  0  0  0  0  0
   37.0144   25.3675   58.8595 O   0  0  0  0  0  0  0  0  0  0  0  0
   33.1858   20.0030   63.3969 C   0  0  0  0  0  0  0  0  0  0  0  0
   34.1539   23.8547   61.5761 C   0  0  0  0  0  0  0  0  0  0  0  0
   36.3839   26.2818   59.7739 C   0  0  0  0  0  0  0  0  0  0  0  0
   33.7786   21.0778   62.4738 C   0  0  0  0  0  0  0  0  0  0  0  0
   33.1616   22.8215   60.9934 C   0  0  0  0  0  0  0  0  0  0  0  0
   35.7900   25.5060   60.9729 C   0  0  0  0  0  0  0  0  0  0  0  0
  1 12  1  0  0  0  0
  1 11  1  0  0  0  0
  2 13  1  0  0  0  0
  2  9  1  0  0  0  0
  3  4  1  6  0  0  0
  3  5  2  0  0  0  0
  3  6  1  0  0  0  0
  6  8  1  0  0  0  0
  7 10  1  0  0  0  0
  8 11  1  0  0  0  0
  9 12  1  0  0  0  0
 10 13  1  0  0  0  0
M  CHG  1   4  -1
M  END
>  <CHROM.1>
-67.16397012,178.20246600,-161.50487112,-175.01012644,59.48969700,-172.43657499
172.42999869,-64.91650220,-171.56163037,33.40066106,21.47523277,61.96106035
-2.69123769,-1.01267326,-1.48606275

>  <Name>
ligand

>  <RI>
0

>  <Rbt.Current_Directory>
/home/itssahil/PROJECTS/Mol_Feturizer/New_Systems/rnas/3GS8

>  <Rbt.Executable>
rbdock ($Id: //depot/dev/client3/rdock/2013.1/src/exe/rbdock.cxx#4 $)

>  <Rbt.Library>
libRbt.so (2013.1, Build901 2013/11/27)

>  <Rbt.Parameter_File>
/export/apps/rDock/src/rDock_2013.1_src/data/scripts/dock_solv.prm

>  <Rbt.Receptor>
prm/blind_docking_100.prm

>  <SCORE>
-14.0183

>  <SCORE.INTER>
-0.0420197

>  <SCORE.INTER.CONST>
1

>  <SCORE.INTER.POLAR>
0

>  <SCORE.INTER.ROT>
9

>  <SCORE.INTER.SOLV>
13.3292

>  <SCORE.INTER.VDW>
-14.0711

>  <SCORE.INTER.norm>
-0.00323229

>  <SCORE.INTRA>
-13.9763

>  <SCORE.INTRA.DIHEDRAL>
-29.7043

>  <SCORE.INTRA.DIHEDRAL.0>
31.9578

>  <SCORE.INTRA.POLAR>
0

>  <SCORE.INTRA.POLAR.0>
0

>  <SCORE.INTRA.REPUL>
0

>  <SCORE.INTRA.REPUL.0>
0

>  <SCORE.INTRA.SOLV>
-1.44784

>  <SCORE.INTRA.SOLV.lig_0>
-48.4032

>  <SCORE.INTRA.VDW>
1.59981

>  <SCORE.INTRA.VDW.0>
-1.65238

>  <SCORE.INTRA.norm>
-1.0751

>  <SCORE.RESTR>
0

>  <SCORE.RESTR.CAVITY>
0

>  <SCORE.RESTR.norm>
0

>  <SCORE.SYSTEM>
0

>  <SCORE.SYSTEM.CONST>
0

>  <SCORE.SYSTEM.DIHEDRAL>
0

>  <SCORE.SYSTEM.SOLV>
0

>  <SCORE.SYSTEM.norm>
0

>  <SCORE.heavy>
13

>  <SCORE.norm>
-1.07833

>  <RMSD>
19.663

$$$$
ligand
 OpenBabel11021811473D
libRbt.so/2013.1/901 2013/11/27
 13 12  0  0  0  0  0  0  0  0999 V2000
   33.0826   22.0929   61.5623 O   0  0  0  0  0  0  0  0  0  0  0  0
   32.8207   18.8530   63.3642 O   0  0  0  0  0  0  0  0  0  0  0  0
   35.5942   25.2576   60.1001 P   0  0  1  0  0  0  0  0  0  0  0  0
   35.6632   25.7013   61.5352 O   0  5  0  0  0  0  0  0  0  0  0  0
   36.5640   25.4568   59.0452 O   0  0  0  0  0  0  0  0  0  0  0  0
   34.7040   23.9138   60.1698 O   0  0  0  0  0  0  0  0  0  0  0  0
   29.7745   16.7787   63.7003 O   0  0  0  0  0  0  0  0  0  0  0  0
   33.2659   23.9445   60.0411 C   0  0  0  0  0  0  0  0  0  0  0  0
   33.1141   20.2533   63.1943 C   0  0  0  0  0  0  0  0  0  0  0  0
   31.1835   17.0686   63.6823 C   0  0  0  0  0  0  0  0  0  0  0  0
   32.6740   22.5458   60.2692 C   0  0  0  0  0  0  0  0  0  0  0  0
   32.7082   20.7183   61.7763 C   0  0  0  0  0  0  0  0  0  0  0  0
   31.4103   18.5764   63.4229 C   0  0  0  0  0  0  0  0  0  0  0  0
  1 12  1  0  0  0  0
  1 11  1  0  0  0  0
  2 13  1  0  0  0  0
  2  9  1  0  0  0  0
  3  4  1  1  0  0  0
  3  5  2  0  0  0  0
  3  6  1  0  0  0  0
  6  8  1  0  0  0  0
  7 10  1  0  0  0  0
  8 11  1  0  0  0  0
  9 12  1  0  0  0  0
 10 13  1  0  0  0  0
M  CHG  1   4  -1
M  END
>  <CHROM.1>
-178.16381300,-176.94421577,90.21544788,-175.00668181,57.20690931,-69.81298728
-175.96486339,-178.20271724,-172.57262902,33.48775865,21.94742586,61.54814836
2.17840543,0.59935479,2.32778905

>  <Name>
ligand

>  <RI>
0

>  <Rbt.Current_Directory>
/home/itssahil/PROJECTS/Mol_Feturizer/New_Systems/rnas/3GS8

>  <Rbt.Executable>
rbdock ($Id: //depot/dev/client3/rdock/2013.1/src/exe/rbdock.cxx#4 $)

>  <Rbt.Library>
libRbt.so (2013.1, Build901 2013/11/27)

>  <Rbt.Parameter_File>
/export/apps/rDock/src/rDock_2013.1_src/data/scripts/dock_solv.prm

>  <Rbt.Receptor>
prm/blind_docking_100.prm

>  <SCORE>
-16.3157

>  <SCORE.INTER>
-1.85062

>  <SCORE.INTER.CONST>
1

>  <SCORE.INTER.POLAR>
0

>  <SCORE.INTER.ROT>
9

>  <SCORE.INTER.SOLV>
12.7682

>  <SCORE.INTER.VDW>
-15.0898

>  <SCORE.INTER.norm>
-0.142356

>  <SCORE.INTRA>
-14.4651

>  <SCORE.INTRA.DIHEDRAL>
-29.7375

>  <SCORE.INTRA.DIHEDRAL.0>
31.9578

>  <SCORE.INTRA.POLAR>
0

>  <SCORE.INTRA.POLAR.0>
0

>  <SCORE.INTRA.REPUL>
0

>  <SCORE.INTRA.REPUL.0>
0

>  <SCORE.INTRA.SOLV>
-1.71277

>  <SCORE.INTRA.SOLV.lig_0>
-48.4032

>  <SCORE.INTRA.VDW>
1.26004

>  <SCORE.INTRA.VDW.0>
-1.65238

>  <SCORE.INTRA.norm>
-1.1127

>  <SCORE.RESTR>
0

>  <SCORE.RESTR.CAVITY>
0

>  <SCORE.RESTR.norm>
0

>  <SCORE.SYSTEM>
0

>  <SCORE.SYSTEM.CONST>
0

>  <SCORE.SYSTEM.DIHEDRAL>
0

>  <SCORE.SYSTEM.SOLV>
0

>  <SCORE.SYSTEM.norm>
0

>  <SCORE.heavy>
13

>  <SCORE.norm>
-1.25506

>  <RMSD>
19.766

$$$$
ligand
 OpenBabel11021811473D
libRbt.so/2013.1/901 2013/11/27
 13 12  0  0  0  0  0  0  0  0999 V2000
   34.7880   22.2086   62.5035 O   0  0  0  0  0  0  0  0  0  0  0  0
   35.2819   24.9197   61.7001 O   0  0  0  0  0  0  0  0  0  0  0  0
   31.5637   19.1059   63.2900 P   0  0  1  0  0  0  0  0  0  0  0  0
   31.2923   17.6476   63.0431 O   0  5  0  0  0  0  0  0  0  0  0  0
   30.6650   20.1186   63.7996 O   0  0  0  0  0  0  0  0  0  0  0  0
   33.1376   19.1354   63.6437 O   0  0  0  0  0  0  0  0  0  0  0  0
   36.6295   25.2699   59.2329 O   0  0  0  0  0  0  0  0  0  0  0  0
   33.8704   20.3747   63.7569 C   0  0  0  0  0  0  0  0  0  0  0  0
   35.1752   24.5648   63.0924 C   0  0  0  0  0  0  0  0  0  0  0  0
   36.1421   26.4083   59.9651 C   0  0  0  0  0  0  0  0  0  0  0  0
   33.8344   21.1459   62.4292 C   0  0  0  0  0  0  0  0  0  0  0  0
   34.2726   23.3203   63.2611 C   0  0  0  0  0  0  0  0  0  0  0  0
   36.0954   26.0848   61.4768 C   0  0  0  0  0  0  0  0  0  0  0  0
  1 12  1  0  0  0  0
  1 11  1  0  0  0  0
  2 13  1  0  0  0  0
  2  9  1  0  0  0  0
  3  4  1  1  0  0  0
  3  5  2  0  0  0  0
  3  6  1  0  0  0  0
  6  8  1  0  0  0  0
  7 10  1  0  0  0  0
  8 11  1  0  0  0  0
  9 12  1  0  0  0  0
 10 13  1  0  0  0  0
M  CHG  1   4  -1
M  END
>  <CHROM.1>
-168.23751527,-179.21182059,170.53126414,-60.74514189,-168.18666047,179.16320773
57.77245233,-56.66014470,-78.80092207,33.83353540,22.02843198,62.46660157
0.16932696,1.01851634,0.99845129

>  <Name>
ligand

>  <RI>
0

>  <Rbt.Current_Directory>
/home/itssahil/PROJECTS/Mol_Feturizer/New_Systems/rnas/3GS8

>  <Rbt.Executable>
rbdock ($Id: //depot/dev/client3/rdock/2013.1/src/exe/rbdock.cxx#4 $)

>  <Rbt.Library>
libRbt.so (2013.1, Build901 2013/11/27)

>  <Rbt.Parameter_File>
/export/apps/rDock/src/rDock_2013.1_src/data/scripts/dock_solv.prm

>  <Rbt.Receptor>
prm/blind_docking_80.prm

>  <SCORE>
-14.1925

>  <SCORE.INTER>
-1.10392

>  <SCORE.INTER.CONST>
1

>  <SCORE.INTER.POLAR>
0

>  <SCORE.INTER.ROT>
9

>  <SCORE.INTER.SOLV>
9.09857

>  <SCORE.INTER.VDW>
-13.3688

>  <SCORE.INTER.norm>
-0.0849168

>  <SCORE.INTRA>
-13.0886

>  <SCORE.INTRA.DIHEDRAL>
-28.7907

>  <SCORE.INTRA.DIHEDRAL.0>
31.9578

>  <SCORE.INTRA.POLAR>
0

>  <SCORE.INTRA.POLAR.0>
0

>  <SCORE.INTRA.REPUL>
0

>  <SCORE.INTRA.REPUL.0>
0

>  <SCORE.INTRA.SOLV>
-0.0874298

>  <SCORE.INTRA.SOLV.lig_0>
-48.4032

>  <SCORE.INTRA.VDW>
1.35049

>  <SCORE.INTRA.VDW.0>
-1.65238

>  <SCORE.INTRA.norm>
-1.00681

>  <SCORE.RESTR>
0

>  <SCORE.RESTR.CAVITY>
0

>  <SCORE.RESTR.norm>
0

>  <SCORE.SYSTEM>
0

>  <SCORE.SYSTEM.CONST>
0

>  <SCORE.SYSTEM.DIHEDRAL>
0

>  <SCORE.SYSTEM.SOLV>
0

>  <SCORE.SYSTEM.norm>
0

>  <SCORE.heavy>
13

>  <SCORE.norm>
-1.09173

>  <RMSD>
19.785

$$$$
ligand
 OpenBabel11021811473D
libRbt.so/2013.1/901 2013/11/27
 13 12  0  0  0  0  0  0  0  0999 V2000
   34.2547   21.8181   62.1705 O   0  0  0  0  0  0  0  0  0  0  0  0
   34.8258   24.4408   60.9504 O   0  0  0  0  0  0  0  0  0  0  0  0
   31.2683   17.9217   63.4456 P   0  0  1  0  0  0  0  0  0  0  0  0
   31.3923   17.0103   64.6351 O   0  5  0  0  0  0  0  0  0  0  0  0
   30.0907   18.2341   62.6655 O   0  0  0  0  0  0  0  0  0  0  0  0
   32.4121   19.0294   63.7063 O   0  0  0  0  0  0  0  0  0  0  0  0
   37.3836   25.9192   60.8418 O   0  0  0  0  0  0  0  0  0  0  0  0
   32.7587   20.0163   62.7106 C   0  0  0  0  0  0  0  0  0  0  0  0
   35.8459   23.5163   61.3753 C   0  0  0  0  0  0  0  0  0  0  0  0
   36.1213   26.4309   60.3785 C   0  0  0  0  0  0  0  0  0  0  0  0
   33.8658   20.9438   63.2329 C   0  0  0  0  0  0  0  0  0  0  0  0
   35.3424   22.6740   62.5705 C   0  0  0  0  0  0  0  0  0  0  0  0
   35.2415   25.2725   59.8529 C   0  0  0  0  0  0  0  0  0  0  0  0
  1 12  1  0  0  0  0
  1 11  1  0  0  0  0
  2 13  1  0  0  0  0
  2  9  1  0  0  0  0
  3  4  1  1  0  0  0
  3  5  2  0  0  0  0
  3  6  1  0  0  0  0
  6  8  1  0  0  0  0
  7 10  1  0  0  0  0
  8 11  1  0  0  0  0
  9 12  1  0  0  0  0
 10 13  1  0  0  0  0
M  CHG  1   4  -1
M  END
>  <CHROM.1>
174.45157953,-79.70454115,171.99879485,179.53296123,174.77759617,178.99148081
65.88134493,69.23998270,-177.03258906,33.66718904,21.43661164,62.31226701
-0.94435993,0.47195597,2.44825858

>  <Name>
ligand

>  <RI>
0

>  <Rbt.Current_Directory>
/home/itssahil/PROJECTS/Mol_Feturizer/New_Systems/rnas/3GS8

>  <Rbt.Executable>
rbdock ($Id: //depot/dev/client3/rdock/2013.1/src/exe/rbdock.cxx#4 $)

>  <Rbt.Library>
libRbt.so (2013.1, Build901 2013/11/27)

>  <Rbt.Parameter_File>
/export/apps/rDock/src/rDock_2013.1_src/data/scripts/dock_solv.prm

>  <Rbt.Receptor>
prm/blind_docking_100.prm

>  <SCORE>
-14.8625

>  <SCORE.INTER>
-0.745356

>  <SCORE.INTER.CONST>
1

>  <SCORE.INTER.POLAR>
0

>  <SCORE.INTER.ROT>
9

>  <SCORE.INTER.SOLV>
12.0919

>  <SCORE.INTER.VDW>
-14.1275

>  <SCORE.INTER.norm>
-0.0573351

>  <SCORE.INTRA>
-14.1171

>  <SCORE.INTRA.DIHEDRAL>
-29.1243

>  <SCORE.INTRA.DIHEDRAL.0>
31.9578

>  <SCORE.INTRA.POLAR>
0

>  <SCORE.INTRA.POLAR.0>
0

>  <SCORE.INTRA.REPUL>
0

>  <SCORE.INTRA.REPUL.0>
0

>  <SCORE.INTRA.SOLV>
-1.27133

>  <SCORE.INTRA.SOLV.lig_0>
-48.4032

>  <SCORE.INTRA.VDW>
1.08066

>  <SCORE.INTRA.VDW.0>
-1.65238

>  <SCORE.INTRA.norm>
-1.08593

>  <SCORE.RESTR>
0

>  <SCORE.RESTR.CAVITY>
0

>  <SCORE.RESTR.norm>
0

>  <SCORE.SYSTEM>
0

>  <SCORE.SYSTEM.CONST>
0

>  <SCORE.SYSTEM.DIHEDRAL>
0

>  <SCORE.SYSTEM.SOLV>
0

>  <SCORE.SYSTEM.norm>
0

>  <SCORE.heavy>
13

>  <SCORE.norm>
-1.14327

>  <RMSD>
20.010

$$$$
ligand
 OpenBabel11021811473D
libRbt.so/2013.1/901 2013/11/27
 13 12  0  0  0  0  0  0  0  0999 V2000
   33.9313   21.3561   62.3646 O   0  0  0  0  0  0  0  0  0  0  0  0
   34.4409   23.8565   60.9604 O   0  0  0  0  0  0  0  0  0  0  0  0
   30.8655   17.4813   63.5157 P   0  0  1  0  0  0  0  0  0  0  0  0
   29.5974   18.2866   63.5822 O   0  5  0  0  0  0  0  0  0  0  0  0
   31.1467   16.3022   62.7262 O   0  0  0  0  0  0  0  0  0  0  0  0
   32.0142   18.5726   63.8205 O   0  0  0  0  0  0  0  0  0  0  0  0
   36.4699   26.4878   59.3418 O   0  0  0  0  0  0  0  0  0  0  0  0
   32.4671   19.5041   62.8141 C   0  0  0  0  0  0  0  0  0  0  0  0
   35.4601   23.1683   61.7111 C   0  0  0  0  0  0  0  0  0  0  0  0
   35.7831   25.8236   60.4173 C   0  0  0  0  0  0  0  0  0  0  0  0
   33.4763   20.4955   63.4119 C   0  0  0  0  0  0  0  0  0  0  0  0
   34.8235   22.3677   62.8710 C   0  0  0  0  0  0  0  0  0  0  0  0
   34.9705   24.6277   59.8678 C   0  0  0  0  0  0  0  0  0  0  0  0
  1 12  1  0  0  0  0
  1 11  1  0  0  0  0
  2 13  1  0  0  0  0
  2  9  1  0  0  0  0
  3  4  1  6  0  0  0
  3  5  2  0  0  0  0
  3  6  1  0  0  0  0
  6  8  1  0  0  0  0
  7 10  1  0  0  0  0
  8 11  1  0  0  0  0
  9 12  1  0  0  0  0
 10 13  1  0  0  0  0
M  CHG  1   4  -1
M  END
>  <CHROM.1>
172.21618113,-68.33469816,-78.02803877,175.31874314,177.67230412,179.69912566
62.20925937,171.90866420,176.51478596,33.25323409,21.06102164,62.22241599
-0.92985867,0.57402495,2.37020790

>  <Name>
ligand

>  <RI>
0

>  <Rbt.Current_Directory>
/home/itssahil/PROJECTS/Mol_Feturizer/New_Systems/rnas/3GS8

>  <Rbt.Executable>
rbdock ($Id: //depot/dev/client3/rdock/2013.1/src/exe/rbdock.cxx#4 $)

>  <Rbt.Library>
libRbt.so (2013.1, Build901 2013/11/27)

>  <Rbt.Parameter_File>
/export/apps/rDock/src/rDock_2013.1_src/data/scripts/dock_solv.prm

>  <Rbt.Receptor>
prm/blind_docking_100.prm

>  <SCORE>
-15.2594

>  <SCORE.INTER>
-0.703094

>  <SCORE.INTER.CONST>
1

>  <SCORE.INTER.POLAR>
0

>  <SCORE.INTER.ROT>
9

>  <SCORE.INTER.SOLV>
11.4591

>  <SCORE.INTER.VDW>
-13.8884

>  <SCORE.INTER.norm>
-0.0540842

>  <SCORE.INTRA>
-14.5563

>  <SCORE.INTRA.DIHEDRAL>
-30.5919

>  <SCORE.INTRA.DIHEDRAL.0>
31.9578

>  <SCORE.INTRA.POLAR>
0

>  <SCORE.INTRA.POLAR.0>
0

>  <SCORE.INTRA.REPUL>
0

>  <SCORE.INTRA.REPUL.0>
0

>  <SCORE.INTRA.SOLV>
-1.42777

>  <SCORE.INTRA.SOLV.lig_0>
-48.4032

>  <SCORE.INTRA.VDW>
1.45353

>  <SCORE.INTRA.VDW.0>
-1.65238

>  <SCORE.INTRA.norm>
-1.11972

>  <SCORE.RESTR>
0

>  <SCORE.RESTR.CAVITY>
0

>  <SCORE.RESTR.norm>
0

>  <SCORE.SYSTEM>
0

>  <SCORE.SYSTEM.CONST>
0

>  <SCORE.SYSTEM.DIHEDRAL>
0

>  <SCORE.SYSTEM.SOLV>
0

>  <SCORE.SYSTEM.norm>
0

>  <SCORE.heavy>
13

>  <SCORE.norm>
-1.1738

>  <RMSD>
20.137

$$$$
ligand
 OpenBabel11021811473D
libRbt.so/2013.1/901 2013/11/27
 13 12  0  0  0  0  0  0  0  0999 V2000
   33.8400   21.9233   63.0923 O   0  0  0  0  0  0  0  0  0  0  0  0
   35.4660   24.1259   62.0336 O   0  0  0  0  0  0  0  0  0  0  0  0
   31.1238   17.6624   63.2305 P   0  0  1  0  0  0  0  0  0  0  0  0
   31.2736   16.4805   64.1480 O   0  5  0  0  0  0  0  0  0  0  0  0
   29.9115   18.2438   62.6965 O   0  0  0  0  0  0  0  0  0  0  0  0
   32.3956   18.5833   63.6016 O   0  0  0  0  0  0  0  0  0  0  0  0
   36.5742   26.5224   59.4410 O   0  0  0  0  0  0  0  0  0  0  0  0
   32.6395   19.8464   62.9453 C   0  0  0  0  0  0  0  0  0  0  0  0
   34.7488   24.2007   63.2810 C   0  0  0  0  0  0  0  0  0  0  0  0
   36.4039   25.2417   60.0737 C   0  0  0  0  0  0  0  0  0  0  0  0
   33.7802   20.6042   63.6406 C   0  0  0  0  0  0  0  0  0  0  0  0
   34.6337   22.7965   63.9187 C   0  0  0  0  0  0  0  0  0  0  0  0
   35.6900   25.4145   61.4348 C   0  0  0  0  0  0  0  0  0  0  0  0
  1 12  1  0  0  0  0
  1 11  1  0  0  0  0
  2 13  1  0  0  0  0
  2  9  1  0  0  0  0
  3  4  1  1  0  0  0
  3  5  2  0  0  0  0
  3  6  1  0  0  0  0
  6  8  1  0  0  0  0
  7 10  1  0  0  0  0
  8 11  1  0  0  0  0
  9 12  1  0  0  0  0
 10 13  1  0  0  0  0
M  CHG  1   4  -1
M  END
>  <CHROM.1>
177.22664553,-177.37561098,-179.73169078,171.15208798,-171.01764366,-175.86926791
-64.54397271,177.30296069,164.88031737,33.49290779,21.30535217,62.62769272
-0.56261993,0.91972590,1.93252749

>  <Name>
ligand

>  <RI>
0

>  <Rbt.Current_Directory>
/home/itssahil/PROJECTS/Mol_Feturizer/New_Systems/rnas/3GS8

>  <Rbt.Executable>
rbdock ($Id: //depot/dev/client3/rdock/2013.1/src/exe/rbdock.cxx#4 $)

>  <Rbt.Library>
libRbt.so (2013.1, Build901 2013/11/27)

>  <Rbt.Parameter_File>
/export/apps/rDock/src/rDock_2013.1_src/data/scripts/dock_solv.prm

>  <Rbt.Receptor>
prm/blind_docking_100.prm

>  <SCORE>
-15.0073

>  <SCORE.INTER>
0.255553

>  <SCORE.INTER.CONST>
1

>  <SCORE.INTER.POLAR>
0

>  <SCORE.INTER.ROT>
9

>  <SCORE.INTER.SOLV>
11.1309

>  <SCORE.INTER.VDW>
-13.1399

>  <SCORE.INTER.norm>
0.0196579

>  <SCORE.INTRA>
-15.2629

>  <SCORE.INTRA.DIHEDRAL>
-29.4781

>  <SCORE.INTRA.DIHEDRAL.0>
31.9578

>  <SCORE.INTRA.POLAR>
0

>  <SCORE.INTRA.POLAR.0>
0

>  <SCORE.INTRA.REPUL>
0

>  <SCORE.INTRA.REPUL.0>
0

>  <SCORE.INTRA.SOLV>
-1.75908

>  <SCORE.INTRA.SOLV.lig_0>
-48.4032

>  <SCORE.INTRA.VDW>
0.355713

>  <SCORE.INTRA.VDW.0>
-1.65238

>  <SCORE.INTRA.norm>
-1.17407

>  <SCORE.RESTR>
0

>  <SCORE.RESTR.CAVITY>
0

>  <SCORE.RESTR.norm>
0

>  <SCORE.SYSTEM>
0

>  <SCORE.SYSTEM.CONST>
0

>  <SCORE.SYSTEM.DIHEDRAL>
0

>  <SCORE.SYSTEM.SOLV>
0

>  <SCORE.SYSTEM.norm>
0

>  <SCORE.heavy>
13

>  <SCORE.norm>
-1.15441

>  <RMSD>
20.354

$$$$
ligand
 OpenBabel11021811473D
libRbt.so/2013.1/901 2013/11/27
 13 12  0  0  0  0  0  0  0  0999 V2000
   34.5363   22.1787   63.8306 O   0  0  0  0  0  0  0  0  0  0  0  0
   32.8601   18.8979   63.6399 O   0  0  0  0  0  0  0  0  0  0  0  0
   36.2793   24.8084   60.5110 P   0  0  1  0  0  0  0  0  0  0  0  0
   36.4448   23.4261   59.9427 O   0  5  0  0  0  0  0  0  0  0  0  0
   36.8219   26.0572   60.0222 O   0  0  0  0  0  0  0  0  0  0  0  0
   34.8277   24.7494   61.2128 O   0  0  0  0  0  0  0  0  0  0  0  0
   31.0167   17.3984   65.3056 O   0  0  0  0  0  0  0  0  0  0  0  0
   34.6422   24.2007   62.5358 C   0  0  0  0  0  0  0  0  0  0  0  0
   33.1439   20.2462   63.2185 C   0  0  0  0  0  0  0  0  0  0  0  0
   31.2112   17.1160   63.9085 C   0  0  0  0  0  0  0  0  0  0  0  0
   34.7129   22.6669   62.4984 C   0  0  0  0  0  0  0  0  0  0  0  0
   34.4644   20.7400   63.8541 C   0  0  0  0  0  0  0  0  0  0  0  0
   31.5962   18.4109   63.1554 C   0  0  0  0  0  0  0  0  0  0  0  0
  1 12  1  0  0  0  0
  1 11  1  0  0  0  0
  2 13  1  0  0  0  0
  2  9  1  0  0  0  0
  3  4  1  6  0  0  0
  3  5  2  0  0  0  0
  3  6  1  0  0  0  0
  6  8  1  0  0  0  0
  7 10  1  0  0  0  0
  8 11  1  0  0  0  0
  9 12  1  0  0  0  0
 10 13  1  0  0  0  0
M  CHG  1   4  -1
M  END
>  <CHROM.1>
-70.07940116,-166.62772415,82.33443812,-75.36981152,179.46716660,176.01417507
-160.38361168,63.79557155,174.53180654,34.24341899,21.89299528,62.40600830
3.09088639,-1.05470047,-2.11294814

>  <Name>
ligand

>  <RI>
0

>  <Rbt.Current_Directory>
/home/itssahil/PROJECTS/Mol_Feturizer/New_Systems/rnas/3GS8

>  <Rbt.Executable>
rbdock ($Id: //depot/dev/client3/rdock/2013.1/src/exe/rbdock.cxx#4 $)

>  <Rbt.Library>
libRbt.so (2013.1, Build901 2013/11/27)

>  <Rbt.Parameter_File>
/export/apps/rDock/src/rDock_2013.1_src/data/scripts/dock_solv.prm

>  <Rbt.Receptor>
prm/blind_docking_80.prm

>  <SCORE>
-13.6154

>  <SCORE.INTER>
-1.50229

>  <SCORE.INTER.CONST>
1

>  <SCORE.INTER.POLAR>
0

>  <SCORE.INTER.ROT>
9

>  <SCORE.INTER.SOLV>
11.5799

>  <SCORE.INTER.VDW>
-14.4615

>  <SCORE.INTER.norm>
-0.115561

>  <SCORE.INTRA>
-12.1131

>  <SCORE.INTRA.DIHEDRAL>
-26.8724

>  <SCORE.INTRA.DIHEDRAL.0>
31.9578

>  <SCORE.INTRA.POLAR>
0

>  <SCORE.INTRA.POLAR.0>
0

>  <SCORE.INTRA.REPUL>
0

>  <SCORE.INTRA.REPUL.0>
0

>  <SCORE.INTRA.SOLV>
-0.333987

>  <SCORE.INTRA.SOLV.lig_0>
-48.4032

>  <SCORE.INTRA.VDW>
1.49006

>  <SCORE.INTRA.VDW.0>
-1.65238

>  <SCORE.INTRA.norm>
-0.93178

>  <SCORE.RESTR>
0

>  <SCORE.RESTR.CAVITY>
0

>  <SCORE.RESTR.norm>
0

>  <SCORE.SYSTEM>
0

>  <SCORE.SYSTEM.CONST>
0

>  <SCORE.SYSTEM.DIHEDRAL>
0

>  <SCORE.SYSTEM.SOLV>
0

>  <SCORE.SYSTEM.norm>
0

>  <SCORE.heavy>
13

>  <SCORE.norm>
-1.04734

>  <RMSD>
20.453

$$$$
ligand
 OpenBabel11021811473D
libRbt.so/2013.1/901 2013/11/27
 13 12  0  0  0  0  0  0  0  0999 V2000
   34.2550   21.5602   62.5566 O   0  0  0  0  0  0  0  0  0  0  0  0
   35.6083   23.2416   60.6295 O   0  0  0  0  0  0  0  0  0  0  0  0
   31.1214   17.7177   63.6307 P   0  0  1  0  0  0  0  0  0  0  0  0
   30.7981   17.3939   65.0631 O   0  5  0  0  0  0  0  0  0  0  0  0
   30.5204   17.1872   62.4265 O   0  0  0  0  0  0  0  0  0  0  0  0
   31.6321   19.2466   63.7024 O   0  0  0  0  0  0  0  0  0  0  0  0
   38.4018   22.3638   61.0445 O   0  0  0  0  0  0  0  0  0  0  0  0
   32.8025   19.6939   62.9843 C   0  0  0  0  0  0  0  0  0  0  0  0
   35.8793   23.3335   62.0415 C   0  0  0  0  0  0  0  0  0  0  0  0
   37.7718   22.5141   59.7599 C   0  0  0  0  0  0  0  0  0  0  0  0
   33.1031   21.1653   63.3058 C   0  0  0  0  0  0  0  0  0  0  0  0
   34.6316   22.9183   62.8554 C   0  0  0  0  0  0  0  0  0  0  0  0
   36.7218   23.6485   59.8148 C   0  0  0  0  0  0  0  0  0  0  0  0
  1 12  1  0  0  0  0
  1 11  1  0  0  0  0
  2 13  1  0  0  0  0
  2  9  1  0  0  0  0
  3  4  1  1  0  0  0
  3  5  2  0  0  0  0
  3  6  1  0  0  0  0
  6  8  1  0  0  0  0
  7 10  1  0  0  0  0
  8 11  1  0  0  0  0
  9 12  1  0  0  0  0
 10 13  1  0  0  0  0
M  CHG  1   4  -1
M  END
>  <CHROM.1>
179.90361214,78.11034572,135.87700469,-176.40557912,-179.17796467,178.50224774
60.20783310,-69.34469731,-177.44054352,33.82578889,20.62229432,62.41632221
0.36147807,0.72733560,0.53235806

>  <Name>
ligand

>  <RI>
0

>  <Rbt.Current_Directory>
/home/itssahil/PROJECTS/Mol_Feturizer/New_Systems/rnas/3GS8

>  <Rbt.Executable>
rbdock ($Id: //depot/dev/client3/rdock/2013.1/src/exe/rbdock.cxx#4 $)

>  <Rbt.Library>
libRbt.so (2013.1, Build901 2013/11/27)

>  <Rbt.Parameter_File>
/export/apps/rDock/src/rDock_2013.1_src/data/scripts/dock_solv.prm

>  <Rbt.Receptor>
prm/blind_docking_100.prm

>  <SCORE>
-13.0764

>  <SCORE.INTER>
1.15025

>  <SCORE.INTER.CONST>
1

>  <SCORE.INTER.POLAR>
0

>  <SCORE.INTER.ROT>
9

>  <SCORE.INTER.SOLV>
13.9449

>  <SCORE.INTER.VDW>
-13.4815

>  <SCORE.INTER.norm>
0.0884805

>  <SCORE.INTRA>
-14.2267

>  <SCORE.INTRA.DIHEDRAL>
-29.2886

>  <SCORE.INTRA.DIHEDRAL.0>
31.9578

>  <SCORE.INTRA.POLAR>
0

>  <SCORE.INTRA.POLAR.0>
0

>  <SCORE.INTRA.REPUL>
0

>  <SCORE.INTRA.REPUL.0>
0

>  <SCORE.INTRA.SOLV>
-1.3341

>  <SCORE.INTRA.SOLV.lig_0>
-48.4032

>  <SCORE.INTRA.VDW>
1.08471

>  <SCORE.INTRA.VDW.0>
-1.65238

>  <SCORE.INTRA.norm>
-1.09436

>  <SCORE.RESTR>
0

>  <SCORE.RESTR.CAVITY>
0

>  <SCORE.RESTR.norm>
0

>  <SCORE.SYSTEM>
0

>  <SCORE.SYSTEM.CONST>
0

>  <SCORE.SYSTEM.DIHEDRAL>
0

>  <SCORE.SYSTEM.SOLV>
0

>  <SCORE.SYSTEM.norm>
0

>  <SCORE.heavy>
13

>  <SCORE.norm>
-1.00588

>  <RMSD>
20.767

$$$$
ligand
 OpenBabel11021811473D
libRbt.so/2013.1/901 2013/11/27
 13 12  0  0  0  0  0  0  0  0999 V2000
   26.6442   14.3456   43.3546 O   0  0  0  0  0  0  0  0  0  0  0  0
   24.5233   16.0049   44.0717 O   0  0  0  0  0  0  0  0  0  0  0  0
   30.9573   14.7378   44.1367 P   0  0  1  0  0  0  0  0  0  0  0  0
   31.7308   13.4487   44.1057 O   0  5  0  0  0  0  0  0  0  0  0  0
   31.4108   16.0717   43.8082 O   0  0  0  0  0  0  0  0  0  0  0  0
   29.4456   14.2710   43.8205 O   0  0  0  0  0  0  0  0  0  0  0  0
   22.2019   17.2820   42.8871 O   0  0  0  0  0  0  0  0  0  0  0  0
   28.8870   14.3457   42.4909 C   0  0  0  0  0  0  0  0  0  0  0  0
   24.3686   14.5844   44.2562 C   0  0  0  0  0  0  0  0  0  0  0  0
   22.1817   16.6882   44.1973 C   0  0  0  0  0  0  0  0  0  0  0  0
   27.5114   13.6642   42.4446 C   0  0  0  0  0  0  0  0  0  0  0  0
   25.3065   13.8137   43.2980 C   0  0  0  0  0  0  0  0  0  0  0  0
   23.5853   16.7780   44.8408 C   0  0  0  0  0  0  0  0  0  0  0  0
  1 12  1  0  0  0  0
  1 11  1  0  0  0  0
  2 13  1  0  0  0  0
  2  9  1  0  0  0  0
  3  4  1  6  0  0  0
  3  5  2  0  0  0  0
  3  6  1  0  0  0  0
  6  8  1  0  0  0  0
  7 10  1  0  0  0  0
  8 11  1  0  0  0  0
  9 12  1  0  0  0  0
 10 13  1  0  0  0  0
M  CHG  1   4  -1
M  END
>  <CHROM.1>
-178.38029536,-74.34000380,-97.16146077,172.31947535,60.60825672,174.30115216
48.44090668,-63.83369909,176.17646594,27.20542567,15.06108984,43.70788359
2.93115505,-0.07673380,0.35291142

>  <Name>
ligand

>  <RI>
0

>  <Rbt.Current_Directory>
/home/itssahil/PROJECTS/Mol_Feturizer/New_Systems/rnas/3GS8

>  <Rbt.Executable>
rbdock ($Id: //depot/dev/client3/rdock/2013.1/src/exe/rbdock.cxx#4 $)

>  <Rbt.Library>
libRbt.so (2013.1, Build901 2013/11/27)

>  <Rbt.Parameter_File>
/export/apps/rDock/src/rDock_2013.1_src/data/scripts/dock_solv.prm

>  <Rbt.Receptor>
prm/blind_docking_60.prm

>  <SCORE>
-15.518

>  <SCORE.INTER>
-1.14304

>  <SCORE.INTER.CONST>
1

>  <SCORE.INTER.POLAR>
0

>  <SCORE.INTER.ROT>
9

>  <SCORE.INTER.SOLV>
21.0549

>  <SCORE.INTER.VDW>
-17.3803

>  <SCORE.INTER.norm>
-0.0879262

>  <SCORE.INTRA>
-14.3878

>  <SCORE.INTRA.DIHEDRAL>
-29.3559

>  <SCORE.INTRA.DIHEDRAL.0>
31.9578

>  <SCORE.INTRA.POLAR>
0

>  <SCORE.INTRA.POLAR.0>
0

>  <SCORE.INTRA.REPUL>
0

>  <SCORE.INTRA.REPUL.0>
0

>  <SCORE.INTRA.SOLV>
-1.09938

>  <SCORE.INTRA.SOLV.lig_0>
-48.4032

>  <SCORE.INTRA.VDW>
0.839851

>  <SCORE.INTRA.VDW.0>
-1.65238

>  <SCORE.INTRA.norm>
-1.10675

>  <SCORE.RESTR>
0.0128711

>  <SCORE.RESTR.CAVITY>
0.0128711

>  <SCORE.RESTR.norm>
0.000990088

>  <SCORE.SYSTEM>
0

>  <SCORE.SYSTEM.CONST>
0

>  <SCORE.SYSTEM.DIHEDRAL>
0

>  <SCORE.SYSTEM.SOLV>
0

>  <SCORE.SYSTEM.norm>
0

>  <SCORE.heavy>
13

>  <SCORE.norm>
-1.19369

>  <RMSD>
20.803

$$$$
ligand
 OpenBabel11021811473D
libRbt.so/2013.1/901 2013/11/27
 13 12  0  0  0  0  0  0  0  0999 V2000
   27.3569   14.2845   43.7390 O   0  0  0  0  0  0  0  0  0  0  0  0
   24.4327   15.1550   44.0535 O   0  0  0  0  0  0  0  0  0  0  0  0
   32.4067   14.4726   43.3132 P   0  0  1  0  0  0  0  0  0  0  0  0
   32.7195   13.2539   42.4898 O   0  5  0  0  0  0  0  0  0  0  0  0
   32.7500   15.8531   43.0504 O   0  0  0  0  0  0  0  0  0  0  0  0
   31.0195   14.0834   44.0394 O   0  0  0  0  0  0  0  0  0  0  0  0
   23.5355   17.8747   43.8384 O   0  0  0  0  0  0  0  0  0  0  0  0
   29.7401   14.4918   43.5083 C   0  0  0  0  0  0  0  0  0  0  0  0
   24.9349   13.9021   43.5496 C   0  0  0  0  0  0  0  0  0  0  0  0
   22.6367   16.8053   44.1822 C   0  0  0  0  0  0  0  0  0  0  0  0
   28.5952   13.8713   44.3223 C   0  0  0  0  0  0  0  0  0  0  0  0
   26.2522   13.5248   44.2665 C   0  0  0  0  0  0  0  0  0  0  0  0
   23.1247   15.4803   43.5511 C   0  0  0  0  0  0  0  0  0  0  0  0
  1 12  1  0  0  0  0
  1 11  1  0  0  0  0
  2 13  1  0  0  0  0
  2  9  1  0  0  0  0
  3  4  1  6  0  0  0
  3  5  2  0  0  0  0
  3  6  1  0  0  0  0
  6  8  1  0  0  0  0
  7 10  1  0  0  0  0
  8 11  1  0  0  0  0
  9 12  1  0  0  0  0
 10 13  1  0  0  0  0
M  CHG  1   4  -1
M  END
>  <CHROM.1>
-175.54990736,177.71979786,-96.30171541,174.55408369,-178.82457211,-172.59614299
-77.73662910,60.73055272,167.84065146,28.09069962,14.83300626,43.64665909
2.96848411,0.09389402,-0.07281252

>  <Name>
ligand

>  <RI>
0

>  <Rbt.Current_Directory>
/home/itssahil/PROJECTS/Mol_Feturizer/New_Systems/rnas/3GS8

>  <Rbt.Executable>
rbdock ($Id: //depot/dev/client3/rdock/2013.1/src/exe/rbdock.cxx#4 $)

>  <Rbt.Library>
libRbt.so (2013.1, Build901 2013/11/27)

>  <Rbt.Parameter_File>
/export/apps/rDock/src/rDock_2013.1_src/data/scripts/dock_solv.prm

>  <Rbt.Receptor>
prm/blind_docking_60.prm

>  <SCORE>
-17.2704

>  <SCORE.INTER>
-2.30835

>  <SCORE.INTER.CONST>
1

>  <SCORE.INTER.POLAR>
0

>  <SCORE.INTER.ROT>
9

>  <SCORE.INTER.SOLV>
17.8055

>  <SCORE.INTER.VDW>
-17.0741

>  <SCORE.INTER.norm>
-0.177565

>  <SCORE.INTRA>
-14.9621

>  <SCORE.INTRA.DIHEDRAL>
-29.0674

>  <SCORE.INTRA.DIHEDRAL.0>
31.9578

>  <SCORE.INTRA.POLAR>
0

>  <SCORE.INTRA.POLAR.0>
0

>  <SCORE.INTRA.REPUL>
0

>  <SCORE.INTRA.REPUL.0>
0

>  <SCORE.INTRA.SOLV>
-1.36797

>  <SCORE.INTRA.SOLV.lig_0>
-48.4032

>  <SCORE.INTRA.VDW>
0.255625

>  <SCORE.INTRA.VDW.0>
-1.65238

>  <SCORE.INTRA.norm>
-1.15093

>  <SCORE.RESTR>
0

>  <SCORE.RESTR.CAVITY>
0

>  <SCORE.RESTR.norm>
0

>  <SCORE.SYSTEM>
0

>  <SCORE.SYSTEM.CONST>
0

>  <SCORE.SYSTEM.DIHEDRAL>
0

>  <SCORE.SYSTEM.SOLV>
0

>  <SCORE.SYSTEM.norm>
0

>  <SCORE.heavy>
13

>  <SCORE.norm>
-1.32849

>  <RMSD>
20.862

$$$$
ligand
 OpenBabel11021811473D
libRbt.so/2013.1/901 2013/11/27
 13 12  0  0  0  0  0  0  0  0999 V2000
   27.2751   13.0972   43.4126 O   0  0  0  0  0  0  0  0  0  0  0  0
   24.4550   15.5025   43.6972 O   0  0  0  0  0  0  0  0  0  0  0  0
   31.4308   14.2551   43.6193 P   0  0  1  0  0  0  0  0  0  0  0  0
   31.1183   15.7256   43.5877 O   0  5  0  0  0  0  0  0  0  0  0  0
   32.6113   13.5930   44.1300 O   0  0  0  0  0  0  0  0  0  0  0  0
   29.9752   13.5690   43.7364 O   0  0  0  0  0  0  0  0  0  0  0  0
   23.1384   17.8712   44.4442 O   0  0  0  0  0  0  0  0  0  0  0  0
   29.0625   13.8954   44.8069 C   0  0  0  0  0  0  0  0  0  0  0  0
   25.1501   14.2512   43.8610 C   0  0  0  0  0  0  0  0  0  0  0  0
   22.3899   16.7984   43.8454 C   0  0  0  0  0  0  0  0  0  0  0  0
   27.8093   13.0104   44.7360 C   0  0  0  0  0  0  0  0  0  0  0  0
   26.5553   14.3303   43.2201 C   0  0  0  0  0  0  0  0  0  0  0  0
   23.0841   15.4458   44.1293 C   0  0  0  0  0  0  0  0  0  0  0  0
  1 12  1  0  0  0  0
  1 11  1  0  0  0  0
  2 13  1  0  0  0  0
  2  9  1  0  0  0  0
  3  4  1  1  0  0  0
  3  5  2  0  0  0  0
  3  6  1  0  0  0  0
  6  8  1  0  0  0  0
  7 10  1  0  0  0  0
  8 11  1  0  0  0  0
  9 12  1  0  0  0  0
 10 13  1  0  0  0  0
M  CHG  1   4  -1
M  END
>  <CHROM.1>
-78.36631835,-176.75804657,-56.34339541,-175.19865054,-52.11831864,173.01702618
178.29640757,-54.30349002,-77.43158437,27.62004466,14.69138961,43.90875596
0.26275389,-0.01916467,3.13717661

>  <Name>
ligand

>  <RI>
0

>  <Rbt.Current_Directory>
/home/itssahil/PROJECTS/Mol_Feturizer/New_Systems/rnas/3GS8

>  <Rbt.Executable>
rbdock ($Id: //depot/dev/client3/rdock/2013.1/src/exe/rbdock.cxx#4 $)

>  <Rbt.Library>
libRbt.so (2013.1, Build901 2013/11/27)

>  <Rbt.Parameter_File>
/export/apps/rDock/src/rDock_2013.1_src/data/scripts/dock_solv.prm

>  <Rbt.Receptor>
prm/blind_docking_60.prm

>  <SCORE>
-14.8272

>  <SCORE.INTER>
-2.3131

>  <SCORE.INTER.CONST>
1

>  <SCORE.INTER.POLAR>
0

>  <SCORE.INTER.ROT>
9

>  <SCORE.INTER.SOLV>
18.3577

>  <SCORE.INTER.VDW>
-17.2613

>  <SCORE.INTER.norm>
-0.177931

>  <SCORE.INTRA>
-12.5141

>  <SCORE.INTRA.DIHEDRAL>
-27.707

>  <SCORE.INTRA.DIHEDRAL.0>
31.9578

>  <SCORE.INTRA.POLAR>
0

>  <SCORE.INTRA.POLAR.0>
0

>  <SCORE.INTRA.REPUL>
0

>  <SCORE.INTRA.REPUL.0>
0

>  <SCORE.INTRA.SOLV>
-1.18786

>  <SCORE.INTRA.SOLV.lig_0>
-48.4032

>  <SCORE.INTRA.VDW>
1.93336

>  <SCORE.INTRA.VDW.0>
-1.65238

>  <SCORE.INTRA.norm>
-0.96262

>  <SCORE.RESTR>
0

>  <SCORE.RESTR.CAVITY>
0

>  <SCORE.RESTR.norm>
0

>  <SCORE.SYSTEM>
0

>  <SCORE.SYSTEM.CONST>
0

>  <SCORE.SYSTEM.DIHEDRAL>
0

>  <SCORE.SYSTEM.SOLV>
0

>  <SCORE.SYSTEM.norm>
0

>  <SCORE.heavy>
13

>  <SCORE.norm>
-1.14055

>  <RMSD>
20.971

$$$$
ligand
 OpenBabel11021811473D
libRbt.so/2013.1/901 2013/11/27
 13 12  0  0  0  0  0  0  0  0999 V2000
   26.3896   13.9914   43.3357 O   0  0  0  0  0  0  0  0  0  0  0  0
   22.8645   14.8475   44.1473 O   0  0  0  0  0  0  0  0  0  0  0  0
   30.5708   14.5041   44.0344 P   0  0  1  0  0  0  0  0  0  0  0  0
   30.8256   13.5342   42.9140 O   0  5  0  0  0  0  0  0  0  0  0  0
   31.2969   15.7101   44.3681 O   0  0  0  0  0  0  0  0  0  0  0  0
   28.9757   14.4046   44.2555 O   0  0  0  0  0  0  0  0  0  0  0  0
   23.4761   17.6669   43.8638 O   0  0  0  0  0  0  0  0  0  0  0  0
   28.3164   13.1420   44.4942 C   0  0  0  0  0  0  0  0  0  0  0  0
   24.2998   14.8973   44.2631 C   0  0  0  0  0  0  0  0  0  0  0  0
   22.1942   17.1112   43.5210 C   0  0  0  0  0  0  0  0  0  0  0  0
   26.7926   13.3288   44.5369 C   0  0  0  0  0  0  0  0  0  0  0  0
   24.9558   13.9912   43.1953 C   0  0  0  0  0  0  0  0  0  0  0  0
   22.3593   15.6438   43.0611 C   0  0  0  0  0  0  0  0  0  0  0  0
  1 12  1  0  0  0  0
  1 11  1  0  0  0  0
  2 13  1  0  0  0  0
  2  9  1  0  0  0  0
  3  4  1  6  0  0  0
  3  5  2  0  0  0  0
  3  6  1  0  0  0  0
  6  8  1  0  0  0  0
  7 10  1  0  0  0  0
  8 11  1  0  0  0  0
  9 12  1  0  0  0  0
 10 13  1  0  0  0  0
M  CHG  1   4  -1
M  END
>  <CHROM.1>
68.63807497,-84.52365822,54.09136215,-174.71630778,53.80813241,-77.70382953
-177.70732386,63.48806431,169.84310421,26.79330300,14.81369849,43.85883906
2.93036364,-0.04206752,0.02326620

>  <Name>
ligand

>  <RI>
0

>  <Rbt.Current_Directory>
/home/itssahil/PROJECTS/Mol_Feturizer/New_Systems/rnas/3GS8

>  <Rbt.Executable>
rbdock ($Id: //depot/dev/client3/rdock/2013.1/src/exe/rbdock.cxx#4 $)

>  <Rbt.Library>
libRbt.so (2013.1, Build901 2013/11/27)

>  <Rbt.Parameter_File>
/export/apps/rDock/src/rDock_2013.1_src/data/scripts/dock_solv.prm

>  <Rbt.Receptor>
prm/blind_docking_60.prm

>  <SCORE>
-15.4688

>  <SCORE.INTER>
-4.701

>  <SCORE.INTER.CONST>
1

>  <SCORE.INTER.POLAR>
0

>  <SCORE.INTER.ROT>
9

>  <SCORE.INTER.SOLV>
19.0071

>  <SCORE.INTER.VDW>
-19.0697

>  <SCORE.INTER.norm>
-0.361615

>  <SCORE.INTRA>
-10.7678

>  <SCORE.INTRA.DIHEDRAL>
-26.3719

>  <SCORE.INTRA.DIHEDRAL.0>
31.9578

>  <SCORE.INTRA.POLAR>
0

>  <SCORE.INTRA.POLAR.0>
0

>  <SCORE.INTRA.REPUL>
0

>  <SCORE.INTRA.REPUL.0>
0

>  <SCORE.INTRA.SOLV>
-0.90168

>  <SCORE.INTRA.SOLV.lig_0>
-48.4032

>  <SCORE.INTRA.VDW>
2.86899

>  <SCORE.INTRA.VDW.0>
-1.65238

>  <SCORE.INTRA.norm>
-0.828292

>  <SCORE.RESTR>
0

>  <SCORE.RESTR.CAVITY>
0

>  <SCORE.RESTR.norm>
0

>  <SCORE.SYSTEM>
0

>  <SCORE.SYSTEM.CONST>
0

>  <SCORE.SYSTEM.DIHEDRAL>
0

>  <SCORE.SYSTEM.SOLV>
0

>  <SCORE.SYSTEM.norm>
0

>  <SCORE.heavy>
13

>  <SCORE.norm>
-1.18991

>  <RMSD>
21.082

$$$$
ligand
 OpenBabel11021811473D
libRbt.so/2013.1/901 2013/11/27
 13 12  0  0  0  0  0  0  0  0999 V2000
   28.7867   14.0675   44.9076 O   0  0  0  0  0  0  0  0  0  0  0  0
   26.2268   14.7179   43.5729 O   0  0  0  0  0  0  0  0  0  0  0  0
   32.8018   14.2697   42.6636 P   0  0  1  0  0  0  0  0  0  0  0  0
   31.8930   13.1904   42.1436 O   0  5  0  0  0  0  0  0  0  0  0  0
   34.1170   14.6473   42.1942 O   0  0  0  0  0  0  0  0  0  0  0  0
   31.7752   15.3727   43.2404 O   0  0  0  0  0  0  0  0  0  0  0  0
   22.7175   15.5448   44.2935 O   0  0  0  0  0  0  0  0  0  0  0  0
   30.8893   15.0862   44.3444 C   0  0  0  0  0  0  0  0  0  0  0  0
   26.9878   13.5204   43.3224 C   0  0  0  0  0  0  0  0  0  0  0  0
   24.1358   15.7820   44.2523 C   0  0  0  0  0  0  0  0  0  0  0  0
   29.8331   14.0498   43.9334 C   0  0  0  0  0  0  0  0  0  0  0  0
   27.7642   13.1026   44.5930 C   0  0  0  0  0  0  0  0  0  0  0  0
   24.8889   14.4497   44.0283 C   0  0  0  0  0  0  0  0  0  0  0  0
  1 12  1  0  0  0  0
  1 11  1  0  0  0  0
  2 13  1  0  0  0  0
  2  9  1  0  0  0  0
  3  4  1  6  0  0  0
  3  5  2  0  0  0  0
  3  6  1  0  0  0  0
  6  8  1  0  0  0  0
  7 10  1  0  0  0  0
  8 11  1  0  0  0  0
  9 12  1  0  0  0  0
 10 13  1  0  0  0  0
M  CHG  1   4  -1
M  END
>  <CHROM.1>
-68.62460584,-179.14479017,63.40223345,-67.45748324,-164.62133333,-91.37163960
-66.98818073,162.00661855,-179.26755326,29.04142975,14.44012531,43.55898874
3.07023551,0.17175002,0.01560009

>  <Name>
ligand

>  <RI>
0

>  <Rbt.Current_Directory>
/home/itssahil/PROJECTS/Mol_Feturizer/New_Systems/rnas/3GS8

>  <Rbt.Executable>
rbdock ($Id: //depot/dev/client3/rdock/2013.1/src/exe/rbdock.cxx#4 $)

>  <Rbt.Library>
libRbt.so (2013.1, Build901 2013/11/27)

>  <Rbt.Parameter_File>
/export/apps/rDock/src/rDock_2013.1_src/data/scripts/dock_solv.prm

>  <Rbt.Receptor>
prm/blind_docking_60.prm

>  <SCORE>
-13.4139

>  <SCORE.INTER>
-3.30561

>  <SCORE.INTER.CONST>
1

>  <SCORE.INTER.POLAR>
0

>  <SCORE.INTER.ROT>
9

>  <SCORE.INTER.SOLV>
13.3712

>  <SCORE.INTER.VDW>
-16.2608

>  <SCORE.INTER.norm>
-0.254277

>  <SCORE.INTRA>
-10.1253

>  <SCORE.INTRA.DIHEDRAL>
-24.7553

>  <SCORE.INTRA.DIHEDRAL.0>
31.9578

>  <SCORE.INTRA.POLAR>
0

>  <SCORE.INTRA.POLAR.0>
0

>  <SCORE.INTRA.REPUL>
0

>  <SCORE.INTRA.REPUL.0>
0

>  <SCORE.INTRA.SOLV>
-0.005561

>  <SCORE.INTRA.SOLV.lig_0>
-48.4032

>  <SCORE.INTRA.VDW>
2.25518

>  <SCORE.INTRA.VDW.0>
-1.65238

>  <SCORE.INTRA.norm>
-0.778866

>  <SCORE.RESTR>
0.0170076

>  <SCORE.RESTR.CAVITY>
0.0170076

>  <SCORE.RESTR.norm>
0.00130827

>  <SCORE.SYSTEM>
0

>  <SCORE.SYSTEM.CONST>
0

>  <SCORE.SYSTEM.DIHEDRAL>
0

>  <SCORE.SYSTEM.SOLV>
0

>  <SCORE.SYSTEM.norm>
0

>  <SCORE.heavy>
13

>  <SCORE.norm>
-1.03184

>  <RMSD>
21.084

$$$$
ligand
 OpenBabel11021811473D
libRbt.so/2013.1/901 2013/11/27
 13 12  0  0  0  0  0  0  0  0999 V2000
   26.9342   13.4271   43.4127 O   0  0  0  0  0  0  0  0  0  0  0  0
   23.6486   15.1303   43.6830 O   0  0  0  0  0  0  0  0  0  0  0  0
   31.1041   14.5971   43.8787 P   0  0  1  0  0  0  0  0  0  0  0  0
   31.2334   16.0123   43.3873 O   0  5  0  0  0  0  0  0  0  0  0  0
   32.0802   13.7910   44.5790 O   0  0  0  0  0  0  0  0  0  0  0  0
   29.5280   14.4565   44.1939 O   0  0  0  0  0  0  0  0  0  0  0  0
   20.9068   15.5296   44.1565 O   0  0  0  0  0  0  0  0  0  0  0  0
   28.9573   13.2280   44.6947 C   0  0  0  0  0  0  0  0  0  0  0  0
   25.0564   14.9330   43.9173 C   0  0  0  0  0  0  0  0  0  0  0  0
   21.7119   16.6186   43.6714 C   0  0  0  0  0  0  0  0  0  0  0  0
   27.4259   13.3286   44.7517 C   0  0  0  0  0  0  0  0  0  0  0  0
   25.4987   13.5475   43.3914 C   0  0  0  0  0  0  0  0  0  0  0  0
   23.1833   16.4239   44.1065 C   0  0  0  0  0  0  0  0  0  0  0  0
  1 12  1  0  0  0  0
  1 11  1  0  0  0  0
  2 13  1  0  0  0  0
  2  9  1  0  0  0  0
  3  4  1  1  0  0  0
  3  5  2  0  0  0  0
  3  6  1  0  0  0  0
  6  8  1  0  0  0  0
  7 10  1  0  0  0  0
  8 11  1  0  0  0  0
  9 12  1  0  0  0  0
 10 13  1  0  0  0  0
M  CHG  1   4  -1
M  END
>  <CHROM.1>
70.77593623,173.36157325,179.82974739,-173.58497330,66.31677121,-177.86062646
170.31551531,54.28977599,-179.04295951,27.10332729,14.68802071,43.97309015
2.99810617,0.00153551,-0.16511623

>  <Name>
ligand

>  <RI>
0

>  <Rbt.Current_Directory>
/home/itssahil/PROJECTS/Mol_Feturizer/New_Systems/rnas/3GS8

>  <Rbt.Executable>
rbdock ($Id: //depot/dev/client3/rdock/2013.1/src/exe/rbdock.cxx#4 $)

>  <Rbt.Library>
libRbt.so (2013.1, Build901 2013/11/27)

>  <Rbt.Parameter_File>
/export/apps/rDock/src/rDock_2013.1_src/data/scripts/dock_solv.prm

>  <Rbt.Receptor>
prm/blind_docking_60.prm

>  <SCORE>
-17.0713

>  <SCORE.INTER>
-2.69124

>  <SCORE.INTER.CONST>
1

>  <SCORE.INTER.POLAR>
0

>  <SCORE.INTER.ROT>
9

>  <SCORE.INTER.SOLV>
19.7652

>  <SCORE.INTER.VDW>
-17.9826

>  <SCORE.INTER.norm>
-0.207018

>  <SCORE.INTRA>
-14.3801

>  <SCORE.INTRA.DIHEDRAL>
-29.8768

>  <SCORE.INTRA.DIHEDRAL.0>
31.9578

>  <SCORE.INTRA.POLAR>
0

>  <SCORE.INTRA.POLAR.0>
0

>  <SCORE.INTRA.REPUL>
0

>  <SCORE.INTRA.REPUL.0>
0

>  <SCORE.INTRA.SOLV>
-1.52064

>  <SCORE.INTRA.SOLV.lig_0>
-48.4032

>  <SCORE.INTRA.VDW>
1.31864

>  <SCORE.INTRA.VDW.0>
-1.65238

>  <SCORE.INTRA.norm>
-1.10616

>  <SCORE.RESTR>
0

>  <SCORE.RESTR.CAVITY>
0

>  <SCORE.RESTR.norm>
0

>  <SCORE.SYSTEM>
0

>  <SCORE.SYSTEM.CONST>
0

>  <SCORE.SYSTEM.DIHEDRAL>
0

>  <SCORE.SYSTEM.SOLV>
0

>  <SCORE.SYSTEM.norm>
0

>  <SCORE.heavy>
13

>  <SCORE.norm>
-1.31318

>  <RMSD>
21.120

$$$$
ligand
 OpenBabel11021811473D
libRbt.so/2013.1/901 2013/11/27
 13 12  0  0  0  0  0  0  0  0999 V2000
   28.9541   14.1134   44.3598 O   0  0  0  0  0  0  0  0  0  0  0  0
   26.2788   13.6115   43.4353 O   0  0  0  0  0  0  0  0  0  0  0  0
   32.9661   14.5538   42.5003 P   0  0  1  0  0  0  0  0  0  0  0  0
   32.5491   13.1093   42.5195 O   0  5  0  0  0  0  0  0  0  0  0  0
   33.9006   15.2127   41.6140 O   0  0  0  0  0  0  0  0  0  0  0  0
   31.6619   15.3238   43.0565 O   0  0  0  0  0  0  0  0  0  0  0  0
   22.9358   15.0948   44.0010 O   0  0  0  0  0  0  0  0  0  0  0  0
   31.1491   15.0919   44.3865 C   0  0  0  0  0  0  0  0  0  0  0  0
   27.0464   14.7221   42.9321 C   0  0  0  0  0  0  0  0  0  0  0  0
   24.3460   14.8931   44.2020 C   0  0  0  0  0  0  0  0  0  0  0  0
   30.3437   13.7851   44.4339 C   0  0  0  0  0  0  0  0  0  0  0  0
   28.5585   14.4063   43.0058 C   0  0  0  0  0  0  0  0  0  0  0  0
   24.8613   13.7809   43.2587 C   0  0  0  0  0  0  0  0  0  0  0  0
  1 12  1  0  0  0  0
  1 11  1  0  0  0  0
  2 13  1  0  0  0  0
  2  9  1  0  0  0  0
  3  4  1  6  0  0  0
  3  5  2  0  0  0  0
  3  6  1  0  0  0  0
  6  8  1  0  0  0  0
  7 10  1  0  0  0  0
  8 11  1  0  0  0  0
  9 12  1  0  0  0  0
 10 13  1  0  0  0  0
M  CHG  1   4  -1
M  END
>  <CHROM.1>
178.45395511,-70.00077538,62.17406077,-78.61654029,-99.75616392,-173.56384113
-58.23322679,178.27903795,78.84979515,29.24341319,14.44607768,43.28170070
-3.00607442,0.03803373,-1.24730171

>  <Name>
ligand

>  <RI>
0

>  <Rbt.Current_Directory>
/home/itssahil/PROJECTS/Mol_Feturizer/New_Systems/rnas/3GS8

>  <Rbt.Executable>
rbdock ($Id: //depot/dev/client3/rdock/2013.1/src/exe/rbdock.cxx#4 $)

>  <Rbt.Library>
libRbt.so (2013.1, Build901 2013/11/27)

>  <Rbt.Parameter_File>
/export/apps/rDock/src/rDock_2013.1_src/data/scripts/dock_solv.prm

>  <Rbt.Receptor>
prm/blind_docking_60.prm

>  <SCORE>
-11.8378

>  <SCORE.INTER>
-2.53693

>  <SCORE.INTER.CONST>
1

>  <SCORE.INTER.POLAR>
0

>  <SCORE.INTER.ROT>
9

>  <SCORE.INTER.SOLV>
13.5167

>  <SCORE.INTER.VDW>
-15.7969

>  <SCORE.INTER.norm>
-0.195148

>  <SCORE.INTRA>
-9.30091

>  <SCORE.INTRA.DIHEDRAL>
-23.4234

>  <SCORE.INTRA.DIHEDRAL.0>
31.9578

>  <SCORE.INTRA.POLAR>
0

>  <SCORE.INTRA.POLAR.0>
0

>  <SCORE.INTRA.REPUL>
0

>  <SCORE.INTRA.REPUL.0>
0

>  <SCORE.INTRA.SOLV>
0.44474

>  <SCORE.INTRA.SOLV.lig_0>
-48.4032

>  <SCORE.INTRA.VDW>
2.18841

>  <SCORE.INTRA.VDW.0>
-1.65238

>  <SCORE.INTRA.norm>
-0.715455

>  <SCORE.RESTR>
0

>  <SCORE.RESTR.CAVITY>
0

>  <SCORE.RESTR.norm>
0

>  <SCORE.SYSTEM>
0

>  <SCORE.SYSTEM.CONST>
0

>  <SCORE.SYSTEM.DIHEDRAL>
0

>  <SCORE.SYSTEM.SOLV>
0

>  <SCORE.SYSTEM.norm>
0

>  <SCORE.heavy>
13

>  <SCORE.norm>
-0.910603

>  <RMSD>
21.144

$$$$
ligand
 OpenBabel11021811473D
libRbt.so/2013.1/901 2013/11/27
 13 12  0  0  0  0  0  0  0  0999 V2000
   26.2850   13.8220   44.5124 O   0  0  0  0  0  0  0  0  0  0  0  0
   24.3843   16.0227   44.1689 O   0  0  0  0  0  0  0  0  0  0  0  0
   30.7022   13.7879   43.4124 P   0  0  1  0  0  0  0  0  0  0  0  0
   31.1215   15.2169   43.6203 O   0  5  0  0  0  0  0  0  0  0  0  0
   30.9034   12.6513   44.2845 O   0  0  0  0  0  0  0  0  0  0  0  0
   29.3714   13.9194   42.5097 O   0  0  0  0  0  0  0  0  0  0  0  0
   21.7223   15.9724   42.9080 O   0  0  0  0  0  0  0  0  0  0  0  0
   28.1183   14.3787   43.0615 C   0  0  0  0  0  0  0  0  0  0  0  0
   24.0267   14.6394   43.9831 C   0  0  0  0  0  0  0  0  0  0  0  0
   22.3792   17.1660   43.3698 C   0  0  0  0  0  0  0  0  0  0  0  0
   27.5153   13.3143   43.9900 C   0  0  0  0  0  0  0  0  0  0  0  0
   25.2536   13.8275   43.5065 C   0  0  0  0  0  0  0  0  0  0  0  0
   23.2763   16.8394   44.5867 C   0  0  0  0  0  0  0  0  0  0  0  0
  1 12  1  0  0  0  0
  1 11  1  0  0  0  0
  2 13  1  0  0  0  0
  2  9  1  0  0  0  0
  3  4  1  1  0  0  0
  3  5  2  0  0  0  0
  3  6  1  0  0  0  0
  6  8  1  0  0  0  0
  7 10  1  0  0  0  0
  8 11  1  0  0  0  0
  9 12  1  0  0  0  0
 10 13  1  0  0  0  0
M  CHG  1   4  -1
M  END
>  <CHROM.1>
-168.24198914,-78.34464799,-73.52097561,-71.19681261,179.67376696,178.79319828
63.80209346,68.20798313,73.13060971,26.91920257,14.65164567,43.66270730,2.85156483
0.06472317,-0.14602503

>  <Name>
ligand

>  <RI>
0

>  <Rbt.Current_Directory>
/home/itssahil/PROJECTS/Mol_Feturizer/New_Systems/rnas/3GS8

>  <Rbt.Executable>
rbdock ($Id: //depot/dev/client3/rdock/2013.1/src/exe/rbdock.cxx#4 $)

>  <Rbt.Library>
libRbt.so (2013.1, Build901 2013/11/27)

>  <Rbt.Parameter_File>
/export/apps/rDock/src/rDock_2013.1_src/data/scripts/dock_solv.prm

>  <Rbt.Receptor>
prm/blind_docking_60.prm

>  <SCORE>
-13.8545

>  <SCORE.INTER>
-2.66077

>  <SCORE.INTER.CONST>
1

>  <SCORE.INTER.POLAR>
0

>  <SCORE.INTER.ROT>
9

>  <SCORE.INTER.SOLV>
14.843

>  <SCORE.INTER.VDW>
-16.3215

>  <SCORE.INTER.norm>
-0.204675

>  <SCORE.INTRA>
-11.2351

>  <SCORE.INTRA.DIHEDRAL>
-27.7402

>  <SCORE.INTRA.DIHEDRAL.0>
31.9578

>  <SCORE.INTRA.POLAR>
0

>  <SCORE.INTRA.POLAR.0>
0

>  <SCORE.INTRA.REPUL>
0

>  <SCORE.INTRA.REPUL.0>
0

>  <SCORE.INTRA.SOLV>
0.504598

>  <SCORE.INTRA.SOLV.lig_0>
-48.4032

>  <SCORE.INTRA.VDW>
2.38271

>  <SCORE.INTRA.VDW.0>
-1.65238

>  <SCORE.INTRA.norm>
-0.864238

>  <SCORE.RESTR>
0.0413242

>  <SCORE.RESTR.CAVITY>
0.0413242

>  <SCORE.RESTR.norm>
0.00317879

>  <SCORE.SYSTEM>
0

>  <SCORE.SYSTEM.CONST>
0

>  <SCORE.SYSTEM.DIHEDRAL>
0

>  <SCORE.SYSTEM.SOLV>
0

>  <SCORE.SYSTEM.norm>
0

>  <SCORE.heavy>
13

>  <SCORE.norm>
-1.06573

>  <RMSD>
21.145

$$$$
ligand
 OpenBabel11021811473D
libRbt.so/2013.1/901 2013/11/27
 13 12  0  0  0  0  0  0  0  0999 V2000
   27.1003   13.3427   43.2161 O   0  0  0  0  0  0  0  0  0  0  0  0
   24.1296   15.4986   43.8022 O   0  0  0  0  0  0  0  0  0  0  0  0
   31.3783   14.1511   43.9457 P   0  0  1  0  0  0  0  0  0  0  0  0
   32.3070   13.0423   43.5343 O   0  5  0  0  0  0  0  0  0  0  0  0
   31.5459   15.5784   43.7796 O   0  0  0  0  0  0  0  0  0  0  0  0
   29.9199   13.4675   43.8512 O   0  0  0  0  0  0  0  0  0  0  0  0
   22.4147   17.6103   42.9531 O   0  0  0  0  0  0  0  0  0  0  0  0
   28.8657   13.7881   44.7848 C   0  0  0  0  0  0  0  0  0  0  0  0
   24.8623   14.2682   43.6436 C   0  0  0  0  0  0  0  0  0  0  0  0
   21.9942   16.6736   43.9607 C   0  0  0  0  0  0  0  0  0  0  0  0
   27.6125   12.9500   44.4919 C   0  0  0  0  0  0  0  0  0  0  0  0
   26.3432   14.5647   43.3111 C   0  0  0  0  0  0  0  0  0  0  0  0
   22.7038   15.3156   43.7501 C   0  0  0  0  0  0  0  0  0  0  0  0
  1 12  1  0  0  0  0
  1 11  1  0  0  0  0
  2 13  1  0  0  0  0
  2  9  1  0  0  0  0
  3  4  1  6  0  0  0
  3  5  2  0  0  0  0
  3  6  1  0  0  0  0
  6  8  1  0  0  0  0
  7 10  1  0  0  0  0
  8 11  1  0  0  0  0
  9 12  1  0  0  0  0
 10 13  1  0  0  0  0
M  CHG  1   4  -1
M  END
>  <CHROM.1>
-88.02617326,178.68485280,144.15515141,-177.69101853,-65.82184386,164.09596924
177.13391827,58.42735755,-79.59897278,27.41384227,14.60271126,43.77120345
2.88028723,-0.00267053,-0.13276818

>  <Name>
ligand

>  <RI>
0

>  <Rbt.Current_Directory>
/home/itssahil/PROJECTS/Mol_Feturizer/New_Systems/rnas/3GS8

>  <Rbt.Executable>
rbdock ($Id: //depot/dev/client3/rdock/2013.1/src/exe/rbdock.cxx#4 $)

>  <Rbt.Library>
libRbt.so (2013.1, Build901 2013/11/27)

>  <Rbt.Parameter_File>
/export/apps/rDock/src/rDock_2013.1_src/data/scripts/dock_solv.prm

>  <Rbt.Receptor>
prm/blind_docking_60.prm

>  <SCORE>
-15.2822

>  <SCORE.INTER>
-3.28391

>  <SCORE.INTER.CONST>
1

>  <SCORE.INTER.POLAR>
0

>  <SCORE.INTER.ROT>
9

>  <SCORE.INTER.SOLV>
17.7728

>  <SCORE.INTER.VDW>
-17.7136

>  <SCORE.INTER.norm>
-0.252609

>  <SCORE.INTRA>
-11.9983

>  <SCORE.INTRA.DIHEDRAL>
-25.0894

>  <SCORE.INTRA.DIHEDRAL.0>
31.9578

>  <SCORE.INTRA.POLAR>
0

>  <SCORE.INTRA.POLAR.0>
0

>  <SCORE.INTRA.REPUL>
0

>  <SCORE.INTRA.REPUL.0>
0

>  <SCORE.INTRA.SOLV>
-1.68996

>  <SCORE.INTRA.SOLV.lig_0>
-48.4032

>  <SCORE.INTRA.VDW>
1.39134

>  <SCORE.INTRA.VDW.0>
-1.65238

>  <SCORE.INTRA.norm>
-0.922949

>  <SCORE.RESTR>
0

>  <SCORE.RESTR.CAVITY>
0

>  <SCORE.RESTR.norm>
0

>  <SCORE.SYSTEM>
0

>  <SCORE.SYSTEM.CONST>
0

>  <SCORE.SYSTEM.DIHEDRAL>
0

>  <SCORE.SYSTEM.SOLV>
0

>  <SCORE.SYSTEM.norm>
0

>  <SCORE.heavy>
13

>  <SCORE.norm>
-1.17556

>  <RMSD>
21.161

$$$$
ligand
 OpenBabel11021811473D
libRbt.so/2013.1/901 2013/11/27
 13 12  0  0  0  0  0  0  0  0999 V2000
   27.2238   14.2671   43.7189 O   0  0  0  0  0  0  0  0  0  0  0  0
   23.5370   14.2167   43.2454 O   0  0  0  0  0  0  0  0  0  0  0  0
   32.2731   14.2853   43.2530 P   0  0  1  0  0  0  0  0  0  0  0  0
   32.2980   15.7848   43.3623 O   0  5  0  0  0  0  0  0  0  0  0  0
   33.0339   13.3117   44.0055 O   0  0  0  0  0  0  0  0  0  0  0  0
   30.7642   13.9734   42.7744 O   0  0  0  0  0  0  0  0  0  0  0  0
   21.4554   17.1859   43.9722 O   0  0  0  0  0  0  0  0  0  0  0  0
   29.6250   14.2438   43.6199 C   0  0  0  0  0  0  0  0  0  0  0  0
   24.7869   14.5597   43.8748 C   0  0  0  0  0  0  0  0  0  0  0  0
   22.4913   16.4225   43.3291 C   0  0  0  0  0  0  0  0  0  0  0  0
   28.3240   13.8151   42.9254 C   0  0  0  0  0  0  0  0  0  0  0  0
   25.9648   13.8922   43.1273 C   0  0  0  0  0  0  0  0  0  0  0  0
   22.4184   14.9452   43.7813 C   0  0  0  0  0  0  0  0  0  0  0  0
  1 12  1  0  0  0  0
  1 11  1  0  0  0  0
  2 13  1  0  0  0  0
  2  9  1  0  0  0  0
  3  4  1  1  0  0  0
  3  5  2  0  0  0  0
  3  6  1  0  0  0  0
  6  8  1  0  0  0  0
  7 10  1  0  0  0  0
  8 11  1  0  0  0  0
  9 12  1  0  0  0  0
 10 13  1  0  0  0  0
M  CHG  1   4  -1
M  END
>  <CHROM.1>
-171.65405077,71.63452949,-65.89704688,-178.47566403,-172.25313188,-172.23049649
177.92405901,-174.07593213,-179.72071355,27.69455842,14.65869797,43.44699034
2.99515920,0.01334622,0.08144374

>  <Name>
ligand

>  <RI>
0

>  <Rbt.Current_Directory>
/home/itssahil/PROJECTS/Mol_Feturizer/New_Systems/rnas/3GS8

>  <Rbt.Executable>
rbdock ($Id: //depot/dev/client3/rdock/2013.1/src/exe/rbdock.cxx#4 $)

>  <Rbt.Library>
libRbt.so (2013.1, Build901 2013/11/27)

>  <Rbt.Parameter_File>
/export/apps/rDock/src/rDock_2013.1_src/data/scripts/dock_solv.prm

>  <Rbt.Receptor>
prm/blind_docking_60.prm

>  <SCORE>
-13.9378

>  <SCORE.INTER>
0.387538

>  <SCORE.INTER.CONST>
1

>  <SCORE.INTER.POLAR>
0

>  <SCORE.INTER.ROT>
9

>  <SCORE.INTER.SOLV>
17.1941

>  <SCORE.INTER.VDW>
-15.073

>  <SCORE.INTER.norm>
0.0298106

>  <SCORE.INTRA>
-14.3253

>  <SCORE.INTRA.DIHEDRAL>
-29.9347

>  <SCORE.INTRA.DIHEDRAL.0>
31.9578

>  <SCORE.INTRA.POLAR>
0

>  <SCORE.INTRA.POLAR.0>
0

>  <SCORE.INTRA.REPUL>
0

>  <SCORE.INTRA.REPUL.0>
0

>  <SCORE.INTRA.SOLV>
-1.59377

>  <SCORE.INTRA.SOLV.lig_0>
-48.4032

>  <SCORE.INTRA.VDW>
1.43893

>  <SCORE.INTRA.VDW.0>
-1.65238

>  <SCORE.INTRA.norm>
-1.10195

>  <SCORE.RESTR>
0

>  <SCORE.RESTR.CAVITY>
0

>  <SCORE.RESTR.norm>
0

>  <SCORE.SYSTEM>
0

>  <SCORE.SYSTEM.CONST>
0

>  <SCORE.SYSTEM.DIHEDRAL>
0

>  <SCORE.SYSTEM.SOLV>
0

>  <SCORE.SYSTEM.norm>
0

>  <SCORE.heavy>
13

>  <SCORE.norm>
-1.07214

>  <RMSD>
21.171

$$$$
ligand
 OpenBabel11021811473D
libRbt.so/2013.1/901 2013/11/27
 13 12  0  0  0  0  0  0  0  0999 V2000
   25.7853   14.0829   42.8906 O   0  0  0  0  0  0  0  0  0  0  0  0
   23.1152   15.2200   42.3919 O   0  0  0  0  0  0  0  0  0  0  0  0
   30.7455   14.4532   43.8844 P   0  0  1  0  0  0  0  0  0  0  0  0
   31.2338   13.2908   43.0650 O   0  5  0  0  0  0  0  0  0  0  0  0
   31.1610   15.8377   43.8261 O   0  0  0  0  0  0  0  0  0  0  0  0
   29.2178   14.0558   44.2182 O   0  0  0  0  0  0  0  0  0  0  0  0
   23.4422   17.7372   43.7807 O   0  0  0  0  0  0  0  0  0  0  0  0
   28.1361   14.3556   43.3096 C   0  0  0  0  0  0  0  0  0  0  0  0
   23.4288   13.8223   42.2370 C   0  0  0  0  0  0  0  0  0  0  0  0
   22.1879   17.0337   43.7397 C   0  0  0  0  0  0  0  0  0  0  0  0
   26.8232   13.7360   43.8108 C   0  0  0  0  0  0  0  0  0  0  0  0
   24.5525   13.4129   43.2175 C   0  0  0  0  0  0  0  0  0  0  0  0
   22.4382   15.5116   43.6272 C   0  0  0  0  0  0  0  0  0  0  0  0
  1 12  1  0  0  0  0
  1 11  1  0  0  0  0
  2 13  1  0  0  0  0
  2  9  1  0  0  0  0
  3  4  1  6  0  0  0
  3  5  2  0  0  0  0
  3  6  1  0  0  0  0
  6  8  1  0  0  0  0
  7 10  1  0  0  0  0
  8 11  1  0  0  0  0
  9 12  1  0  0  0  0
 10 13  1  0  0  0  0
M  CHG  1   4  -1
M  END
>  <CHROM.1>
178.60422889,177.82217559,-85.80345091,174.02597751,178.95657226,-70.75028409
-65.50382592,-62.92771517,173.63688648,26.73874111,14.79542461,43.42337826
2.99143811,-0.11053595,0.27434379

>  <Name>
ligand

>  <RI>
0

>  <Rbt.Current_Directory>
/home/itssahil/PROJECTS/Mol_Feturizer/New_Systems/rnas/3GS8

>  <Rbt.Executable>
rbdock ($Id: //depot/dev/client3/rdock/2013.1/src/exe/rbdock.cxx#4 $)

>  <Rbt.Library>
libRbt.so (2013.1, Build901 2013/11/27)

>  <Rbt.Parameter_File>
/export/apps/rDock/src/rDock_2013.1_src/data/scripts/dock_solv.prm

>  <Rbt.Receptor>
prm/blind_docking_60.prm

>  <SCORE>
-15.8249

>  <SCORE.INTER>
-0.985707

>  <SCORE.INTER.CONST>
1

>  <SCORE.INTER.POLAR>
0

>  <SCORE.INTER.ROT>
9

>  <SCORE.INTER.SOLV>
17.294

>  <SCORE.INTER.VDW>
-16.0218

>  <SCORE.INTER.norm>
-0.0758236

>  <SCORE.INTRA>
-14.8392

>  <SCORE.INTRA.DIHEDRAL>
-30.5052

>  <SCORE.INTRA.DIHEDRAL.0>
31.9578

>  <SCORE.INTRA.POLAR>
0

>  <SCORE.INTRA.POLAR.0>
0

>  <SCORE.INTRA.REPUL>
0

>  <SCORE.INTRA.REPUL.0>
0

>  <SCORE.INTRA.SOLV>
-1.21109

>  <SCORE.INTRA.SOLV.lig_0>
-48.4032

>  <SCORE.INTRA.VDW>
1.01891

>  <SCORE.INTRA.VDW.0>
-1.65238

>  <SCORE.INTRA.norm>
-1.14148

>  <SCORE.RESTR>
0

>  <SCORE.RESTR.CAVITY>
0

>  <SCORE.RESTR.norm>
0

>  <SCORE.SYSTEM>
0

>  <SCORE.SYSTEM.CONST>
0

>  <SCORE.SYSTEM.DIHEDRAL>
0

>  <SCORE.SYSTEM.SOLV>
0

>  <SCORE.SYSTEM.norm>
0

>  <SCORE.heavy>
13

>  <SCORE.norm>
-1.2173

>  <RMSD>
21.233

$$$$
ligand
 OpenBabel11021811473D
libRbt.so/2013.1/901 2013/11/27
 13 12  0  0  0  0  0  0  0  0999 V2000
   32.1161   19.9939   62.6197 O   0  0  0  0  0  0  0  0  0  0  0  0
   32.8387   22.0005   60.6809 O   0  0  0  0  0  0  0  0  0  0  0  0
   30.1553   15.4689   63.8109 P   0  0  1  0  0  0  0  0  0  0  0  0
   28.8147   16.1454   63.8906 O   0  5  0  0  0  0  0  0  0  0  0  0
   30.5169   14.2605   63.1025 O   0  0  0  0  0  0  0  0  0  0  0  0
   31.1972   16.6924   63.9558 O   0  0  0  0  0  0  0  0  0  0  0  0
   34.8294   23.5300   59.3411 O   0  0  0  0  0  0  0  0  0  0  0  0
   31.1221   17.8617   63.1116 C   0  0  0  0  0  0  0  0  0  0  0  0
   32.9108   22.2616   62.0960 C   0  0  0  0  0  0  0  0  0  0  0  0
   33.6595   24.1611   59.8911 C   0  0  0  0  0  0  0  0  0  0  0  0
   32.3067   18.8005   63.3839 C   0  0  0  0  0  0  0  0  0  0  0  0
   33.1657   20.9480   62.8715 C   0  0  0  0  0  0  0  0  0  0  0  0
   32.4793   23.1617   59.9118 C   0  0  0  0  0  0  0  0  0  0  0  0
  1 12  1  0  0  0  0
  1 11  1  0  0  0  0
  2 13  1  0  0  0  0
  2  9  1  0  0  0  0
  3  4  1  6  0  0  0
  3  5  2  0  0  0  0
  3  6  1  0  0  0  0
  6  8  1  0  0  0  0
  7 10  1  0  0  0  0
  8 11  1  0  0  0  0
  9 12  1  0  0  0  0
 10 13  1  0  0  0  0
M  CHG  1   4  -1
M  END
>  <CHROM.1>
-177.09285799,71.52128449,-52.69820395,-174.92215238,-174.54442537,174.55077552
-59.03671295,58.00000078,177.52375179,31.84364123,19.25421154,62.33743505
-0.77727592,1.01041949,2.01009248

>  <Name>
ligand

>  <RI>
0

>  <Rbt.Current_Directory>
/home/itssahil/PROJECTS/Mol_Feturizer/New_Systems/rnas/3GS8

>  <Rbt.Executable>
rbdock ($Id: //depot/dev/client3/rdock/2013.1/src/exe/rbdock.cxx#4 $)

>  <Rbt.Library>
libRbt.so (2013.1, Build901 2013/11/27)

>  <Rbt.Parameter_File>
/export/apps/rDock/src/rDock_2013.1_src/data/scripts/dock_solv.prm

>  <Rbt.Receptor>
prm/blind_docking_100.prm

>  <SCORE>
-15.5055

>  <SCORE.INTER>
-1.17785

>  <SCORE.INTER.CONST>
1

>  <SCORE.INTER.POLAR>
0

>  <SCORE.INTER.ROT>
9

>  <SCORE.INTER.SOLV>
11.3559

>  <SCORE.INTER.VDW>
-14.1705

>  <SCORE.INTER.norm>
-0.0906036

>  <SCORE.INTRA>
-14.3277

>  <SCORE.INTRA.DIHEDRAL>
-30.2128

>  <SCORE.INTRA.DIHEDRAL.0>
31.9578

>  <SCORE.INTRA.POLAR>
0

>  <SCORE.INTRA.POLAR.0>
0

>  <SCORE.INTRA.REPUL>
0

>  <SCORE.INTRA.REPUL.0>
0

>  <SCORE.INTRA.SOLV>
-1.08223

>  <SCORE.INTRA.SOLV.lig_0>
-48.4032

>  <SCORE.INTRA.VDW>
1.31984

>  <SCORE.INTRA.VDW.0>
-1.65238

>  <SCORE.INTRA.norm>
-1.10213

>  <SCORE.RESTR>
0

>  <SCORE.RESTR.CAVITY>
0

>  <SCORE.RESTR.norm>
0

>  <SCORE.SYSTEM>
0

>  <SCORE.SYSTEM.CONST>
0

>  <SCORE.SYSTEM.DIHEDRAL>
0

>  <SCORE.SYSTEM.SOLV>
0

>  <SCORE.SYSTEM.norm>
0

>  <SCORE.heavy>
13

>  <SCORE.norm>
-1.19273

>  <RMSD>
21.246

$$$$
ligand
 OpenBabel11021811473D
libRbt.so/2013.1/901 2013/11/27
 13 12  0  0  0  0  0  0  0  0999 V2000
   26.1085   13.5592   43.7789 O   0  0  0  0  0  0  0  0  0  0  0  0
   23.3857   14.3351   44.1794 O   0  0  0  0  0  0  0  0  0  0  0  0
   30.5863   14.3198   44.0189 P   0  0  1  0  0  0  0  0  0  0  0  0
   30.9776   12.8830   43.8104 O   0  5  0  0  0  0  0  0  0  0  0  0
   30.6138   15.4107   43.0691 O   0  0  0  0  0  0  0  0  0  0  0  0
   29.4417   14.2317   45.1526 O   0  0  0  0  0  0  0  0  0  0  0  0
   22.3600   17.7967   43.3664 O   0  0  0  0  0  0  0  0  0  0  0  0
   28.2123   13.5045   44.9397 C   0  0  0  0  0  0  0  0  0  0  0  0
   23.8154   13.7844   42.9192 C   0  0  0  0  0  0  0  0  0  0  0  0
   22.2907   16.3597   43.3623 C   0  0  0  0  0  0  0  0  0  0  0  0
   27.4333   14.0966   43.7559 C   0  0  0  0  0  0  0  0  0  0  0  0
   25.3172   14.0748   42.6911 C   0  0  0  0  0  0  0  0  0  0  0  0
   23.4405   15.7721   44.2137 C   0  0  0  0  0  0  0  0  0  0  0  0
  1 12  1  0  0  0  0
  1 11  1  0  0  0  0
  2 13  1  0  0  0  0
  2  9  1  0  0  0  0
  3  4  1  6  0  0  0
  3  5  2  0  0  0  0
  3  6  1  0  0  0  0
  6  8  1  0  0  0  0
  7 10  1  0  0  0  0
  8 11  1  0  0  0  0
  9 12  1  0  0  0  0
 10 13  1  0  0  0  0
M  CHG  1   4  -1
M  END
>  <CHROM.1>
-165.62230912,73.43756530,-60.94562740,-60.77671932,-166.80044907,65.58188423
56.58894560,-178.60351640,179.96256658,26.82997237,14.60508067,43.81331390
2.90635795,-0.04330398,-0.10112424

>  <Name>
ligand

>  <RI>
0

>  <Rbt.Current_Directory>
/home/itssahil/PROJECTS/Mol_Feturizer/New_Systems/rnas/3GS8

>  <Rbt.Executable>
rbdock ($Id: //depot/dev/client3/rdock/2013.1/src/exe/rbdock.cxx#4 $)

>  <Rbt.Library>
libRbt.so (2013.1, Build901 2013/11/27)

>  <Rbt.Parameter_File>
/export/apps/rDock/src/rDock_2013.1_src/data/scripts/dock_solv.prm

>  <Rbt.Receptor>
prm/blind_docking_60.prm

>  <SCORE>
-15.7131

>  <SCORE.INTER>
-3.98017

>  <SCORE.INTER.CONST>
1

>  <SCORE.INTER.POLAR>
0

>  <SCORE.INTER.ROT>
9

>  <SCORE.INTER.SOLV>
16.6579

>  <SCORE.INTER.VDW>
-17.8061

>  <SCORE.INTER.norm>
-0.306167

>  <SCORE.INTRA>
-11.733

>  <SCORE.INTRA.DIHEDRAL>
-28.8453

>  <SCORE.INTRA.DIHEDRAL.0>
31.9578

>  <SCORE.INTRA.POLAR>
0

>  <SCORE.INTRA.POLAR.0>
0

>  <SCORE.INTRA.REPUL>
0

>  <SCORE.INTRA.REPUL.0>
0

>  <SCORE.INTRA.SOLV>
0.353612

>  <SCORE.INTRA.SOLV.lig_0>
-48.4032

>  <SCORE.INTRA.VDW>
2.51285

>  <SCORE.INTRA.VDW.0>
-1.65238

>  <SCORE.INTRA.norm>
-0.902536

>  <SCORE.RESTR>
0

>  <SCORE.RESTR.CAVITY>
0

>  <SCORE.RESTR.norm>
0

>  <SCORE.SYSTEM>
0

>  <SCORE.SYSTEM.CONST>
0

>  <SCORE.SYSTEM.DIHEDRAL>
0

>  <SCORE.SYSTEM.SOLV>
0

>  <SCORE.SYSTEM.norm>
0

>  <SCORE.heavy>
13

>  <SCORE.norm>
-1.2087

>  <RMSD>
21.283

$$$$
ligand
 OpenBabel11021811473D
libRbt.so/2013.1/901 2013/11/27
 13 12  0  0  0  0  0  0  0  0999 V2000
   26.8586   14.2635   43.3573 O   0  0  0  0  0  0  0  0  0  0  0  0
   23.1896   14.3248   43.9408 O   0  0  0  0  0  0  0  0  0  0  0  0
   31.9156   13.8990   43.5300 P   0  0  1  0  0  0  0  0  0  0  0  0
   32.7815   13.5238   44.7007 O   0  5  0  0  0  0  0  0  0  0  0  0
   32.2050   13.7806   42.1175 O   0  0  0  0  0  0  0  0  0  0  0  0
   30.4185   13.6888   44.0936 O   0  0  0  0  0  0  0  0  0  0  0  0
   23.1447   17.1941   43.6461 O   0  0  0  0  0  0  0  0  0  0  0  0
   29.2600   14.1707   43.3786 C   0  0  0  0  0  0  0  0  0  0  0  0
   24.4202   14.5568   43.2284 C   0  0  0  0  0  0  0  0  0  0  0  0
   21.9639   16.4374   43.9665 C   0  0  0  0  0  0  0  0  0  0  0  0
   27.9691   13.7434   44.0925 C   0  0  0  0  0  0  0  0  0  0  0  0
   25.6097   13.9332   43.9952 C   0  0  0  0  0  0  0  0  0  0  0  0
   22.0670   15.0160   43.3654 C   0  0  0  0  0  0  0  0  0  0  0  0
  1 12  1  0  0  0  0
  1 11  1  0  0  0  0
  2 13  1  0  0  0  0
  2  9  1  0  0  0  0
  3  4  1  1  0  0  0
  3  5  2  0  0  0  0
  3  6  1  0  0  0  0
  6  8  1  0  0  0  0
  7 10  1  0  0  0  0
  8 11  1  0  0  0  0
  9 12  1  0  0  0  0
 10 13  1  0  0  0  0
M  CHG  1   4  -1
M  END
>  <CHROM.1>
177.33514593,-87.93075925,168.28050819,175.88797902,179.06133071,172.96688119
-174.72960751,62.05723123,-178.27438362,27.50958350,14.45180206,43.63747734
2.95248005,0.05528271,-0.22560827

>  <Name>
ligand

>  <RI>
0

>  <Rbt.Current_Directory>
/home/itssahil/PROJECTS/Mol_Feturizer/New_Systems/rnas/3GS8

>  <Rbt.Executable>
rbdock ($Id: //depot/dev/client3/rdock/2013.1/src/exe/rbdock.cxx#4 $)

>  <Rbt.Library>
libRbt.so (2013.1, Build901 2013/11/27)

>  <Rbt.Parameter_File>
/export/apps/rDock/src/rDock_2013.1_src/data/scripts/dock_solv.prm

>  <Rbt.Receptor>
prm/blind_docking_60.prm

>  <SCORE>
-13.269

>  <SCORE.INTER>
0.56373

>  <SCORE.INTER.CONST>
1

>  <SCORE.INTER.POLAR>
0

>  <SCORE.INTER.ROT>
9

>  <SCORE.INTER.SOLV>
14.2002

>  <SCORE.INTER.VDW>
-13.9576

>  <SCORE.INTER.norm>
0.0433639

>  <SCORE.INTRA>
-13.8328

>  <SCORE.INTRA.DIHEDRAL>
-27.9516

>  <SCORE.INTRA.DIHEDRAL.0>
31.9578

>  <SCORE.INTRA.POLAR>
0

>  <SCORE.INTRA.POLAR.0>
0

>  <SCORE.INTRA.REPUL>
0

>  <SCORE.INTRA.REPUL.0>
0

>  <SCORE.INTRA.SOLV>
-1.41744

>  <SCORE.INTRA.SOLV.lig_0>
-48.4032

>  <SCORE.INTRA.VDW>
0.851741

>  <SCORE.INTRA.VDW.0>
-1.65238

>  <SCORE.INTRA.norm>
-1.06406

>  <SCORE.RESTR>
0

>  <SCORE.RESTR.CAVITY>
0

>  <SCORE.RESTR.norm>
0

>  <SCORE.SYSTEM>
0

>  <SCORE.SYSTEM.CONST>
0

>  <SCORE.SYSTEM.DIHEDRAL>
0

>  <SCORE.SYSTEM.SOLV>
0

>  <SCORE.SYSTEM.norm>
0

>  <SCORE.heavy>
13

>  <SCORE.norm>
-1.02069

>  <RMSD>
21.323

$$$$
ligand
 OpenBabel11021811473D
libRbt.so/2013.1/901 2013/11/27
 13 12  0  0  0  0  0  0  0  0999 V2000
   26.5480   14.2508   43.5011 O   0  0  0  0  0  0  0  0  0  0  0  0
   23.6635   14.4329   43.8797 O   0  0  0  0  0  0  0  0  0  0  0  0
   29.8853   14.4682   43.6081 P   0  0  1  0  0  0  0  0  0  0  0  0
   31.3808   14.3225   43.6636 O   0  5  0  0  0  0  0  0  0  0  0  0
   29.0561   14.8559   42.4879 O   0  0  0  0  0  0  0  0  0  0  0  0
   29.3675   13.3935   44.6945 O   0  0  0  0  0  0  0  0  0  0  0  0
   23.6222   17.1816   44.6863 O   0  0  0  0  0  0  0  0  0  0  0  0
   28.0190   13.4204   45.2107 C   0  0  0  0  0  0  0  0  0  0  0  0
   24.2741   13.4377   43.0355 C   0  0  0  0  0  0  0  0  0  0  0  0
   22.4726   16.5551   44.0900 C   0  0  0  0  0  0  0  0  0  0  0  0
   27.0133   13.0449   44.1123 C   0  0  0  0  0  0  0  0  0  0  0  0
   25.6022   13.9722   42.4506 C   0  0  0  0  0  0  0  0  0  0  0  0
   22.9215   15.4193   43.1409 C   0  0  0  0  0  0  0  0  0  0  0  0
  1 12  1  0  0  0  0
  1 11  1  0  0  0  0
  2 13  1  0  0  0  0
  2  9  1  0  0  0  0
  3  4  1  6  0  0  0
  3  5  2  0  0  0  0
  3  6  1  0  0  0  0
  6  8  1  0  0  0  0
  7 10  1  0  0  0  0
  8 11  1  0  0  0  0
  9 12  1  0  0  0  0
 10 13  1  0  0  0  0
M  CHG  1   4  -1
M  END
>  <CHROM.1>
69.70863708,-171.90701774,164.37483972,68.30448897,-93.67655284,81.73929190
62.44868423,60.00135616,179.66002923,26.77029014,14.52782438,43.72992774
2.93167379,-0.03150039,0.13688820

>  <Name>
ligand

>  <RI>
0

>  <Rbt.Current_Directory>
/home/itssahil/PROJECTS/Mol_Feturizer/New_Systems/rnas/3GS8

>  <Rbt.Executable>
rbdock ($Id: //depot/dev/client3/rdock/2013.1/src/exe/rbdock.cxx#4 $)

>  <Rbt.Library>
libRbt.so (2013.1, Build901 2013/11/27)

>  <Rbt.Parameter_File>
/export/apps/rDock/src/rDock_2013.1_src/data/scripts/dock_solv.prm

>  <Rbt.Receptor>
prm/blind_docking_60.prm

>  <SCORE>
-13.3359

>  <SCORE.INTER>
-3.42525

>  <SCORE.INTER.CONST>
1

>  <SCORE.INTER.POLAR>
0

>  <SCORE.INTER.ROT>
9

>  <SCORE.INTER.SOLV>
14.3997

>  <SCORE.INTER.VDW>
-16.6834

>  <SCORE.INTER.norm>
-0.26348

>  <SCORE.INTRA>
-9.91063

>  <SCORE.INTRA.DIHEDRAL>
-25.1651

>  <SCORE.INTRA.DIHEDRAL.0>
31.9578

>  <SCORE.INTRA.POLAR>
0

>  <SCORE.INTRA.POLAR.0>
0

>  <SCORE.INTRA.REPUL>
0

>  <SCORE.INTRA.REPUL.0>
0

>  <SCORE.INTRA.SOLV>
2.56741

>  <SCORE.INTRA.SOLV.lig_0>
-48.4032

>  <SCORE.INTRA.VDW>
1.38821

>  <SCORE.INTRA.VDW.0>
-1.65238

>  <SCORE.INTRA.norm>
-0.762356

>  <SCORE.RESTR>
0

>  <SCORE.RESTR.CAVITY>
0

>  <SCORE.RESTR.norm>
0

>  <SCORE.SYSTEM>
0

>  <SCORE.SYSTEM.CONST>
0

>  <SCORE.SYSTEM.DIHEDRAL>
0

>  <SCORE.SYSTEM.SOLV>
0

>  <SCORE.SYSTEM.norm>
0

>  <SCORE.heavy>
13

>  <SCORE.norm>
-1.02584

>  <RMSD>
21.373

$$$$
ligand
 OpenBabel11021811473D
libRbt.so/2013.1/901 2013/11/27
 13 12  0  0  0  0  0  0  0  0999 V2000
   32.0640   19.5751   63.2819 O   0  0  0  0  0  0  0  0  0  0  0  0
   32.9085   22.2785   60.8820 O   0  0  0  0  0  0  0  0  0  0  0  0
   29.8221   15.6219   63.6843 P   0  0  1  0  0  0  0  0  0  0  0  0
   30.3230   15.4750   62.2742 O   0  5  0  0  0  0  0  0  0  0  0  0
   28.8265   14.8328   64.3764 O   0  0  0  0  0  0  0  0  0  0  0  0
   31.0942   16.2307   64.4681 O   0  0  0  0  0  0  0  0  0  0  0  0
   32.0745   24.3454   58.9573 O   0  0  0  0  0  0  0  0  0  0  0  0
   31.3429   17.6519   64.5300 C   0  0  0  0  0  0  0  0  0  0  0  0
   32.7797   21.6497   62.1719 C   0  0  0  0  0  0  0  0  0  0  0  0
   33.3850   24.2665   59.5454 C   0  0  0  0  0  0  0  0  0  0  0  0
   31.7172   18.1949   63.1430 C   0  0  0  0  0  0  0  0  0  0  0  0
   32.3882   20.1626   62.0071 C   0  0  0  0  0  0  0  0  0  0  0  0
   33.2921   23.6623   60.9661 C   0  0  0  0  0  0  0  0  0  0  0  0
  1 12  1  0  0  0  0
  1 11  1  0  0  0  0
  2 13  1  0  0  0  0
  2  9  1  0  0  0  0
  3  4  1  6  0  0  0
  3  5  2  0  0  0  0
  3  6  1  0  0  0  0
  6  8  1  0  0  0  0
  7 10  1  0  0  0  0
  8 11  1  0  0  0  0
  9 12  1  0  0  0  0
 10 13  1  0  0  0  0
M  CHG  1   4  -1
M  END
>  <CHROM.1>
-179.24414634,-179.06425199,87.06396643,-67.94616186,-175.06868697,-179.11647413
-171.50540954,68.10155915,-178.22513421,31.51662708,19.17860678,62.44097896
-1.05712544,0.87529510,2.29888204

>  <Name>
ligand

>  <RI>
0

>  <Rbt.Current_Directory>
/home/itssahil/PROJECTS/Mol_Feturizer/New_Systems/rnas/3GS8

>  <Rbt.Executable>
rbdock ($Id: //depot/dev/client3/rdock/2013.1/src/exe/rbdock.cxx#4 $)

>  <Rbt.Library>
libRbt.so (2013.1, Build901 2013/11/27)

>  <Rbt.Parameter_File>
/export/apps/rDock/src/rDock_2013.1_src/data/scripts/dock_solv.prm

>  <Rbt.Receptor>
prm/blind_docking_100.prm

>  <SCORE>
-17.2891

>  <SCORE.INTER>
-2.65164

>  <SCORE.INTER.CONST>
1

>  <SCORE.INTER.POLAR>
0

>  <SCORE.INTER.ROT>
9

>  <SCORE.INTER.SOLV>
11.4521

>  <SCORE.INTER.VDW>
-15.1851

>  <SCORE.INTER.norm>
-0.203972

>  <SCORE.INTRA>
-14.6375

>  <SCORE.INTRA.DIHEDRAL>
-29.8808

>  <SCORE.INTRA.DIHEDRAL.0>
31.9578

>  <SCORE.INTRA.POLAR>
0

>  <SCORE.INTRA.POLAR.0>
0

>  <SCORE.INTRA.REPUL>
0

>  <SCORE.INTRA.REPUL.0>
0

>  <SCORE.INTRA.SOLV>
-0.309399

>  <SCORE.INTRA.SOLV.lig_0>
-48.4032

>  <SCORE.INTRA.VDW>
0.457599

>  <SCORE.INTRA.VDW.0>
-1.65238

>  <SCORE.INTRA.norm>
-1.12596

>  <SCORE.RESTR>
0

>  <SCORE.RESTR.CAVITY>
0

>  <SCORE.RESTR.norm>
0

>  <SCORE.SYSTEM>
0

>  <SCORE.SYSTEM.CONST>
0

>  <SCORE.SYSTEM.DIHEDRAL>
0

>  <SCORE.SYSTEM.SOLV>
0

>  <SCORE.SYSTEM.norm>
0

>  <SCORE.heavy>
13

>  <SCORE.norm>
-1.32993

>  <RMSD>
21.387

$$$$
ligand
 OpenBabel11021811473D
libRbt.so/2013.1/901 2013/11/27
 13 12  0  0  0  0  0  0  0  0999 V2000
   26.0915   13.6326   44.0379 O   0  0  0  0  0  0  0  0  0  0  0  0
   23.7481   15.1690   43.2860 O   0  0  0  0  0  0  0  0  0  0  0  0
   30.5594   13.6505   43.6330 P   0  0  1  0  0  0  0  0  0  0  0  0
   30.6750   15.1354   43.8400 O   0  5  0  0  0  0  0  0  0  0  0  0
   31.5044   12.7486   43.0113 O   0  0  0  0  0  0  0  0  0  0  0  0
   29.6458   13.1731   44.8742 O   0  0  0  0  0  0  0  0  0  0  0  0
   23.3378   17.6738   44.6055 O   0  0  0  0  0  0  0  0  0  0  0  0
   28.2802   13.6162   45.0305 C   0  0  0  0  0  0  0  0  0  0  0  0
   23.7851   13.7319   43.1899 C   0  0  0  0  0  0  0  0  0  0  0  0
   22.4642   17.2297   43.5523 C   0  0  0  0  0  0  0  0  0  0  0  0
   27.4176   13.1298   43.8566 C   0  0  0  0  0  0  0  0  0  0  0  0
   25.2335   13.2477   42.9464 C   0  0  0  0  0  0  0  0  0  0  0  0
   22.4245   15.6840   43.5140 C   0  0  0  0  0  0  0  0  0  0  0  0
  1 12  1  0  0  0  0
  1 11  1  0  0  0  0
  2 13  1  0  0  0  0
  2  9  1  0  0  0  0
  3  4  1  1  0  0  0
  3  5  2  0  0  0  0
  3  6  1  0  0  0  0
  6  8  1  0  0  0  0
  7 10  1  0  0  0  0
  8 11  1  0  0  0  0
  9 12  1  0  0  0  0
 10 13  1  0  0  0  0
M  CHG  1   4  -1
M  END
>  <CHROM.1>
176.96328349,-177.92812958,63.67783098,62.94819231,-178.06791606,-179.95869769
61.02679708,-59.57203437,178.21588495,26.92624925,14.39177671,43.79309958
2.83293649,-0.08719428,0.20966395

>  <Name>
ligand

>  <RI>
0

>  <Rbt.Current_Directory>
/home/itssahil/PROJECTS/Mol_Feturizer/New_Systems/rnas/3GS8

>  <Rbt.Executable>
rbdock ($Id: //depot/dev/client3/rdock/2013.1/src/exe/rbdock.cxx#4 $)

>  <Rbt.Library>
libRbt.so (2013.1, Build901 2013/11/27)

>  <Rbt.Parameter_File>
/export/apps/rDock/src/rDock_2013.1_src/data/scripts/dock_solv.prm

>  <Rbt.Receptor>
prm/blind_docking_60.prm

>  <SCORE>
-18.1625

>  <SCORE.INTER>
-2.96674

>  <SCORE.INTER.CONST>
1

>  <SCORE.INTER.POLAR>
0

>  <SCORE.INTER.ROT>
9

>  <SCORE.INTER.SOLV>
14.0322

>  <SCORE.INTER.VDW>
-16.2552

>  <SCORE.INTER.norm>
-0.228211

>  <SCORE.INTRA>
-15.1957

>  <SCORE.INTRA.DIHEDRAL>
-31.2685

>  <SCORE.INTRA.DIHEDRAL.0>
31.9578

>  <SCORE.INTRA.POLAR>
0

>  <SCORE.INTRA.POLAR.0>
0

>  <SCORE.INTRA.REPUL>
0

>  <SCORE.INTRA.REPUL.0>
0

>  <SCORE.INTRA.SOLV>
-0.102392

>  <SCORE.INTRA.SOLV.lig_0>
-48.4032

>  <SCORE.INTRA.VDW>
0.489713

>  <SCORE.INTRA.VDW.0>
-1.65238

>  <SCORE.INTRA.norm>
-1.1689

>  <SCORE.RESTR>
0

>  <SCORE.RESTR.CAVITY>
0

>  <SCORE.RESTR.norm>
0

>  <SCORE.SYSTEM>
0

>  <SCORE.SYSTEM.CONST>
0

>  <SCORE.SYSTEM.DIHEDRAL>
0

>  <SCORE.SYSTEM.SOLV>
0

>  <SCORE.SYSTEM.norm>
0

>  <SCORE.heavy>
13

>  <SCORE.norm>
-1.39711

>  <RMSD>
21.397

$$$$
ligand
 OpenBabel11021811473D
libRbt.so/2013.1/901 2013/11/27
 13 12  0  0  0  0  0  0  0  0999 V2000
   27.1536   13.6447   43.8254 O   0  0  0  0  0  0  0  0  0  0  0  0
   23.5600   14.5345   43.5285 O   0  0  0  0  0  0  0  0  0  0  0  0
   31.5182   14.4888   43.5076 P   0  0  1  0  0  0  0  0  0  0  0  0
   31.6644   15.9630   43.2500 O   0  5  0  0  0  0  0  0  0  0  0  0
   32.5288   13.5388   43.9188 O   0  0  0  0  0  0  0  0  0  0  0  0
   29.9913   14.3498   44.0103 O   0  0  0  0  0  0  0  0  0  0  0  0
   21.6204   16.6372   43.7906 O   0  0  0  0  0  0  0  0  0  0  0  0
   29.4223   13.0739   44.3762 C   0  0  0  0  0  0  0  0  0  0  0  0
   24.8814   14.1972   43.0637 C   0  0  0  0  0  0  0  0  0  0  0  0
   21.3430   15.4386   43.0449 C   0  0  0  0  0  0  0  0  0  0  0  0
   27.9948   13.2541   44.9135 C   0  0  0  0  0  0  0  0  0  0  0  0
   25.7911   13.8247   44.2576 C   0  0  0  0  0  0  0  0  0  0  0  0
   22.6545   14.8636   42.4603 C   0  0  0  0  0  0  0  0  0  0  0  0
  1 12  1  0  0  0  0
  1 11  1  0  0  0  0
  2 13  1  0  0  0  0
  2  9  1  0  0  0  0
  3  4  1  1  0  0  0
  3  5  2  0  0  0  0
  3  6  1  0  0  0  0
  6  8  1  0  0  0  0
  7 10  1  0  0  0  0
  8 11  1  0  0  0  0
  9 12  1  0  0  0  0
 10 13  1  0  0  0  0
M  CHG  1   4  -1
M  END
>  <CHROM.1>
-177.96193566,-170.54278363,-179.86840948,175.75639130,69.45393433,-178.73449218
-172.97504309,60.80704357,179.66130451,27.34664570,14.46878266,43.67557653
3.02418596,-0.01014314,-0.36893943

>  <Name>
ligand

>  <RI>
0

>  <Rbt.Current_Directory>
/home/itssahil/PROJECTS/Mol_Feturizer/New_Systems/rnas/3GS8

>  <Rbt.Executable>
rbdock ($Id: //depot/dev/client3/rdock/2013.1/src/exe/rbdock.cxx#4 $)

>  <Rbt.Library>
libRbt.so (2013.1, Build901 2013/11/27)

>  <Rbt.Parameter_File>
/export/apps/rDock/src/rDock_2013.1_src/data/scripts/dock_solv.prm

>  <Rbt.Receptor>
prm/blind_docking_60.prm

>  <SCORE>
-16.5976

>  <SCORE.INTER>
-0.824801

>  <SCORE.INTER.CONST>
1

>  <SCORE.INTER.POLAR>
0

>  <SCORE.INTER.ROT>
9

>  <SCORE.INTER.SOLV>
16.4881

>  <SCORE.INTER.VDW>
-15.6459

>  <SCORE.INTER.norm>
-0.0634462

>  <SCORE.INTRA>
-15.7728

>  <SCORE.INTRA.DIHEDRAL>
-30.4232

>  <SCORE.INTRA.DIHEDRAL.0>
31.9578

>  <SCORE.INTRA.POLAR>
0

>  <SCORE.INTRA.POLAR.0>
0

>  <SCORE.INTRA.REPUL>
0

>  <SCORE.INTRA.REPUL.0>
0

>  <SCORE.INTRA.SOLV>
-1.63411

>  <SCORE.INTRA.SOLV.lig_0>
-48.4032

>  <SCORE.INTRA.VDW>
0.255845

>  <SCORE.INTRA.VDW.0>
-1.65238

>  <SCORE.INTRA.norm>
-1.21329

>  <SCORE.RESTR>
0

>  <SCORE.RESTR.CAVITY>
0

>  <SCORE.RESTR.norm>
0

>  <SCORE.SYSTEM>
0

>  <SCORE.SYSTEM.CONST>
0

>  <SCORE.SYSTEM.DIHEDRAL>
0

>  <SCORE.SYSTEM.SOLV>
0

>  <SCORE.SYSTEM.norm>
0

>  <SCORE.heavy>
13

>  <SCORE.norm>
-1.27674

>  <RMSD>
21.415

$$$$
ligand
 OpenBabel11021811473D
libRbt.so/2013.1/901 2013/11/27
 13 12  0  0  0  0  0  0  0  0999 V2000
   30.0389   12.9752   43.8409 O   0  0  0  0  0  0  0  0  0  0  0  0
   26.5040   13.9938   44.3624 O   0  0  0  0  0  0  0  0  0  0  0  0
   32.9449   15.0525   42.8513 P   0  0  1  0  0  0  0  0  0  0  0  0
   33.7722   15.3739   41.6376 O   0  5  0  0  0  0  0  0  0  0  0  0
   32.0757   15.9257   43.6095 O   0  0  0  0  0  0  0  0  0  0  0  0
   32.5907   13.4906   42.6556 O   0  0  0  0  0  0  0  0  0  0  0  0
   22.9844   14.7922   43.5461 O   0  0  0  0  0  0  0  0  0  0  0  0
   32.4124   12.6025   43.7805 C   0  0  0  0  0  0  0  0  0  0  0  0
   27.6194   13.3863   43.6823 C   0  0  0  0  0  0  0  0  0  0  0  0
   24.2054   14.8180   44.3065 C   0  0  0  0  0  0  0  0  0  0  0  0
   31.2220   13.0529   44.6400 C   0  0  0  0  0  0  0  0  0  0  0  0
   28.8909   13.4673   44.5589 C   0  0  0  0  0  0  0  0  0  0  0  0
   25.3085   14.0288   43.5632 C   0  0  0  0  0  0  0  0  0  0  0  0
  1 12  1  0  0  0  0
  1 11  1  0  0  0  0
  2 13  1  0  0  0  0
  2  9  1  0  0  0  0
  3  4  1  6  0  0  0
  3  5  2  0  0  0  0
  3  6  1  0  0  0  0
  6  8  1  0  0  0  0
  7 10  1  0  0  0  0
  8 11  1  0  0  0  0
  9 12  1  0  0  0  0
 10 13  1  0  0  0  0
M  CHG  1   4  -1
M  END
>  <CHROM.1>
179.65918820,-174.36264607,148.76075528,62.51563547,62.58069189,176.20191901
-174.68400496,-176.76820736,-176.25246208,29.59083640,14.17208674,43.53730195
-0.07689080,-0.10280110,2.67159255

>  <Name>
ligand

>  <RI>
0

>  <Rbt.Current_Directory>
/home/itssahil/PROJECTS/Mol_Feturizer/New_Systems/rnas/3GS8

>  <Rbt.Executable>
rbdock ($Id: //depot/dev/client3/rdock/2013.1/src/exe/rbdock.cxx#4 $)

>  <Rbt.Library>
libRbt.so (2013.1, Build901 2013/11/27)

>  <Rbt.Parameter_File>
/export/apps/rDock/src/rDock_2013.1_src/data/scripts/dock_solv.prm

>  <Rbt.Receptor>
prm/blind_docking_60.prm

>  <SCORE>
-16.4618

>  <SCORE.INTER>
-1.72254

>  <SCORE.INTER.CONST>
1

>  <SCORE.INTER.POLAR>
0

>  <SCORE.INTER.ROT>
9

>  <SCORE.INTER.SOLV>
19.1875

>  <SCORE.INTER.VDW>
-17.1442

>  <SCORE.INTER.norm>
-0.132503

>  <SCORE.INTRA>
-14.7392

>  <SCORE.INTRA.DIHEDRAL>
-31.0318

>  <SCORE.INTRA.DIHEDRAL.0>
31.9578

>  <SCORE.INTRA.POLAR>
0

>  <SCORE.INTRA.POLAR.0>
0

>  <SCORE.INTRA.REPUL>
0

>  <SCORE.INTRA.REPUL.0>
0

>  <SCORE.INTRA.SOLV>
0.974333

>  <SCORE.INTRA.SOLV.lig_0>
-48.4032

>  <SCORE.INTRA.VDW>
0.289508

>  <SCORE.INTRA.VDW.0>
-1.65238

>  <SCORE.INTRA.norm>
-1.13379

>  <SCORE.RESTR>
0

>  <SCORE.RESTR.CAVITY>
0

>  <SCORE.RESTR.norm>
0

>  <SCORE.SYSTEM>
0

>  <SCORE.SYSTEM.CONST>
0

>  <SCORE.SYSTEM.DIHEDRAL>
0

>  <SCORE.SYSTEM.SOLV>
0

>  <SCORE.SYSTEM.norm>
0

>  <SCORE.heavy>
13

>  <SCORE.norm>
-1.26629

>  <RMSD>
21.452

$$$$
ligand
 OpenBabel11021811473D
libRbt.so/2013.1/901 2013/11/27
 13 12  0  0  0  0  0  0  0  0999 V2000
   26.4403   14.0378   44.4306 O   0  0  0  0  0  0  0  0  0  0  0  0
   22.9865   14.9322   43.3874 O   0  0  0  0  0  0  0  0  0  0  0  0
   31.3397   12.7619   44.5107 P   0  0  1  0  0  0  0  0  0  0  0  0
   31.9189   11.3777   44.4128 O   0  5  0  0  0  0  0  0  0  0  0  0
   31.9925   14.0326   44.2827 O   0  0  0  0  0  0  0  0  0  0  0  0
   29.7879   12.5425   44.1275 O   0  0  0  0  0  0  0  0  0  0  0  0
   23.4981   17.7472   44.1216 O   0  0  0  0  0  0  0  0  0  0  0  0
   28.7458   13.3952   44.6496 C   0  0  0  0  0  0  0  0  0  0  0  0
   24.1772   14.9718   44.1977 C   0  0  0  0  0  0  0  0  0  0  0  0
   22.3489   17.2901   43.3867 C   0  0  0  0  0  0  0  0  0  0  0  0
   27.4076   13.0973   43.9572 C   0  0  0  0  0  0  0  0  0  0  0  0
   25.2217   13.9629   43.6658 C   0  0  0  0  0  0  0  0  0  0  0  0
   21.9751   15.8555   43.8276 C   0  0  0  0  0  0  0  0  0  0  0  0
  1 12  1  0  0  0  0
  1 11  1  0  0  0  0
  2 13  1  0  0  0  0
  2  9  1  0  0  0  0
  3  4  1  6  0  0  0
  3  5  2  0  0  0  0
  3  6  1  0  0  0  0
  6  8  1  0  0  0  0
  7 10  1  0  0  0  0
  8 11  1  0  0  0  0
  9 12  1  0  0  0  0
 10 13  1  0  0  0  0
M  CHG  1   4  -1
M  END
>  <CHROM.1>
179.29790775,76.83366747,151.10185000,171.30378479,-175.36228318,-179.71934459
177.33085222,-68.98842188,170.47537127,27.18161614,14.17292998,44.11174666
2.74509033,-0.09674158,0.04380968

>  <Name>
ligand

>  <RI>
0

>  <Rbt.Current_Directory>
/home/itssahil/PROJECTS/Mol_Feturizer/New_Systems/rnas/3GS8

>  <Rbt.Executable>
rbdock ($Id: //depot/dev/client3/rdock/2013.1/src/exe/rbdock.cxx#4 $)

>  <Rbt.Library>
libRbt.so (2013.1, Build901 2013/11/27)

>  <Rbt.Parameter_File>
/export/apps/rDock/src/rDock_2013.1_src/data/scripts/dock_solv.prm

>  <Rbt.Receptor>
prm/blind_docking_60.prm

>  <SCORE>
-16.6254

>  <SCORE.INTER>
-2.76697

>  <SCORE.INTER.CONST>
1

>  <SCORE.INTER.POLAR>
0

>  <SCORE.INTER.ROT>
9

>  <SCORE.INTER.SOLV>
19.5694

>  <SCORE.INTER.VDW>
-17.9678

>  <SCORE.INTER.norm>
-0.212844

>  <SCORE.INTRA>
-13.8584

>  <SCORE.INTRA.DIHEDRAL>
-29.0453

>  <SCORE.INTRA.DIHEDRAL.0>
31.9578

>  <SCORE.INTRA.POLAR>
0

>  <SCORE.INTRA.POLAR.0>
0

>  <SCORE.INTRA.REPUL>
0

>  <SCORE.INTRA.REPUL.0>
0

>  <SCORE.INTRA.SOLV>
-1.45481

>  <SCORE.INTRA.SOLV.lig_0>
-48.4032

>  <SCORE.INTRA.VDW>
1.39164

>  <SCORE.INTRA.VDW.0>
-1.65238

>  <SCORE.INTRA.norm>
-1.06603

>  <SCORE.RESTR>
0

>  <SCORE.RESTR.CAVITY>
0

>  <SCORE.RESTR.norm>
0

>  <SCORE.SYSTEM>
0

>  <SCORE.SYSTEM.CONST>
0

>  <SCORE.SYSTEM.DIHEDRAL>
0

>  <SCORE.SYSTEM.SOLV>
0

>  <SCORE.SYSTEM.norm>
0

>  <SCORE.heavy>
13

>  <SCORE.norm>
-1.27887

>  <RMSD>
21.456

$$$$
ligand
 OpenBabel11021811473D
libRbt.so/2013.1/901 2013/11/27
 13 12  0  0  0  0  0  0  0  0999 V2000
   27.1538   14.3156   43.3689 O   0  0  0  0  0  0  0  0  0  0  0  0
   30.0229   15.3278   43.0397 O   0  0  0  0  0  0  0  0  0  0  0  0
   23.2401   16.4756   44.0764 P   0  0  1  0  0  0  0  0  0  0  0  0
   22.1356   15.4608   43.9705 O   0  5  0  0  0  0  0  0  0  0  0  0
   23.1724   17.8378   44.5588 O   0  0  0  0  0  0  0  0  0  0  0  0
   24.5533   15.5704   44.3202 O   0  0  0  0  0  0  0  0  0  0  0  0
   32.8552   15.5298   42.5630 O   0  0  0  0  0  0  0  0  0  0  0  0
   24.7633   14.3267   43.6168 C   0  0  0  0  0  0  0  0  0  0  0  0
   29.4542   14.1084   42.5242 C   0  0  0  0  0  0  0  0  0  0  0  0
   32.3017   14.5628   43.4730 C   0  0  0  0  0  0  0  0  0  0  0  0
   26.0801   13.6721   44.0598 C   0  0  0  0  0  0  0  0  0  0  0  0
   28.3781   13.5666   43.4938 C   0  0  0  0  0  0  0  0  0  0  0  0
   30.9869   15.1022   44.0833 C   0  0  0  0  0  0  0  0  0  0  0  0
  1 12  1  0  0  0  0
  1 11  1  0  0  0  0
  2 13  1  0  0  0  0
  2  9  1  0  0  0  0
  3  4  1  1  0  0  0
  3  5  2  0  0  0  0
  3  6  1  0  0  0  0
  6  8  1  0  0  0  0
  7 10  1  0  0  0  0
  8 11  1  0  0  0  0
  9 12  1  0  0  0  0
 10 13  1  0  0  0  0
M  CHG  1   4  -1
M  END
>  <CHROM.1>
168.73708619,74.38199002,40.34084830,-179.19756895,-80.10650002,78.01802916
77.04217747,61.48559485,-166.80298733,26.95074078,15.21312072,43.66343712
0.17065725,-0.10448863,-3.02040066

>  <Name>
ligand

>  <RI>
0

>  <Rbt.Current_Directory>
/home/itssahil/PROJECTS/Mol_Feturizer/New_Systems/rnas/3GS8

>  <Rbt.Executable>
rbdock ($Id: //depot/dev/client3/rdock/2013.1/src/exe/rbdock.cxx#4 $)

>  <Rbt.Library>
libRbt.so (2013.1, Build901 2013/11/27)

>  <Rbt.Parameter_File>
/export/apps/rDock/src/rDock_2013.1_src/data/scripts/dock_solv.prm

>  <Rbt.Receptor>
prm/blind_docking_60.prm

>  <SCORE>
-13.0525

>  <SCORE.INTER>
-1.6611

>  <SCORE.INTER.CONST>
1

>  <SCORE.INTER.POLAR>
0

>  <SCORE.INTER.ROT>
9

>  <SCORE.INTER.SOLV>
20.5094

>  <SCORE.INTER.VDW>
-17.5439

>  <SCORE.INTER.norm>
-0.127777

>  <SCORE.INTRA>
-11.3914

>  <SCORE.INTRA.DIHEDRAL>
-25.3429

>  <SCORE.INTRA.DIHEDRAL.0>
31.9578

>  <SCORE.INTRA.POLAR>
0

>  <SCORE.INTRA.POLAR.0>
0

>  <SCORE.INTRA.REPUL>
0

>  <SCORE.INTRA.REPUL.0>
0

>  <SCORE.INTRA.SOLV>
-1.18223

>  <SCORE.INTRA.SOLV.lig_0>
-48.4032

>  <SCORE.INTRA.VDW>
1.87118

>  <SCORE.INTRA.VDW.0>
-1.65238

>  <SCORE.INTRA.norm>
-0.876261

>  <SCORE.RESTR>
0

>  <SCORE.RESTR.CAVITY>
0

>  <SCORE.RESTR.norm>
0

>  <SCORE.SYSTEM>
0

>  <SCORE.SYSTEM.CONST>
0

>  <SCORE.SYSTEM.DIHEDRAL>
0

>  <SCORE.SYSTEM.SOLV>
0

>  <SCORE.SYSTEM.norm>
0

>  <SCORE.heavy>
13

>  <SCORE.norm>
-1.00404

>  <RMSD>
21.473

$$$$
ligand
 OpenBabel11021811473D
libRbt.so/2013.1/901 2013/11/27
 13 12  0  0  0  0  0  0  0  0999 V2000
   26.0108   13.8756   44.2362 O   0  0  0  0  0  0  0  0  0  0  0  0
   22.6472   14.4152   42.7637 O   0  0  0  0  0  0  0  0  0  0  0  0
   30.4161   14.0369   43.2115 P   0  0  1  0  0  0  0  0  0  0  0  0
   31.4305   15.1382   43.3507 O   0  5  0  0  0  0  0  0  0  0  0  0
   30.4999   12.8254   42.4254 O   0  0  0  0  0  0  0  0  0  0  0  0
   29.6503   14.0567   44.6315 O   0  0  0  0  0  0  0  0  0  0  0  0
   20.3879   15.5878   44.0445 O   0  0  0  0  0  0  0  0  0  0  0  0
   28.3215   13.5132   44.7886 C   0  0  0  0  0  0  0  0  0  0  0  0
   23.6010   14.0850   43.7919 C   0  0  0  0  0  0  0  0  0  0  0  0
   21.6252   16.3106   43.9166 C   0  0  0  0  0  0  0  0  0  0  0  0
   27.3416   14.1966   43.8235 C   0  0  0  0  0  0  0  0  0  0  0  0
   25.0373   14.3990   43.3121 C   0  0  0  0  0  0  0  0  0  0  0  0
   22.3932   15.8275   42.6640 C   0  0  0  0  0  0  0  0  0  0  0  0
  1 12  1  0  0  0  0
  1 11  1  0  0  0  0
  2 13  1  0  0  0  0
  2  9  1  0  0  0  0
  3  4  1  1  0  0  0
  3  5  2  0  0  0  0
  3  6  1  0  0  0  0
  6  8  1  0  0  0  0
  7 10  1  0  0  0  0
  8 11  1  0  0  0  0
  9 12  1  0  0  0  0
 10 13  1  0  0  0  0
M  CHG  1   4  -1
M  END
>  <CHROM.1>
-178.18907812,-69.02862858,157.72455938,-57.25625356,-165.86888423,-77.10400129
-170.64952972,-58.40028985,-175.48725783,26.48821172,14.43709697,43.57807603
3.00507599,0.07855680,-0.46650961

>  <Name>
ligand

>  <RI>
0

>  <Rbt.Current_Directory>
/home/itssahil/PROJECTS/Mol_Feturizer/New_Systems/rnas/3GS8

>  <Rbt.Executable>
rbdock ($Id: //depot/dev/client3/rdock/2013.1/src/exe/rbdock.cxx#4 $)

>  <Rbt.Library>
libRbt.so (2013.1, Build901 2013/11/27)

>  <Rbt.Parameter_File>
/export/apps/rDock/src/rDock_2013.1_src/data/scripts/dock_solv.prm

>  <Rbt.Receptor>
prm/blind_docking_60.prm

>  <SCORE>
-13.1139

>  <SCORE.INTER>
-1.10294

>  <SCORE.INTER.CONST>
1

>  <SCORE.INTER.POLAR>
0

>  <SCORE.INTER.ROT>
9

>  <SCORE.INTER.SOLV>
12.1042

>  <SCORE.INTER.VDW>
-14.37

>  <SCORE.INTER.norm>
-0.0848418

>  <SCORE.INTRA>
-12.023

>  <SCORE.INTRA.DIHEDRAL>
-28.6998

>  <SCORE.INTRA.DIHEDRAL.0>
31.9578

>  <SCORE.INTRA.POLAR>
0

>  <SCORE.INTRA.POLAR.0>
0

>  <SCORE.INTRA.REPUL>
0

>  <SCORE.INTRA.REPUL.0>
0

>  <SCORE.INTRA.SOLV>
-0.0980189

>  <SCORE.INTRA.SOLV.lig_0>
-48.4032

>  <SCORE.INTRA.VDW>
2.37592

>  <SCORE.INTRA.VDW.0>
-1.65238

>  <SCORE.INTRA.norm>
-0.924847

>  <SCORE.RESTR>
0.0120784

>  <SCORE.RESTR.CAVITY>
0.0120784

>  <SCORE.RESTR.norm>
0.000929108

>  <SCORE.SYSTEM>
0

>  <SCORE.SYSTEM.CONST>
0

>  <SCORE.SYSTEM.DIHEDRAL>
0

>  <SCORE.SYSTEM.SOLV>
0

>  <SCORE.SYSTEM.norm>
0

>  <SCORE.heavy>
13

>  <SCORE.norm>
-1.00876

>  <RMSD>
21.531

$$$$
ligand
 OpenBabel11021811473D
libRbt.so/2013.1/901 2013/11/27
 13 12  0  0  0  0  0  0  0  0999 V2000
   26.7857   13.5974   43.7460 O   0  0  0  0  0  0  0  0  0  0  0  0
   24.0800   14.6696   43.2103 O   0  0  0  0  0  0  0  0  0  0  0  0
   31.3439   13.7660   43.7913 P   0  0  1  0  0  0  0  0  0  0  0  0
   32.3398   14.8548   43.5020 O   0  5  0  0  0  0  0  0  0  0  0  0
   31.5755   12.3457   43.9395 O   0  0  0  0  0  0  0  0  0  0  0  0
   30.2119   14.5200   44.6592 O   0  0  0  0  0  0  0  0  0  0  0  0
   20.8386   16.2070   44.1183 O   0  0  0  0  0  0  0  0  0  0  0  0
   28.8932   13.9605   44.8427 C   0  0  0  0  0  0  0  0  0  0  0  0
   24.5337   13.3701   42.7843 C   0  0  0  0  0  0  0  0  0  0  0  0
   22.2460   16.1615   43.8239 C   0  0  0  0  0  0  0  0  0  0  0  0
   28.1757   13.8165   43.4924 C   0  0  0  0  0  0  0  0  0  0  0  0
   26.0572   13.3940   42.5198 C   0  0  0  0  0  0  0  0  0  0  0  0
   22.6642   14.7176   43.4602 C   0  0  0  0  0  0  0  0  0  0  0  0
  1 12  1  0  0  0  0
  1 11  1  0  0  0  0
  2 13  1  0  0  0  0
  2  9  1  0  0  0  0
  3  4  1  1  0  0  0
  3  5  2  0  0  0  0
  3  6  1  0  0  0  0
  6  8  1  0  0  0  0
  7 10  1  0  0  0  0
  8 11  1  0  0  0  0
  9 12  1  0  0  0  0
 10 13  1  0  0  0  0
M  CHG  1   4  -1
M  END
>  <CHROM.1>
-171.50129503,-176.42125677,162.52873002,-61.91731501,-165.17560074,179.40409970
66.98280569,-178.09891121,-177.45567453,27.30111722,14.22633089,43.70246918
3.01051309,-0.10614054,0.44214476

>  <Name>
ligand

>  <RI>
0

>  <Rbt.Current_Directory>
/home/itssahil/PROJECTS/Mol_Feturizer/New_Systems/rnas/3GS8

>  <Rbt.Executable>
rbdock ($Id: //depot/dev/client3/rdock/2013.1/src/exe/rbdock.cxx#4 $)

>  <Rbt.Library>
libRbt.so (2013.1, Build901 2013/11/27)

>  <Rbt.Parameter_File>
/export/apps/rDock/src/rDock_2013.1_src/data/scripts/dock_solv.prm

>  <Rbt.Receptor>
prm/blind_docking_60.prm

>  <SCORE>
-15.7206

>  <SCORE.INTER>
-0.920593

>  <SCORE.INTER.CONST>
1

>  <SCORE.INTER.POLAR>
0

>  <SCORE.INTER.ROT>
9

>  <SCORE.INTER.SOLV>
12.5311

>  <SCORE.INTER.VDW>
-14.3907

>  <SCORE.INTER.norm>
-0.0708149

>  <SCORE.INTRA>
-14.8

>  <SCORE.INTRA.DIHEDRAL>
-30.2239

>  <SCORE.INTRA.DIHEDRAL.0>
31.9578

>  <SCORE.INTRA.POLAR>
0

>  <SCORE.INTRA.POLAR.0>
0

>  <SCORE.INTRA.REPUL>
0

>  <SCORE.INTRA.REPUL.0>
0

>  <SCORE.INTRA.SOLV>
-0.426989

>  <SCORE.INTRA.SOLV.lig_0>
-48.4032

>  <SCORE.INTRA.VDW>
0.525483

>  <SCORE.INTRA.VDW.0>
-1.65238

>  <SCORE.INTRA.norm>
-1.13846

>  <SCORE.RESTR>
0

>  <SCORE.RESTR.CAVITY>
0

>  <SCORE.RESTR.norm>
0

>  <SCORE.SYSTEM>
0

>  <SCORE.SYSTEM.CONST>
0

>  <SCORE.SYSTEM.DIHEDRAL>
0

>  <SCORE.SYSTEM.SOLV>
0

>  <SCORE.SYSTEM.norm>
0

>  <SCORE.heavy>
13

>  <SCORE.norm>
-1.20927

>  <RMSD>
21.576

$$$$
ligand
 OpenBabel11021811473D
libRbt.so/2013.1/901 2013/11/27
 13 12  0  0  0  0  0  0  0  0999 V2000
   26.9968   12.9368   43.4693 O   0  0  0  0  0  0  0  0  0  0  0  0
   24.0317   15.1107   43.9866 O   0  0  0  0  0  0  0  0  0  0  0  0
   31.3669   12.5096   44.0272 P   0  0  1  0  0  0  0  0  0  0  0  0
   31.8443   13.3691   42.8895 O   0  5  0  0  0  0  0  0  0  0  0  0
   32.0624   11.4351   44.7015 O   0  0  0  0  0  0  0  0  0  0  0  0
   30.3597   13.4819   44.8293 O   0  0  0  0  0  0  0  0  0  0  0  0
   23.1177   17.7868   43.9157 O   0  0  0  0  0  0  0  0  0  0  0  0
   29.0630   13.8382   44.3027 C   0  0  0  0  0  0  0  0  0  0  0  0
   24.8360   14.1042   43.3416 C   0  0  0  0  0  0  0  0  0  0  0  0
   22.1792   16.6978   43.8624 C   0  0  0  0  0  0  0  0  0  0  0  0
   28.1416   12.6102   44.2612 C   0  0  0  0  0  0  0  0  0  0  0  0
   26.0935   13.7986   44.1883 C   0  0  0  0  0  0  0  0  0  0  0  0
   22.8502   15.4509   43.2400 C   0  0  0  0  0  0  0  0  0  0  0  0
  1 12  1  0  0  0  0
  1 11  1  0  0  0  0
  2 13  1  0  0  0  0
  2  9  1  0  0  0  0
  3  4  1  1  0  0  0
  3  5  2  0  0  0  0
  3  6  1  0  0  0  0
  6  8  1  0  0  0  0
  7 10  1  0  0  0  0
  8 11  1  0  0  0  0
  9 12  1  0  0  0  0
 10 13  1  0  0  0  0
M  CHG  1   4  -1
M  END
>  <CHROM.1>
-177.97895059,-170.09302570,72.16172767,67.35157973,-167.24681639,179.39458104
-171.92388595,56.21216610,-75.01672560,27.53951883,13.95656143,43.93483226
2.73176969,-0.03849634,-0.01723923

>  <Name>
ligand

>  <RI>
0

>  <Rbt.Current_Directory>
/home/itssahil/PROJECTS/Mol_Feturizer/New_Systems/rnas/3GS8

>  <Rbt.Executable>
rbdock ($Id: //depot/dev/client3/rdock/2013.1/src/exe/rbdock.cxx#4 $)

>  <Rbt.Library>
libRbt.so (2013.1, Build901 2013/11/27)

>  <Rbt.Parameter_File>
/export/apps/rDock/src/rDock_2013.1_src/data/scripts/dock_solv.prm

>  <Rbt.Receptor>
prm/blind_docking_60.prm

>  <SCORE>
-15.2846

>  <SCORE.INTER>
-2.5414

>  <SCORE.INTER.CONST>
1

>  <SCORE.INTER.POLAR>
0

>  <SCORE.INTER.ROT>
9

>  <SCORE.INTER.SOLV>
14.6707

>  <SCORE.INTER.VDW>
-16.1845

>  <SCORE.INTER.norm>
-0.195492

>  <SCORE.INTRA>
-12.7432

>  <SCORE.INTRA.DIHEDRAL>
-28.4878

>  <SCORE.INTRA.DIHEDRAL.0>
31.9578

>  <SCORE.INTRA.POLAR>
0

>  <SCORE.INTRA.POLAR.0>
0

>  <SCORE.INTRA.REPUL>
0

>  <SCORE.INTRA.REPUL.0>
0

>  <SCORE.INTRA.SOLV>
-0.313811

>  <SCORE.INTRA.SOLV.lig_0>
-48.4032

>  <SCORE.INTRA.VDW>
1.65763

>  <SCORE.INTRA.VDW.0>
-1.65238

>  <SCORE.INTRA.norm>
-0.980244

>  <SCORE.RESTR>
0

>  <SCORE.RESTR.CAVITY>
0

>  <SCORE.RESTR.norm>
0

>  <SCORE.SYSTEM>
0

>  <SCORE.SYSTEM.CONST>
0

>  <SCORE.SYSTEM.DIHEDRAL>
0

>  <SCORE.SYSTEM.SOLV>
0

>  <SCORE.SYSTEM.norm>
0

>  <SCORE.heavy>
13

>  <SCORE.norm>
-1.17574

>  <RMSD>
21.590

$$$$
ligand
 OpenBabel11021811473D
libRbt.so/2013.1/901 2013/11/27
 13 12  0  0  0  0  0  0  0  0999 V2000
   26.4633   13.4569   44.0972 O   0  0  0  0  0  0  0  0  0  0  0  0
   24.1806   15.0921   43.5119 O   0  0  0  0  0  0  0  0  0  0  0  0
   30.9119   12.6143   44.0055 P   0  0  1  0  0  0  0  0  0  0  0  0
   30.6889   12.8733   42.5412 O   0  5  0  0  0  0  0  0  0  0  0  0
   32.0625   12.0238   44.6537 O   0  0  0  0  0  0  0  0  0  0  0  0
   30.0610   13.7828   44.7224 O   0  0  0  0  0  0  0  0  0  0  0  0
   21.6045   17.6950   44.0287 O   0  0  0  0  0  0  0  0  0  0  0  0
   28.6641   13.6176   45.0494 C   0  0  0  0  0  0  0  0  0  0  0  0
   24.1900   13.6882   43.1879 C   0  0  0  0  0  0  0  0  0  0  0  0
   22.9297   17.1376   43.9776 C   0  0  0  0  0  0  0  0  0  0  0  0
   27.8497   13.2927   43.7885 C   0  0  0  0  0  0  0  0  0  0  0  0
   25.6382   13.2037   42.9437 C   0  0  0  0  0  0  0  0  0  0  0  0
   22.8546   15.6191   43.6934 C   0  0  0  0  0  0  0  0  0  0  0  0
  1 12  1  0  0  0  0
  1 11  1  0  0  0  0
  2 13  1  0  0  0  0
  2  9  1  0  0  0  0
  3  4  1  6  0  0  0
  3  5  2  0  0  0  0
  3  6  1  0  0  0  0
  6  8  1  0  0  0  0
  7 10  1  0  0  0  0
  8 11  1  0  0  0  0
  9 12  1  0  0  0  0
 10 13  1  0  0  0  0
M  CHG  1   4  -1
M  END
>  <CHROM.1>
-167.12794302,-177.60786342,88.29614776,-57.80012051,-166.24953940,177.42258984
57.53803853,174.33402250,178.37915430,27.14985383,14.03672608,43.87675652
2.81111276,-0.24972050,0.52913295

>  <Name>
ligand

>  <RI>
0

>  <Rbt.Current_Directory>
/home/itssahil/PROJECTS/Mol_Feturizer/New_Systems/rnas/3GS8

>  <Rbt.Executable>
rbdock ($Id: //depot/dev/client3/rdock/2013.1/src/exe/rbdock.cxx#4 $)

>  <Rbt.Library>
libRbt.so (2013.1, Build901 2013/11/27)

>  <Rbt.Parameter_File>
/export/apps/rDock/src/rDock_2013.1_src/data/scripts/dock_solv.prm

>  <Rbt.Receptor>
prm/blind_docking_60.prm

>  <SCORE>
-15.5612

>  <SCORE.INTER>
-1.52104

>  <SCORE.INTER.CONST>
1

>  <SCORE.INTER.POLAR>
0

>  <SCORE.INTER.ROT>
9

>  <SCORE.INTER.SOLV>
14.9664

>  <SCORE.INTER.VDW>
-15.6028

>  <SCORE.INTER.norm>
-0.117003

>  <SCORE.INTRA>
-14.0401

>  <SCORE.INTRA.DIHEDRAL>
-29.0811

>  <SCORE.INTRA.DIHEDRAL.0>
31.9578

>  <SCORE.INTRA.POLAR>
0

>  <SCORE.INTRA.POLAR.0>
0

>  <SCORE.INTRA.REPUL>
0

>  <SCORE.INTRA.REPUL.0>
0

>  <SCORE.INTRA.SOLV>
-0.178285

>  <SCORE.INTRA.SOLV.lig_0>
-48.4032

>  <SCORE.INTRA.VDW>
0.589567

>  <SCORE.INTRA.VDW.0>
-1.65238

>  <SCORE.INTRA.norm>
-1.08001

>  <SCORE.RESTR>
0

>  <SCORE.RESTR.CAVITY>
0

>  <SCORE.RESTR.norm>
0

>  <SCORE.SYSTEM>
0

>  <SCORE.SYSTEM.CONST>
0

>  <SCORE.SYSTEM.DIHEDRAL>
0

>  <SCORE.SYSTEM.SOLV>
0

>  <SCORE.SYSTEM.norm>
0

>  <SCORE.heavy>
13

>  <SCORE.norm>
-1.19701

>  <RMSD>
21.594

$$$$
ligand
 OpenBabel11021811473D
libRbt.so/2013.1/901 2013/11/27
 13 12  0  0  0  0  0  0  0  0999 V2000
   27.8118   13.3600   43.7187 O   0  0  0  0  0  0  0  0  0  0  0  0
   24.1989   13.0920   42.8845 O   0  0  0  0  0  0  0  0  0  0  0  0
   32.1045   14.4092   43.1962 P   0  0  1  0  0  0  0  0  0  0  0  0
   32.3953   15.8425   42.8466 O   0  5  0  0  0  0  0  0  0  0  0  0
   33.0065   13.4054   43.7173 O   0  0  0  0  0  0  0  0  0  0  0  0
   30.5523   14.4422   43.6353 O   0  0  0  0  0  0  0  0  0  0  0  0
   21.9272   14.5477   44.0111 O   0  0  0  0  0  0  0  0  0  0  0  0
   30.0245   13.5470   44.6381 C   0  0  0  0  0  0  0  0  0  0  0  0
   25.6165   12.9039   42.7085 C   0  0  0  0  0  0  0  0  0  0  0  0
   23.1156   15.1885   43.5145 C   0  0  0  0  0  0  0  0  0  0  0  0
   28.5299   13.8156   44.8681 C   0  0  0  0  0  0  0  0  0  0  0  0
   26.3923   13.5425   43.8840 C   0  0  0  0  0  0  0  0  0  0  0  0
   23.7296   14.3502   42.3689 C   0  0  0  0  0  0  0  0  0  0  0  0
  1 12  1  0  0  0  0
  1 11  1  0  0  0  0
  2 13  1  0  0  0  0
  2  9  1  0  0  0  0
  3  4  1  1  0  0  0
  3  5  2  0  0  0  0
  3  6  1  0  0  0  0
  6  8  1  0  0  0  0
  7 10  1  0  0  0  0
  8 11  1  0  0  0  0
  9 12  1  0  0  0  0
 10 13  1  0  0  0  0
M  CHG  1   4  -1
M  END
>  <CHROM.1>
-173.63554295,-118.97231690,-148.08994565,179.14378594,71.18107157,85.95741224
179.97820809,-66.00830569,178.15425212,28.04185508,14.06895412,43.50655305
-3.12078278,-0.02888628,-0.40648456

>  <Name>
ligand

>  <RI>
0

>  <Rbt.Current_Directory>
/home/itssahil/PROJECTS/Mol_Feturizer/New_Systems/rnas/3GS8

>  <Rbt.Executable>
rbdock ($Id: //depot/dev/client3/rdock/2013.1/src/exe/rbdock.cxx#4 $)

>  <Rbt.Library>
libRbt.so (2013.1, Build901 2013/11/27)

>  <Rbt.Parameter_File>
/export/apps/rDock/src/rDock_2013.1_src/data/scripts/dock_solv.prm

>  <Rbt.Receptor>
prm/blind_docking_60.prm

>  <SCORE>
-10.2907

>  <SCORE.INTER>
-0.181036

>  <SCORE.INTER.CONST>
1

>  <SCORE.INTER.POLAR>
0

>  <SCORE.INTER.ROT>
9

>  <SCORE.INTER.SOLV>
14.337

>  <SCORE.INTER.VDW>
-14.4997

>  <SCORE.INTER.norm>
-0.0139259

>  <SCORE.INTRA>
-10.1097

>  <SCORE.INTRA.DIHEDRAL>
-19.8793

>  <SCORE.INTRA.DIHEDRAL.0>
31.9578

>  <SCORE.INTRA.POLAR>
0

>  <SCORE.INTRA.POLAR.0>
0

>  <SCORE.INTRA.REPUL>
0

>  <SCORE.INTRA.REPUL.0>
0

>  <SCORE.INTRA.SOLV>
-1.53248

>  <SCORE.INTRA.SOLV.lig_0>
-48.4032

>  <SCORE.INTRA.VDW>
0.596207

>  <SCORE.INTRA.VDW.0>
-1.65238

>  <SCORE.INTRA.norm>
-0.777669

>  <SCORE.RESTR>
0

>  <SCORE.RESTR.CAVITY>
0

>  <SCORE.RESTR.norm>
0

>  <SCORE.SYSTEM>
0

>  <SCORE.SYSTEM.CONST>
0

>  <SCORE.SYSTEM.DIHEDRAL>
0

>  <SCORE.SYSTEM.SOLV>
0

>  <SCORE.SYSTEM.norm>
0

>  <SCORE.heavy>
13

>  <SCORE.norm>
-0.791595

>  <RMSD>
21.716

$$$$
ligand
 OpenBabel11021811473D
libRbt.so/2013.1/901 2013/11/27
 13 12  0  0  0  0  0  0  0  0999 V2000
   26.7146   13.4975   44.2198 O   0  0  0  0  0  0  0  0  0  0  0  0
   30.1161   14.7236   43.3554 O   0  0  0  0  0  0  0  0  0  0  0  0
   22.9051   16.0148   43.9375 P   0  0  1  0  0  0  0  0  0  0  0  0
   23.6638   17.2250   44.4074 O   0  5  0  0  0  0  0  0  0  0  0  0
   21.8537   15.9359   42.9470 O   0  0  0  0  0  0  0  0  0  0  0  0
   23.9699   14.8162   44.1185 O   0  0  0  0  0  0  0  0  0  0  0  0
   33.7964   14.8594   43.4146 O   0  0  0  0  0  0  0  0  0  0  0  0
   24.8195   14.3810   43.0348 C   0  0  0  0  0  0  0  0  0  0  0  0
   29.0825   14.1610   44.1866 C   0  0  0  0  0  0  0  0  0  0  0  0
   32.4757   15.2337   42.9843 C   0  0  0  0  0  0  0  0  0  0  0  0
   25.5881   13.1110   43.4286 C   0  0  0  0  0  0  0  0  0  0  0  0
   27.7512   14.0770   43.4042 C   0  0  0  0  0  0  0  0  0  0  0  0
   31.4198   14.6641   43.9603 C   0  0  0  0  0  0  0  0  0  0  0  0
  1 12  1  0  0  0  0
  1 11  1  0  0  0  0
  2 13  1  0  0  0  0
  2  9  1  0  0  0  0
  3  4  1  6  0  0  0
  3  5  2  0  0  0  0
  3  6  1  0  0  0  0
  6  8  1  0  0  0  0
  7 10  1  0  0  0  0
  8 11  1  0  0  0  0
  9 12  1  0  0  0  0
 10 13  1  0  0  0  0
M  CHG  1   4  -1
M  END
>  <CHROM.1>
-165.67841117,177.73296202,-94.08163175,-172.25785683,-80.74608962,-172.13884261
179.16514503,-164.68910198,-74.88129346,26.86338995,14.93854403,43.67493291
0.11472172,-0.02109592,-3.08946830

>  <Name>
ligand

>  <RI>
0

>  <Rbt.Current_Directory>
/home/itssahil/PROJECTS/Mol_Feturizer/New_Systems/rnas/3GS8

>  <Rbt.Executable>
rbdock ($Id: //depot/dev/client3/rdock/2013.1/src/exe/rbdock.cxx#4 $)

>  <Rbt.Library>
libRbt.so (2013.1, Build901 2013/11/27)

>  <Rbt.Parameter_File>
/export/apps/rDock/src/rDock_2013.1_src/data/scripts/dock_solv.prm

>  <Rbt.Receptor>
prm/blind_docking_60.prm

>  <SCORE>
-13.8166

>  <SCORE.INTER>
-1.08507

>  <SCORE.INTER.CONST>
1

>  <SCORE.INTER.POLAR>
0

>  <SCORE.INTER.ROT>
9

>  <SCORE.INTER.SOLV>
19.9373

>  <SCORE.INTER.VDW>
-16.9692

>  <SCORE.INTER.norm>
-0.083467

>  <SCORE.INTRA>
-12.7315

>  <SCORE.INTRA.DIHEDRAL>
-26.5329

>  <SCORE.INTRA.DIHEDRAL.0>
31.9578

>  <SCORE.INTRA.POLAR>
0

>  <SCORE.INTRA.POLAR.0>
0

>  <SCORE.INTRA.REPUL>
0

>  <SCORE.INTRA.REPUL.0>
0

>  <SCORE.INTRA.SOLV>
-1.75433

>  <SCORE.INTRA.SOLV.lig_0>
-48.4032

>  <SCORE.INTRA.VDW>
1.41213

>  <SCORE.INTRA.VDW.0>
-1.65238

>  <SCORE.INTRA.norm>
-0.979346

>  <SCORE.RESTR>
0

>  <SCORE.RESTR.CAVITY>
0

>  <SCORE.RESTR.norm>
0

>  <SCORE.SYSTEM>
0

>  <SCORE.SYSTEM.CONST>
0

>  <SCORE.SYSTEM.DIHEDRAL>
0

>  <SCORE.SYSTEM.SOLV>
0

>  <SCORE.SYSTEM.norm>
0

>  <SCORE.heavy>
13

>  <SCORE.norm>
-1.06281

>  <RMSD>
21.751

$$$$
ligand
 OpenBabel11021811473D
libRbt.so/2013.1/901 2013/11/27
 13 12  0  0  0  0  0  0  0  0999 V2000
   26.7936   14.0026   43.9466 O   0  0  0  0  0  0  0  0  0  0  0  0
   29.6385   13.7679   43.3175 O   0  0  0  0  0  0  0  0  0  0  0  0
   22.9165   16.2185   43.8521 P   0  0  1  0  0  0  0  0  0  0  0  0
   21.7205   15.3479   43.5825 O   0  5  0  0  0  0  0  0  0  0  0  0
   22.9585   17.5387   44.4420 O   0  0  0  0  0  0  0  0  0  0  0  0
   24.1000   15.1529   44.1110 O   0  0  0  0  0  0  0  0  0  0  0  0
   32.6196   15.9567   43.3355 O   0  0  0  0  0  0  0  0  0  0  0  0
   24.5717   14.2697   43.0703 C   0  0  0  0  0  0  0  0  0  0  0  0
   29.1350   13.7865   44.6673 C   0  0  0  0  0  0  0  0  0  0  0  0
   31.2438   15.5942   43.5483 C   0  0  0  0  0  0  0  0  0  0  0  0
   25.6022   13.2781   43.6303 C   0  0  0  0  0  0  0  0  0  0  0  0
   27.7066   13.1956   44.7152 C   0  0  0  0  0  0  0  0  0  0  0  0
   31.0370   14.0941   43.2337 C   0  0  0  0  0  0  0  0  0  0  0  0
  1 12  1  0  0  0  0
  1 11  1  0  0  0  0
  2 13  1  0  0  0  0
  2  9  1  0  0  0  0
  3  4  1  1  0  0  0
  3  5  2  0  0  0  0
  3  6  1  0  0  0  0
  6  8  1  0  0  0  0
  7 10  1  0  0  0  0
  8 11  1  0  0  0  0
  9 12  1  0  0  0  0
 10 13  1  0  0  0  0
M  CHG  1   4  -1
M  END
>  <CHROM.1>
161.79770990,-70.52446321,65.34751918,-174.59829355,-69.81302042,-170.25130217
-63.28979581,-174.24268128,168.68510111,26.56972061,14.92852077,43.80705076
0.14320769,-0.03812015,3.11978303

>  <Name>
ligand

>  <RI>
0

>  <Rbt.Current_Directory>
/home/itssahil/PROJECTS/Mol_Feturizer/New_Systems/rnas/3GS8

>  <Rbt.Executable>
rbdock ($Id: //depot/dev/client3/rdock/2013.1/src/exe/rbdock.cxx#4 $)

>  <Rbt.Library>
libRbt.so (2013.1, Build901 2013/11/27)

>  <Rbt.Parameter_File>
/export/apps/rDock/src/rDock_2013.1_src/data/scripts/dock_solv.prm

>  <Rbt.Receptor>
prm/blind_docking_60.prm

>  <SCORE>
-16.7522

>  <SCORE.INTER>
-3.42879

>  <SCORE.INTER.CONST>
1

>  <SCORE.INTER.POLAR>
0

>  <SCORE.INTER.ROT>
9

>  <SCORE.INTER.SOLV>
18.9348

>  <SCORE.INTER.VDW>
-18.1975

>  <SCORE.INTER.norm>
-0.263753

>  <SCORE.INTRA>
-13.3234

>  <SCORE.INTRA.DIHEDRAL>
-27.5869

>  <SCORE.INTRA.DIHEDRAL.0>
31.9578

>  <SCORE.INTRA.POLAR>
0

>  <SCORE.INTRA.POLAR.0>
0

>  <SCORE.INTRA.REPUL>
0

>  <SCORE.INTRA.REPUL.0>
0

>  <SCORE.INTRA.SOLV>
-1.53041

>  <SCORE.INTRA.SOLV.lig_0>
-48.4032

>  <SCORE.INTRA.VDW>
1.23531

>  <SCORE.INTRA.VDW.0>
-1.65238

>  <SCORE.INTRA.norm>
-1.02487

>  <SCORE.RESTR>
0

>  <SCORE.RESTR.CAVITY>
0

>  <SCORE.RESTR.norm>
0

>  <SCORE.SYSTEM>
0

>  <SCORE.SYSTEM.CONST>
0

>  <SCORE.SYSTEM.DIHEDRAL>
0

>  <SCORE.SYSTEM.SOLV>
0

>  <SCORE.SYSTEM.norm>
0

>  <SCORE.heavy>
13

>  <SCORE.norm>
-1.28863

>  <RMSD>
21.770

$$$$
ligand
 OpenBabel11021811473D
libRbt.so/2013.1/901 2013/11/27
 13 12  0  0  0  0  0  0  0  0999 V2000
   26.3566   14.3842   43.0405 O   0  0  0  0  0  0  0  0  0  0  0  0
   30.0504   14.0398   43.2438 O   0  0  0  0  0  0  0  0  0  0  0  0
   22.7335   16.5709   43.9272 P   0  0  1  0  0  0  0  0  0  0  0  0
   23.3819   17.8885   44.2503 O   0  5  0  0  0  0  0  0  0  0  0  0
   21.5644   16.3143   43.1146 O   0  0  0  0  0  0  0  0  0  0  0  0
   23.9674   15.5319   43.9620 O   0  0  0  0  0  0  0  0  0  0  0  0
   32.4137   13.5647   44.7987 O   0  0  0  0  0  0  0  0  0  0  0  0
   23.9589   14.3120   43.1891 C   0  0  0  0  0  0  0  0  0  0  0  0
   28.7959   14.6822   42.9445 C   0  0  0  0  0  0  0  0  0  0  0  0
   32.4764   14.1699   43.4951 C   0  0  0  0  0  0  0  0  0  0  0  0
   25.2655   13.5321   43.3978 C   0  0  0  0  0  0  0  0  0  0  0  0
   27.6202   13.7136   43.2113 C   0  0  0  0  0  0  0  0  0  0  0  0
   31.1686   14.9439   43.2074 C   0  0  0  0  0  0  0  0  0  0  0  0
  1 12  1  0  0  0  0
  1 11  1  0  0  0  0
  2 13  1  0  0  0  0
  2  9  1  0  0  0  0
  3  4  1  6  0  0  0
  3  5  2  0  0  0  0
  3  6  1  0  0  0  0
  6  8  1  0  0  0  0
  7 10  1  0  0  0  0
  8 11  1  0  0  0  0
  9 12  1  0  0  0  0
 10 13  1  0  0  0  0
M  CHG  1   4  -1
M  END
>  <CHROM.1>
-174.91551038,-178.25360928,-152.99285476,179.09060606,-57.03061749,-171.34108979
174.42087238,-60.39090177,-179.93900956,26.53484831,15.05236021,43.56622032
2.89678599,-0.07084430,0.28487582

>  <Name>
ligand

>  <RI>
0

>  <Rbt.Current_Directory>
/home/itssahil/PROJECTS/Mol_Feturizer/New_Systems/rnas/3GS8

>  <Rbt.Executable>
rbdock ($Id: //depot/dev/client3/rdock/2013.1/src/exe/rbdock.cxx#4 $)

>  <Rbt.Library>
libRbt.so (2013.1, Build901 2013/11/27)

>  <Rbt.Parameter_File>
/export/apps/rDock/src/rDock_2013.1_src/data/scripts/dock_solv.prm

>  <Rbt.Receptor>
prm/blind_docking_60.prm

>  <SCORE>
-15.6837

>  <SCORE.INTER>
-0.14053

>  <SCORE.INTER.CONST>
1

>  <SCORE.INTER.POLAR>
0

>  <SCORE.INTER.ROT>
9

>  <SCORE.INTER.SOLV>
22.1133

>  <SCORE.INTER.VDW>
-17.0648

>  <SCORE.INTER.norm>
-0.01081

>  <SCORE.INTRA>
-15.5432

>  <SCORE.INTRA.DIHEDRAL>
-30.1598

>  <SCORE.INTRA.DIHEDRAL.0>
31.9578

>  <SCORE.INTRA.POLAR>
0

>  <SCORE.INTRA.POLAR.0>
0

>  <SCORE.INTRA.REPUL>
0

>  <SCORE.INTRA.REPUL.0>
0

>  <SCORE.INTRA.SOLV>
-1.48343

>  <SCORE.INTRA.SOLV.lig_0>
-48.4032

>  <SCORE.INTRA.VDW>
0.278467

>  <SCORE.INTRA.VDW.0>
-1.65238

>  <SCORE.INTRA.norm>
-1.19563

>  <SCORE.RESTR>
0

>  <SCORE.RESTR.CAVITY>
0

>  <SCORE.RESTR.norm>
0

>  <SCORE.SYSTEM>
0

>  <SCORE.SYSTEM.CONST>
0

>  <SCORE.SYSTEM.DIHEDRAL>
0

>  <SCORE.SYSTEM.SOLV>
0

>  <SCORE.SYSTEM.norm>
0

>  <SCORE.heavy>
13

>  <SCORE.norm>
-1.20644

>  <RMSD>
21.782

$$$$
ligand
 OpenBabel11021811473D
libRbt.so/2013.1/901 2013/11/27
 13 12  0  0  0  0  0  0  0  0999 V2000
   26.4864   13.8373   44.2019 O   0  0  0  0  0  0  0  0  0  0  0  0
   29.3501   14.1356   44.0607 O   0  0  0  0  0  0  0  0  0  0  0  0
   22.0839   16.3356   43.9098 P   0  0  1  0  0  0  0  0  0  0  0  0
   22.6781   17.6081   43.3725 O   0  5  0  0  0  0  0  0  0  0  0  0
   20.6902   16.0023   44.1078 O   0  0  0  0  0  0  0  0  0  0  0  0
   23.1542   15.2115   43.4691 O   0  0  0  0  0  0  0  0  0  0  0  0
   31.1118   16.0115   42.8650 O   0  0  0  0  0  0  0  0  0  0  0  0
   24.3870   15.0072   44.1931 C   0  0  0  0  0  0  0  0  0  0  0  0
   28.7371   12.8483   44.2676 C   0  0  0  0  0  0  0  0  0  0  0  0
   31.3078   15.5869   44.2254 C   0  0  0  0  0  0  0  0  0  0  0  0
   25.2274   13.9073   43.5278 C   0  0  0  0  0  0  0  0  0  0  0  0
   27.3279   12.8167   43.6312 C   0  0  0  0  0  0  0  0  0  0  0  0
   30.7424   14.1607   44.4214 C   0  0  0  0  0  0  0  0  0  0  0  0
  1 12  1  0  0  0  0
  1 11  1  0  0  0  0
  2 13  1  0  0  0  0
  2  9  1  0  0  0  0
  3  4  1  6  0  0  0
  3  5  2  0  0  0  0
  3  6  1  0  0  0  0
  6  8  1  0  0  0  0
  7 10  1  0  0  0  0
  8 11  1  0  0  0  0
  9 12  1  0  0  0  0
 10 13  1  0  0  0  0
M  CHG  1   4  -1
M  END
>  <CHROM.1>
174.07955667,-177.67937098,78.85646225,-178.26236177,174.39796604,-169.89830381
-59.07678009,-57.15545444,179.72602098,26.01311363,15.03171547,43.85875775
0.19962074,-0.01958064,2.99252126

>  <Name>
ligand

>  <RI>
0

>  <Rbt.Current_Directory>
/home/itssahil/PROJECTS/Mol_Feturizer/New_Systems/rnas/3GS8

>  <Rbt.Executable>
rbdock ($Id: //depot/dev/client3/rdock/2013.1/src/exe/rbdock.cxx#4 $)

>  <Rbt.Library>
libRbt.so (2013.1, Build901 2013/11/27)

>  <Rbt.Parameter_File>
/export/apps/rDock/src/rDock_2013.1_src/data/scripts/dock_solv.prm

>  <Rbt.Receptor>
prm/blind_docking_80.prm

>  <SCORE>
-16.7456

>  <SCORE.INTER>
-1.17112

>  <SCORE.INTER.CONST>
1

>  <SCORE.INTER.POLAR>
0

>  <SCORE.INTER.ROT>
9

>  <SCORE.INTER.SOLV>
23.6135

>  <SCORE.INTER.VDW>
-18.2519

>  <SCORE.INTER.norm>
-0.0900858

>  <SCORE.INTRA>
-15.5745

>  <SCORE.INTRA.DIHEDRAL>
-30.1566

>  <SCORE.INTRA.DIHEDRAL.0>
31.9578

>  <SCORE.INTRA.POLAR>
0

>  <SCORE.INTRA.POLAR.0>
0

>  <SCORE.INTRA.REPUL>
0

>  <SCORE.INTRA.REPUL.0>
0

>  <SCORE.INTRA.SOLV>
-1.45452

>  <SCORE.INTRA.SOLV.lig_0>
-48.4032

>  <SCORE.INTRA.VDW>
0.231083

>  <SCORE.INTRA.VDW.0>
-1.65238

>  <SCORE.INTRA.norm>
-1.19804

>  <SCORE.RESTR>
0

>  <SCORE.RESTR.CAVITY>
0

>  <SCORE.RESTR.norm>
0

>  <SCORE.SYSTEM>
0

>  <SCORE.SYSTEM.CONST>
0

>  <SCORE.SYSTEM.DIHEDRAL>
0

>  <SCORE.SYSTEM.SOLV>
0

>  <SCORE.SYSTEM.norm>
0

>  <SCORE.heavy>
13

>  <SCORE.norm>
-1.28812

>  <RMSD>
21.816

$$$$
ligand
 OpenBabel11021811473D
libRbt.so/2013.1/901 2013/11/27
 13 12  0  0  0  0  0  0  0  0999 V2000
   31.6357   19.5587   62.5980 O   0  0  0  0  0  0  0  0  0  0  0  0
   30.9034   16.7625   64.9337 O   0  0  0  0  0  0  0  0  0  0  0  0
   32.8630   23.5220   60.9786 P   0  0  1  0  0  0  0  0  0  0  0  0
   31.6719   24.1015   61.6902 O   0  5  0  0  0  0  0  0  0  0  0  0
   34.1146   24.1642   60.6412 O   0  0  0  0  0  0  0  0  0  0  0  0
   32.8103   21.9599   61.3791 O   0  0  0  0  0  0  0  0  0  0  0  0
   31.7231   14.3663   63.4937 O   0  0  0  0  0  0  0  0  0  0  0  0
   31.9179   21.0340   60.7219 C   0  0  0  0  0  0  0  0  0  0  0  0
   30.9359   18.1266   64.4708 C   0  0  0  0  0  0  0  0  0  0  0  0
   30.7189   15.2738   63.0061 C   0  0  0  0  0  0  0  0  0  0  0  0
   32.1285   19.6099   61.2567 C   0  0  0  0  0  0  0  0  0  0  0  0
   31.6868   18.2176   63.1219 C   0  0  0  0  0  0  0  0  0  0  0  0
   29.9849   15.9388   64.1940 C   0  0  0  0  0  0  0  0  0  0  0  0
  1 12  1  0  0  0  0
  1 11  1  0  0  0  0
  2 13  1  0  0  0  0
  2  9  1  0  0  0  0
  3  4  1  1  0  0  0
  3  5  2  0  0  0  0
  3  6  1  0  0  0  0
  6  8  1  0  0  0  0
  7 10  1  0  0  0  0
  8 11  1  0  0  0  0
  9 12  1  0  0  0  0
 10 13  1  0  0  0  0
M  CHG  1   4  -1
M  END
>  <CHROM.1>
-170.35321509,91.14556753,79.66280878,177.31625470,70.23209889,-73.82027901
175.52549367,64.95091955,174.61553844,31.88428629,19.80197342,62.37448644
2.01640305,-1.00276826,-3.11988704

>  <Name>
ligand

>  <RI>
0

>  <Rbt.Current_Directory>
/home/itssahil/PROJECTS/Mol_Feturizer/New_Systems/rnas/3GS8

>  <Rbt.Executable>
rbdock ($Id: //depot/dev/client3/rdock/2013.1/src/exe/rbdock.cxx#4 $)

>  <Rbt.Library>
libRbt.so (2013.1, Build901 2013/11/27)

>  <Rbt.Parameter_File>
/export/apps/rDock/src/rDock_2013.1_src/data/scripts/dock_solv.prm

>  <Rbt.Receptor>
prm/blind_docking_100.prm

>  <SCORE>
-11.8975

>  <SCORE.INTER>
-0.398717

>  <SCORE.INTER.CONST>
1

>  <SCORE.INTER.POLAR>
0

>  <SCORE.INTER.ROT>
9

>  <SCORE.INTER.SOLV>
13.7073

>  <SCORE.INTER.VDW>
-14.4349

>  <SCORE.INTER.norm>
-0.0306706

>  <SCORE.INTRA>
-11.4988

>  <SCORE.INTRA.DIHEDRAL>
-25.0932

>  <SCORE.INTRA.DIHEDRAL.0>
31.9578

>  <SCORE.INTRA.POLAR>
0

>  <SCORE.INTRA.POLAR.0>
0

>  <SCORE.INTRA.REPUL>
0

>  <SCORE.INTRA.REPUL.0>
0

>  <SCORE.INTRA.SOLV>
-1.36208

>  <SCORE.INTRA.SOLV.lig_0>
-48.4032

>  <SCORE.INTRA.VDW>
1.72889

>  <SCORE.INTRA.VDW.0>
-1.65238

>  <SCORE.INTRA.norm>
-0.88452

>  <SCORE.RESTR>
0

>  <SCORE.RESTR.CAVITY>
0

>  <SCORE.RESTR.norm>
0

>  <SCORE.SYSTEM>
0

>  <SCORE.SYSTEM.CONST>
0

>  <SCORE.SYSTEM.DIHEDRAL>
0

>  <SCORE.SYSTEM.SOLV>
0

>  <SCORE.SYSTEM.norm>
0

>  <SCORE.heavy>
13

>  <SCORE.norm>
-0.915191

>  <RMSD>
21.817

$$$$
ligand
 OpenBabel11021811473D
libRbt.so/2013.1/901 2013/11/27
 13 12  0  0  0  0  0  0  0  0999 V2000
   25.8173   13.9374   44.4940 O   0  0  0  0  0  0  0  0  0  0  0  0
   22.3545   14.7130   43.4006 O   0  0  0  0  0  0  0  0  0  0  0  0
   29.6545   11.8826   43.2160 P   0  0  1  0  0  0  0  0  0  0  0  0
   31.0753   12.0899   42.7693 O   0  5  0  0  0  0  0  0  0  0  0  0
   28.9249   10.6418   43.3609 O   0  0  0  0  0  0  0  0  0  0  0  0
   29.3953   13.1224   44.2154 O   0  0  0  0  0  0  0  0  0  0  0  0
   23.2613   17.4404   44.3115 O   0  0  0  0  0  0  0  0  0  0  0  0
   28.1162   13.3344   44.8514 C   0  0  0  0  0  0  0  0  0  0  0  0
   23.4554   14.6010   44.3234 C   0  0  0  0  0  0  0  0  0  0  0  0
   22.1158   17.1420   43.4940 C   0  0  0  0  0  0  0  0  0  0  0  0
   27.0480   13.6939   43.8081 C   0  0  0  0  0  0  0  0  0  0  0  0
   24.7526   14.2287   43.5682 C   0  0  0  0  0  0  0  0  0  0  0  0
   22.4064   15.9102   42.6050 C   0  0  0  0  0  0  0  0  0  0  0  0
  1 12  1  0  0  0  0
  1 11  1  0  0  0  0
  2 13  1  0  0  0  0
  2  9  1  0  0  0  0
  3  4  1  1  0  0  0
  3  5  2  0  0  0  0
  3  6  1  0  0  0  0
  6  8  1  0  0  0  0
  7 10  1  0  0  0  0
  8 11  1  0  0  0  0
  9 12  1  0  0  0  0
 10 13  1  0  0  0  0
M  CHG  1   4  -1
M  END
>  <CHROM.1>
-175.46227212,-70.07928741,178.11209963,-66.69644404,-178.03485679,-74.15387474
-172.23741165,75.01306319,-177.66163539,26.36352748,13.85984176,43.68552821
-2.63173862,0.14215191,-2.84123012

>  <Name>
ligand

>  <RI>
0

>  <Rbt.Current_Directory>
/home/itssahil/PROJECTS/Mol_Feturizer/New_Systems/rnas/3GS8

>  <Rbt.Executable>
rbdock ($Id: //depot/dev/client3/rdock/2013.1/src/exe/rbdock.cxx#4 $)

>  <Rbt.Library>
libRbt.so (2013.1, Build901 2013/11/27)

>  <Rbt.Parameter_File>
/export/apps/rDock/src/rDock_2013.1_src/data/scripts/dock_solv.prm

>  <Rbt.Receptor>
prm/blind_docking_60.prm

>  <SCORE>
-13.5289

>  <SCORE.INTER>
-1.76035

>  <SCORE.INTER.CONST>
1

>  <SCORE.INTER.POLAR>
0

>  <SCORE.INTER.ROT>
9

>  <SCORE.INTER.SOLV>
12.6321

>  <SCORE.INTER.VDW>
-14.9843

>  <SCORE.INTER.norm>
-0.135411

>  <SCORE.INTRA>
-11.7685

>  <SCORE.INTRA.DIHEDRAL>
-28.7012

>  <SCORE.INTRA.DIHEDRAL.0>
31.9578

>  <SCORE.INTRA.POLAR>
0

>  <SCORE.INTRA.POLAR.0>
0

>  <SCORE.INTRA.REPUL>
0

>  <SCORE.INTRA.REPUL.0>
0

>  <SCORE.INTRA.SOLV>
0.0401337

>  <SCORE.INTRA.SOLV.lig_0>
-48.4032

>  <SCORE.INTRA.VDW>
2.56202

>  <SCORE.INTRA.VDW.0>
-1.65238

>  <SCORE.INTRA.norm>
-0.90527

>  <SCORE.RESTR>
0

>  <SCORE.RESTR.CAVITY>
0

>  <SCORE.RESTR.norm>
0

>  <SCORE.SYSTEM>
0

>  <SCORE.SYSTEM.CONST>
0

>  <SCORE.SYSTEM.DIHEDRAL>
0

>  <SCORE.SYSTEM.SOLV>
0

>  <SCORE.SYSTEM.norm>
0

>  <SCORE.heavy>
13

>  <SCORE.norm>
-1.04068

>  <RMSD>
21.872

$$$$
ligand
 OpenBabel11021811473D
libRbt.so/2013.1/901 2013/11/27
 13 12  0  0  0  0  0  0  0  0999 V2000
   27.5479   13.5442   43.1040 O   0  0  0  0  0  0  0  0  0  0  0  0
   30.7420   14.0059   44.5586 O   0  0  0  0  0  0  0  0  0  0  0  0
   22.9036   15.4372   43.8437 P   0  0  1  0  0  0  0  0  0  0  0  0
   23.2675   16.8833   44.0371 O   0  5  0  0  0  0  0  0  0  0  0  0
   21.9760   14.8577   42.8969 O   0  0  0  0  0  0  0  0  0  0  0  0
   24.2465   14.6555   44.2784 O   0  0  0  0  0  0  0  0  0  0  0  0
   32.9480   15.8942   42.2671 O   0  0  0  0  0  0  0  0  0  0  0  0
   25.3067   14.3799   43.3373 C   0  0  0  0  0  0  0  0  0  0  0  0
   29.3227   13.8808   44.7729 C   0  0  0  0  0  0  0  0  0  0  0  0
   32.6060   14.9320   43.2805 C   0  0  0  0  0  0  0  0  0  0  0  0
   26.4588   13.6336   44.0261 C   0  0  0  0  0  0  0  0  0  0  0  0
   28.7019   12.9371   43.7166 C   0  0  0  0  0  0  0  0  0  0  0  0
   31.0713   14.8804   43.4649 C   0  0  0  0  0  0  0  0  0  0  0  0
  1 12  1  0  0  0  0
  1 11  1  0  0  0  0
  2 13  1  0  0  0  0
  2  9  1  0  0  0  0
  3  4  1  6  0  0  0
  3  5  2  0  0  0  0
  3  6  1  0  0  0  0
  6  8  1  0  0  0  0
  7 10  1  0  0  0  0
  8 11  1  0  0  0  0
  9 12  1  0  0  0  0
 10 13  1  0  0  0  0
M  CHG  1   4  -1
M  END
>  <CHROM.1>
-69.76722755,-178.61269001,-87.80980954,179.71169179,-172.40306611,77.13392074
-130.21053455,-174.94015963,175.91509787,27.06450324,14.69621982,43.66738317
0.06026345,-0.05189158,2.85154032

>  <Name>
ligand

>  <RI>
0

>  <Rbt.Current_Directory>
/home/itssahil/PROJECTS/Mol_Feturizer/New_Systems/rnas/3GS8

>  <Rbt.Executable>
rbdock ($Id: //depot/dev/client3/rdock/2013.1/src/exe/rbdock.cxx#4 $)

>  <Rbt.Library>
libRbt.so (2013.1, Build901 2013/11/27)

>  <Rbt.Parameter_File>
/export/apps/rDock/src/rDock_2013.1_src/data/scripts/dock_solv.prm

>  <Rbt.Receptor>
prm/blind_docking_60.prm

>  <SCORE>
-13.8741

>  <SCORE.INTER>
-3.10735

>  <SCORE.INTER.CONST>
1

>  <SCORE.INTER.POLAR>
0

>  <SCORE.INTER.ROT>
9

>  <SCORE.INTER.SOLV>
15.8929

>  <SCORE.INTER.VDW>
-16.9692

>  <SCORE.INTER.norm>
-0.239027

>  <SCORE.INTRA>
-10.7667

>  <SCORE.INTRA.DIHEDRAL>
-24.2353

>  <SCORE.INTRA.DIHEDRAL.0>
31.9578

>  <SCORE.INTRA.POLAR>
0

>  <SCORE.INTRA.POLAR.0>
0

>  <SCORE.INTRA.REPUL>
0

>  <SCORE.INTRA.REPUL.0>
0

>  <SCORE.INTRA.SOLV>
-1.57694

>  <SCORE.INTRA.SOLV.lig_0>
-48.4032

>  <SCORE.INTRA.VDW>
2.13942

>  <SCORE.INTRA.VDW.0>
-1.65238

>  <SCORE.INTRA.norm>
-0.828208

>  <SCORE.RESTR>
0

>  <SCORE.RESTR.CAVITY>
0

>  <SCORE.RESTR.norm>
0

>  <SCORE.SYSTEM>
0

>  <SCORE.SYSTEM.CONST>
0

>  <SCORE.SYSTEM.DIHEDRAL>
0

>  <SCORE.SYSTEM.SOLV>
0

>  <SCORE.SYSTEM.norm>
0

>  <SCORE.heavy>
13

>  <SCORE.norm>
-1.06724

>  <RMSD>
21.873

$$$$
ligand
 OpenBabel11021811473D
libRbt.so/2013.1/901 2013/11/27
 13 12  0  0  0  0  0  0  0  0999 V2000
   26.2025   14.5086   42.9450 O   0  0  0  0  0  0  0  0  0  0  0  0
   28.9758   14.0409   43.9188 O   0  0  0  0  0  0  0  0  0  0  0  0
   22.0733   16.2266   43.4421 P   0  0  1  0  0  0  0  0  0  0  0  0
   22.6258   17.6184   43.3056 O   0  5  0  0  0  0  0  0  0  0  0  0
   20.7486   15.7444   43.1171 O   0  0  0  0  0  0  0  0  0  0  0  0
   23.3723   15.2907   43.2419 O   0  0  0  0  0  0  0  0  0  0  0  0
   31.6387   14.8041   44.6093 O   0  0  0  0  0  0  0  0  0  0  0  0
   24.3015   15.0360   44.3177 C   0  0  0  0  0  0  0  0  0  0  0  0
   28.0538   13.0017   43.5368 C   0  0  0  0  0  0  0  0  0  0  0  0
   30.9880   15.3415   43.4443 C   0  0  0  0  0  0  0  0  0  0  0  0
   25.3105   13.9510   43.9134 C   0  0  0  0  0  0  0  0  0  0  0  0
   27.1026   13.5095   42.4282 C   0  0  0  0  0  0  0  0  0  0  0  0
   29.9519   14.3290   42.9024 C   0  0  0  0  0  0  0  0  0  0  0  0
  1 12  1  0  0  0  0
  1 11  1  0  0  0  0
  2 13  1  0  0  0  0
  2  9  1  0  0  0  0
  3  4  1  6  0  0  0
  3  5  2  0  0  0  0
  3  6  1  0  0  0  0
  6  8  1  0  0  0  0
  7 10  1  0  0  0  0
  8 11  1  0  0  0  0
  9 12  1  0  0  0  0
 10 13  1  0  0  0  0
M  CHG  1   4  -1
M  END
>  <CHROM.1>
-65.71639494,-174.05174780,81.16559469,171.25212811,71.53814979,-70.31784069
-68.69495348,58.96906902,-174.70721378,25.88430956,15.01106892,43.47156277
0.20509321,0.07179518,-2.98844035

>  <Name>
ligand

>  <RI>
0

>  <Rbt.Current_Directory>
/home/itssahil/PROJECTS/Mol_Feturizer/New_Systems/rnas/3GS8

>  <Rbt.Executable>
rbdock ($Id: //depot/dev/client3/rdock/2013.1/src/exe/rbdock.cxx#4 $)

>  <Rbt.Library>
libRbt.so (2013.1, Build901 2013/11/27)

>  <Rbt.Parameter_File>
/export/apps/rDock/src/rDock_2013.1_src/data/scripts/dock_solv.prm

>  <Rbt.Receptor>
prm/blind_docking_60.prm

>  <SCORE>
-12.816

>  <SCORE.INTER>
-0.195777

>  <SCORE.INTER.CONST>
1

>  <SCORE.INTER.POLAR>
0

>  <SCORE.INTER.ROT>
9

>  <SCORE.INTER.SOLV>
21.1766

>  <SCORE.INTER.VDW>
-16.7894

>  <SCORE.INTER.norm>
-0.0150598

>  <SCORE.INTRA>
-12.6202

>  <SCORE.INTRA.DIHEDRAL>
-28.8265

>  <SCORE.INTRA.DIHEDRAL.0>
31.9578

>  <SCORE.INTRA.POLAR>
0

>  <SCORE.INTRA.POLAR.0>
0

>  <SCORE.INTRA.REPUL>
0

>  <SCORE.INTRA.REPUL.0>
0

>  <SCORE.INTRA.SOLV>
-1.36848

>  <SCORE.INTRA.SOLV.lig_0>
-48.4032

>  <SCORE.INTRA.VDW>
2.47727

>  <SCORE.INTRA.VDW.0>
-1.65238

>  <SCORE.INTRA.norm>
-0.970785

>  <SCORE.RESTR>
0

>  <SCORE.RESTR.CAVITY>
0

>  <SCORE.RESTR.norm>
0

>  <SCORE.SYSTEM>
0

>  <SCORE.SYSTEM.CONST>
0

>  <SCORE.SYSTEM.DIHEDRAL>
0

>  <SCORE.SYSTEM.SOLV>
0

>  <SCORE.SYSTEM.norm>
0

>  <SCORE.heavy>
13

>  <SCORE.norm>
-0.985845

>  <RMSD>
21.883

$$$$
ligand
 OpenBabel11021811473D
libRbt.so/2013.1/901 2013/11/27
 13 12  0  0  0  0  0  0  0  0999 V2000
   27.3785   13.3921   43.3061 O   0  0  0  0  0  0  0  0  0  0  0  0
   30.1202   13.3244   43.9698 O   0  0  0  0  0  0  0  0  0  0  0  0
   22.8466   15.6403   43.6819 P   0  0  1  0  0  0  0  0  0  0  0  0
   23.5179   16.4206   44.7781 O   0  5  0  0  0  0  0  0  0  0  0  0
   22.0053   16.1276   42.6108 O   0  0  0  0  0  0  0  0  0  0  0  0
   23.8387   14.3879   43.4572 O   0  0  0  0  0  0  0  0  0  0  0  0
   32.7054   15.8956   43.3550 O   0  0  0  0  0  0  0  0  0  0  0  0
   25.2733   14.5256   43.5500 C   0  0  0  0  0  0  0  0  0  0  0  0
   29.1827   13.9064   44.8963 C   0  0  0  0  0  0  0  0  0  0  0  0
   31.3769   15.3493   43.4345 C   0  0  0  0  0  0  0  0  0  0  0  0
   25.9677   13.2125   43.1594 C   0  0  0  0  0  0  0  0  0  0  0  0
   27.7756   13.2994   44.6878 C   0  0  0  0  0  0  0  0  0  0  0  0
   31.4252   13.9257   44.0372 C   0  0  0  0  0  0  0  0  0  0  0  0
  1 12  1  0  0  0  0
  1 11  1  0  0  0  0
  2 13  1  0  0  0  0
  2  9  1  0  0  0  0
  3  4  1  6  0  0  0
  3  5  2  0  0  0  0
  3  6  1  0  0  0  0
  6  8  1  0  0  0  0
  7 10  1  0  0  0  0
  8 11  1  0  0  0  0
  9 12  1  0  0  0  0
 10 13  1  0  0  0  0
M  CHG  1   4  -1
M  END
>  <CHROM.1>
-162.78317238,-71.56417436,-36.89185945,-174.55520913,-178.33162700,175.18369112
-52.44459001,-173.28064789,78.43000924,26.80425354,14.67562615,43.74653791
0.12950807,0.02191523,3.04271923

>  <Name>
ligand

>  <RI>
0

>  <Rbt.Current_Directory>
/home/itssahil/PROJECTS/Mol_Feturizer/New_Systems/rnas/3GS8

>  <Rbt.Executable>
rbdock ($Id: //depot/dev/client3/rdock/2013.1/src/exe/rbdock.cxx#4 $)

>  <Rbt.Library>
libRbt.so (2013.1, Build901 2013/11/27)

>  <Rbt.Parameter_File>
/export/apps/rDock/src/rDock_2013.1_src/data/scripts/dock_solv.prm

>  <Rbt.Receptor>
prm/blind_docking_60.prm

>  <SCORE>
-14.8856

>  <SCORE.INTER>
-3.40741

>  <SCORE.INTER.CONST>
1

>  <SCORE.INTER.POLAR>
0

>  <SCORE.INTER.ROT>
9

>  <SCORE.INTER.SOLV>
18.5995

>  <SCORE.INTER.VDW>
-18.0714

>  <SCORE.INTER.norm>
-0.262109

>  <SCORE.INTRA>
-11.4782

>  <SCORE.INTRA.DIHEDRAL>
-26.6987

>  <SCORE.INTRA.DIHEDRAL.0>
31.9578

>  <SCORE.INTRA.POLAR>
0

>  <SCORE.INTRA.POLAR.0>
0

>  <SCORE.INTRA.REPUL>
0

>  <SCORE.INTRA.REPUL.0>
0

>  <SCORE.INTRA.SOLV>
-1.32227

>  <SCORE.INTRA.SOLV.lig_0>
-48.4032

>  <SCORE.INTRA.VDW>
2.53231

>  <SCORE.INTRA.VDW.0>
-1.65238

>  <SCORE.INTRA.norm>
-0.882938

>  <SCORE.RESTR>
0

>  <SCORE.RESTR.CAVITY>
0

>  <SCORE.RESTR.norm>
0

>  <SCORE.SYSTEM>
0

>  <SCORE.SYSTEM.CONST>
0

>  <SCORE.SYSTEM.DIHEDRAL>
0

>  <SCORE.SYSTEM.SOLV>
0

>  <SCORE.SYSTEM.norm>
0

>  <SCORE.heavy>
13

>  <SCORE.norm>
-1.14505

>  <RMSD>
21.921

$$$$
ligand
 OpenBabel11021811473D
libRbt.so/2013.1/901 2013/11/27
 13 12  0  0  0  0  0  0  0  0999 V2000
   26.9471   13.3684   43.7540 O   0  0  0  0  0  0  0  0  0  0  0  0
   23.6289   14.9594   43.2261 O   0  0  0  0  0  0  0  0  0  0  0  0
   31.8566   12.1583   44.1053 P   0  0  1  0  0  0  0  0  0  0  0  0
   32.9861   13.0648   43.7010 O   0  5  0  0  0  0  0  0  0  0  0  0
   31.9085   10.9464   44.8937 O   0  0  0  0  0  0  0  0  0  0  0  0
   30.5936   13.1581   44.1977 O   0  0  0  0  0  0  0  0  0  0  0  0
   21.4885   16.6630   44.0353 O   0  0  0  0  0  0  0  0  0  0  0  0
   29.2381   12.6925   44.0200 C   0  0  0  0  0  0  0  0  0  0  0  0
   24.5699   13.8803   43.3866 C   0  0  0  0  0  0  0  0  0  0  0  0
   21.3240   15.7225   42.9592 C   0  0  0  0  0  0  0  0  0  0  0  0
   28.2570   13.8741   44.0239 C   0  0  0  0  0  0  0  0  0  0  0  0
   25.9966   14.4394   43.5958 C   0  0  0  0  0  0  0  0  0  0  0  0
   22.2633   14.5113   43.1665 C   0  0  0  0  0  0  0  0  0  0  0  0
  1 12  1  0  0  0  0
  1 11  1  0  0  0  0
  2 13  1  0  0  0  0
  2  9  1  0  0  0  0
  3  4  1  1  0  0  0
  3  5  2  0  0  0  0
  3  6  1  0  0  0  0
  6  8  1  0  0  0  0
  7 10  1  0  0  0  0
  8 11  1  0  0  0  0
  9 12  1  0  0  0  0
 10 13  1  0  0  0  0
M  CHG  1   4  -1
M  END
>  <CHROM.1>
-176.69854063,-178.60691722,154.32247207,-174.48530936,176.09841381,-173.90855078
-179.84777569,-58.74019073,-173.62185916,27.44556091,13.66480437,43.81168726
2.81497978,-0.05099957,-0.10098561

>  <Name>
ligand

>  <RI>
0

>  <Rbt.Current_Directory>
/home/itssahil/PROJECTS/Mol_Feturizer/New_Systems/rnas/3GS8

>  <Rbt.Executable>
rbdock ($Id: //depot/dev/client3/rdock/2013.1/src/exe/rbdock.cxx#4 $)

>  <Rbt.Library>
libRbt.so (2013.1, Build901 2013/11/27)

>  <Rbt.Parameter_File>
/export/apps/rDock/src/rDock_2013.1_src/data/scripts/dock_solv.prm

>  <Rbt.Receptor>
prm/blind_docking_60.prm

>  <SCORE>
-14.8695

>  <SCORE.INTER>
1.13497

>  <SCORE.INTER.CONST>
1

>  <SCORE.INTER.POLAR>
0

>  <SCORE.INTER.ROT>
9

>  <SCORE.INTER.SOLV>
16.4578

>  <SCORE.INTER.VDW>
-14.3293

>  <SCORE.INTER.norm>
0.0873057

>  <SCORE.INTRA>
-16.0045

>  <SCORE.INTRA.DIHEDRAL>
-30.9619

>  <SCORE.INTRA.DIHEDRAL.0>
31.9578

>  <SCORE.INTRA.POLAR>
0

>  <SCORE.INTRA.POLAR.0>
0

>  <SCORE.INTRA.REPUL>
0

>  <SCORE.INTRA.REPUL.0>
0

>  <SCORE.INTRA.SOLV>
-1.78188

>  <SCORE.INTRA.SOLV.lig_0>
-48.4032

>  <SCORE.INTRA.VDW>
0.367402

>  <SCORE.INTRA.VDW.0>
-1.65238

>  <SCORE.INTRA.norm>
-1.23112

>  <SCORE.RESTR>
0

>  <SCORE.RESTR.CAVITY>
0

>  <SCORE.RESTR.norm>
0

>  <SCORE.SYSTEM>
0

>  <SCORE.SYSTEM.CONST>
0

>  <SCORE.SYSTEM.DIHEDRAL>
0

>  <SCORE.SYSTEM.SOLV>
0

>  <SCORE.SYSTEM.norm>
0

>  <SCORE.heavy>
13

>  <SCORE.norm>
-1.14381

>  <RMSD>
21.971

$$$$
ligand
 OpenBabel11021811473D
libRbt.so/2013.1/901 2013/11/27
 13 12  0  0  0  0  0  0  0  0999 V2000
   29.5258   14.9893   42.9622 O   0  0  0  0  0  0  0  0  0  0  0  0
   25.8444   14.4817   42.9701 O   0  0  0  0  0  0  0  0  0  0  0  0
   32.5853   11.7397   43.8657 P   0  0  1  0  0  0  0  0  0  0  0  0
   31.3428   10.9142   43.6773 O   0  5  0  0  0  0  0  0  0  0  0  0
   33.7339   11.8558   42.9938 O   0  0  0  0  0  0  0  0  0  0  0  0
   32.0664   12.9987   44.7311 O   0  0  0  0  0  0  0  0  0  0  0  0
   23.4337   13.0220   42.5387 O   0  0  0  0  0  0  0  0  0  0  0  0
   31.4664   14.1559   44.1091 C   0  0  0  0  0  0  0  0  0  0  0  0
   27.1608   14.6342   43.5356 C   0  0  0  0  0  0  0  0  0  0  0  0
   23.4321   14.2553   43.2794 C   0  0  0  0  0  0  0  0  0  0  0  0
   30.0631   13.8191   43.5837 C   0  0  0  0  0  0  0  0  0  0  0  0
   28.2188   14.7348   42.4122 C   0  0  0  0  0  0  0  0  0  0  0  0
   24.8037   14.4639   43.9630 C   0  0  0  0  0  0  0  0  0  0  0  0
  1 12  1  0  0  0  0
  1 11  1  0  0  0  0
  2 13  1  0  0  0  0
  2  9  1  0  0  0  0
  3  4  1  6  0  0  0
  3  5  2  0  0  0  0
  3  6  1  0  0  0  0
  6  8  1  0  0  0  0
  7 10  1  0  0  0  0
  8 11  1  0  0  0  0
  9 12  1  0  0  0  0
 10 13  1  0  0  0  0
M  CHG  1   4  -1
M  END
>  <CHROM.1>
73.98498080,-178.32011238,-84.53750877,71.97274303,-179.12504815,-176.43838576
175.62856922,58.55559603,178.44993109,29.08520632,13.37063063,43.46049711
-2.89788852,0.08238160,3.14013330

>  <Name>
ligand

>  <RI>
0

>  <Rbt.Current_Directory>
/home/itssahil/PROJECTS/Mol_Feturizer/New_Systems/rnas/3GS8

>  <Rbt.Executable>
rbdock ($Id: //depot/dev/client3/rdock/2013.1/src/exe/rbdock.cxx#4 $)

>  <Rbt.Library>
libRbt.so (2013.1, Build901 2013/11/27)

>  <Rbt.Parameter_File>
/export/apps/rDock/src/rDock_2013.1_src/data/scripts/dock_solv.prm

>  <Rbt.Receptor>
prm/blind_docking_60.prm

>  <SCORE>
-12.8767

>  <SCORE.INTER>
0.776976

>  <SCORE.INTER.CONST>
1

>  <SCORE.INTER.POLAR>
0

>  <SCORE.INTER.ROT>
9

>  <SCORE.INTER.SOLV>
12.0533

>  <SCORE.INTER.VDW>
-13.0998

>  <SCORE.INTER.norm>
0.0597674

>  <SCORE.INTRA>
-13.6537

>  <SCORE.INTRA.DIHEDRAL>
-29.8533

>  <SCORE.INTRA.DIHEDRAL.0>
31.9578

>  <SCORE.INTRA.POLAR>
0

>  <SCORE.INTRA.POLAR.0>
0

>  <SCORE.INTRA.REPUL>
0

>  <SCORE.INTRA.REPUL.0>
0

>  <SCORE.INTRA.SOLV>
0.110196

>  <SCORE.INTRA.SOLV.lig_0>
-48.4032

>  <SCORE.INTRA.VDW>
1.21786

>  <SCORE.INTRA.VDW.0>
-1.65238

>  <SCORE.INTRA.norm>
-1.05028

>  <SCORE.RESTR>
0

>  <SCORE.RESTR.CAVITY>
0

>  <SCORE.RESTR.norm>
0

>  <SCORE.SYSTEM>
0

>  <SCORE.SYSTEM.CONST>
0

>  <SCORE.SYSTEM.DIHEDRAL>
0

>  <SCORE.SYSTEM.SOLV>
0

>  <SCORE.SYSTEM.norm>
0

>  <SCORE.heavy>
13

>  <SCORE.norm>
-0.990517

>  <RMSD>
21.979

$$$$
ligand
 OpenBabel11021811473D
libRbt.so/2013.1/901 2013/11/27
 13 12  0  0  0  0  0  0  0  0999 V2000
   27.2419   14.0362   43.9223 O   0  0  0  0  0  0  0  0  0  0  0  0
   30.0667   14.4720   44.4692 O   0  0  0  0  0  0  0  0  0  0  0  0
   22.4753   15.7487   43.6315 P   0  0  1  0  0  0  0  0  0  0  0  0
   21.2317   14.9111   43.5172 O   0  5  0  0  0  0  0  0  0  0  0  0
   22.5991   17.1317   44.0374 O   0  0  0  0  0  0  0  0  0  0  0  0
   23.6175   14.6688   43.9956 O   0  0  0  0  0  0  0  0  0  0  0  0
   33.5881   14.4234   43.3315 O   0  0  0  0  0  0  0  0  0  0  0  0
   25.0196   14.9406   43.7816 C   0  0  0  0  0  0  0  0  0  0  0  0
   29.5673   13.2359   43.9227 C   0  0  0  0  0  0  0  0  0  0  0  0
   32.4048   13.9468   43.9965 C   0  0  0  0  0  0  0  0  0  0  0  0
   25.8741   13.7408   44.2162 C   0  0  0  0  0  0  0  0  0  0  0  0
   28.1143   12.9903   44.3919 C   0  0  0  0  0  0  0  0  0  0  0  0
   31.2447   14.9499   43.7960 C   0  0  0  0  0  0  0  0  0  0  0  0
  1 12  1  0  0  0  0
  1 11  1  0  0  0  0
  2 13  1  0  0  0  0
  2  9  1  0  0  0  0
  3  4  1  1  0  0  0
  3  5  2  0  0  0  0
  3  6  1  0  0  0  0
  6  8  1  0  0  0  0
  7 10  1  0  0  0  0
  8 11  1  0  0  0  0
  9 12  1  0  0  0  0
 10 13  1  0  0  0  0
M  CHG  1   4  -1
M  END
>  <CHROM.1>
173.24880518,-64.00484833,159.68850410,179.99672007,177.17613715,-163.69588064
61.95150403,-179.67490893,175.89703539,26.73853853,14.67119456,43.89784411
0.15419667,-0.00851544,3.01572413

>  <Name>
ligand

>  <RI>
0

>  <Rbt.Current_Directory>
/home/itssahil/PROJECTS/Mol_Feturizer/New_Systems/rnas/3GS8

>  <Rbt.Executable>
rbdock ($Id: //depot/dev/client3/rdock/2013.1/src/exe/rbdock.cxx#4 $)

>  <Rbt.Library>
libRbt.so (2013.1, Build901 2013/11/27)

>  <Rbt.Parameter_File>
/export/apps/rDock/src/rDock_2013.1_src/data/scripts/dock_solv.prm

>  <Rbt.Receptor>
prm/blind_docking_100.prm

>  <SCORE>
-16.2391

>  <SCORE.INTER>
-2.16175

>  <SCORE.INTER.CONST>
1

>  <SCORE.INTER.POLAR>
0

>  <SCORE.INTER.ROT>
9

>  <SCORE.INTER.SOLV>
16.3378

>  <SCORE.INTER.VDW>
-16.4871

>  <SCORE.INTER.norm>
-0.166288

>  <SCORE.INTRA>
-14.0774

>  <SCORE.INTRA.DIHEDRAL>
-30.0032

>  <SCORE.INTRA.DIHEDRAL.0>
31.9578

>  <SCORE.INTRA.POLAR>
0

>  <SCORE.INTRA.POLAR.0>
0

>  <SCORE.INTRA.REPUL>
0

>  <SCORE.INTRA.REPUL.0>
0

>  <SCORE.INTRA.SOLV>
-1.738

>  <SCORE.INTRA.SOLV.lig_0>
-48.4032

>  <SCORE.INTRA.VDW>
1.79323

>  <SCORE.INTRA.VDW.0>
-1.65238

>  <SCORE.INTRA.norm>
-1.08288

>  <SCORE.RESTR>
0

>  <SCORE.RESTR.CAVITY>
0

>  <SCORE.RESTR.norm>
0

>  <SCORE.SYSTEM>
0

>  <SCORE.SYSTEM.CONST>
0

>  <SCORE.SYSTEM.DIHEDRAL>
0

>  <SCORE.SYSTEM.SOLV>
0

>  <SCORE.SYSTEM.norm>
0

>  <SCORE.heavy>
13

>  <SCORE.norm>
-1.24916

>  <RMSD>
22.002

$$$$
ligand
 OpenBabel11021811473D
libRbt.so/2013.1/901 2013/11/27
 13 12  0  0  0  0  0  0  0  0999 V2000
   27.0695   14.0097   44.5294 O   0  0  0  0  0  0  0  0  0  0  0  0
   29.9826   14.6991   44.3192 O   0  0  0  0  0  0  0  0  0  0  0  0
   23.1128   15.5363   43.7926 P   0  0  1  0  0  0  0  0  0  0  0  0
   22.0128   14.5932   43.3908 O   0  5  0  0  0  0  0  0  0  0  0  0
   23.0084   16.8091   44.4722 O   0  0  0  0  0  0  0  0  0  0  0  0
   24.3667   14.5546   44.0517 O   0  0  0  0  0  0  0  0  0  0  0  0
   33.4407   14.2949   43.0652 O   0  0  0  0  0  0  0  0  0  0  0  0
   25.2363   14.1294   42.9799 C   0  0  0  0  0  0  0  0  0  0  0  0
   29.4238   13.3757   44.2078 C   0  0  0  0  0  0  0  0  0  0  0  0
   32.2999   14.0468   43.9058 C   0  0  0  0  0  0  0  0  0  0  0  0
   26.3798   13.2612   43.5252 C   0  0  0  0  0  0  0  0  0  0  0  0
   28.1592   13.2515   45.0892 C   0  0  0  0  0  0  0  0  0  0  0  0
   31.1040   14.9121   43.4438 C   0  0  0  0  0  0  0  0  0  0  0  0
  1 12  1  0  0  0  0
  1 11  1  0  0  0  0
  2 13  1  0  0  0  0
  2  9  1  0  0  0  0
  3  4  1  1  0  0  0
  3  5  2  0  0  0  0
  3  6  1  0  0  0  0
  6  8  1  0  0  0  0
  7 10  1  0  0  0  0
  8 11  1  0  0  0  0
  9 12  1  0  0  0  0
 10 13  1  0  0  0  0
M  CHG  1   4  -1
M  END
>  <CHROM.1>
83.92044292,-68.08303354,85.57295425,177.14722505,-56.20339337,-175.52743508
71.16671093,-177.77054848,179.89503372,26.97355814,14.53332325,43.90020405
0.12698494,-0.01497355,3.09333004

>  <Name>
ligand

>  <RI>
0

>  <Rbt.Current_Directory>
/home/itssahil/PROJECTS/Mol_Feturizer/New_Systems/rnas/3GS8

>  <Rbt.Executable>
rbdock ($Id: //depot/dev/client3/rdock/2013.1/src/exe/rbdock.cxx#4 $)

>  <Rbt.Library>
libRbt.so (2013.1, Build901 2013/11/27)

>  <Rbt.Parameter_File>
/export/apps/rDock/src/rDock_2013.1_src/data/scripts/dock_solv.prm

>  <Rbt.Receptor>
prm/blind_docking_60.prm

>  <SCORE>
-15.4883

>  <SCORE.INTER>
-2.89594

>  <SCORE.INTER.CONST>
1

>  <SCORE.INTER.POLAR>
0

>  <SCORE.INTER.ROT>
9

>  <SCORE.INTER.SOLV>
15.6797

>  <SCORE.INTER.VDW>
-16.7572

>  <SCORE.INTER.norm>
-0.222765

>  <SCORE.INTRA>
-12.5924

>  <SCORE.INTRA.DIHEDRAL>
-27.3898

>  <SCORE.INTRA.DIHEDRAL.0>
31.9578

>  <SCORE.INTRA.POLAR>
0

>  <SCORE.INTRA.POLAR.0>
0

>  <SCORE.INTRA.REPUL>
0

>  <SCORE.INTRA.REPUL.0>
0

>  <SCORE.INTRA.SOLV>
-1.49443

>  <SCORE.INTRA.SOLV.lig_0>
-48.4032

>  <SCORE.INTRA.VDW>
1.84974

>  <SCORE.INTRA.VDW.0>
-1.65238

>  <SCORE.INTRA.norm>
-0.968645

>  <SCORE.RESTR>
0

>  <SCORE.RESTR.CAVITY>
0

>  <SCORE.RESTR.norm>
0

>  <SCORE.SYSTEM>
0

>  <SCORE.SYSTEM.CONST>
0

>  <SCORE.SYSTEM.DIHEDRAL>
0

>  <SCORE.SYSTEM.SOLV>
0

>  <SCORE.SYSTEM.norm>
0

>  <SCORE.heavy>
13

>  <SCORE.norm>
-1.19141

>  <RMSD>
22.005

$$$$
ligand
 OpenBabel11021811473D
libRbt.so/2013.1/901 2013/11/27
 13 12  0  0  0  0  0  0  0  0999 V2000
   26.0199   13.9951   44.0294 O   0  0  0  0  0  0  0  0  0  0  0  0
   29.7050   13.5664   43.8099 O   0  0  0  0  0  0  0  0  0  0  0  0
   22.5259   16.6189   44.1109 P   0  0  1  0  0  0  0  0  0  0  0  0
   23.1685   17.9688   44.2718 O   0  5  0  0  0  0  0  0  0  0  0  0
   21.1881   16.3030   43.6598 O   0  0  0  0  0  0  0  0  0  0  0  0
   23.7715   15.6544   43.7624 O   0  0  0  0  0  0  0  0  0  0  0  0
   32.1481   13.9500   42.3474 O   0  0  0  0  0  0  0  0  0  0  0  0
   23.6427   14.2160   43.7533 C   0  0  0  0  0  0  0  0  0  0  0  0
   28.4567   14.0308   44.3594 C   0  0  0  0  0  0  0  0  0  0  0  0
   32.1454   13.6536   43.7552 C   0  0  0  0  0  0  0  0  0  0  0  0
   24.9253   13.5630   43.2174 C   0  0  0  0  0  0  0  0  0  0  0  0
   27.2690   13.4629   43.5478 C   0  0  0  0  0  0  0  0  0  0  0  0
   30.8521   14.1957   44.4077 C   0  0  0  0  0  0  0  0  0  0  0  0
  1 12  1  0  0  0  0
  1 11  1  0  0  0  0
  2 13  1  0  0  0  0
  2  9  1  0  0  0  0
  3  4  1  6  0  0  0
  3  5  2  0  0  0  0
  3  6  1  0  0  0  0
  6  8  1  0  0  0  0
  7 10  1  0  0  0  0
  8 11  1  0  0  0  0
  9 12  1  0  0  0  0
 10 13  1  0  0  0  0
M  CHG  1   4  -1
M  END
>  <CHROM.1>
175.23384125,-179.46809716,169.07013954,172.76842067,57.13455526,172.33105767
-175.95975803,60.85189880,-177.58710625,26.24056577,14.88950708,43.79194808
0.29860391,-0.00097605,-2.99358850

>  <Name>
ligand

>  <RI>
0

>  <Rbt.Current_Directory>
/home/itssahil/PROJECTS/Mol_Feturizer/New_Systems/rnas/3GS8

>  <Rbt.Executable>
rbdock ($Id: //depot/dev/client3/rdock/2013.1/src/exe/rbdock.cxx#4 $)

>  <Rbt.Library>
libRbt.so (2013.1, Build901 2013/11/27)

>  <Rbt.Parameter_File>
/export/apps/rDock/src/rDock_2013.1_src/data/scripts/dock_solv.prm

>  <Rbt.Receptor>
prm/blind_docking_60.prm

>  <SCORE>
-16.6706

>  <SCORE.INTER>
-0.678363

>  <SCORE.INTER.CONST>
1

>  <SCORE.INTER.POLAR>
0

>  <SCORE.INTER.ROT>
9

>  <SCORE.INTER.SOLV>
21.0143

>  <SCORE.INTER.VDW>
-17.057

>  <SCORE.INTER.norm>
-0.0521818

>  <SCORE.INTRA>
-15.9922

>  <SCORE.INTRA.DIHEDRAL>
-30.8762

>  <SCORE.INTRA.DIHEDRAL.0>
31.9578

>  <SCORE.INTRA.POLAR>
0

>  <SCORE.INTRA.POLAR.0>
0

>  <SCORE.INTRA.REPUL>
0

>  <SCORE.INTRA.REPUL.0>
0

>  <SCORE.INTRA.SOLV>
-1.59807

>  <SCORE.INTRA.SOLV.lig_0>
-48.4032

>  <SCORE.INTRA.VDW>
0.244918

>  <SCORE.INTRA.VDW.0>
-1.65238

>  <SCORE.INTRA.norm>
-1.23017

>  <SCORE.RESTR>
0

>  <SCORE.RESTR.CAVITY>
0

>  <SCORE.RESTR.norm>
0

>  <SCORE.SYSTEM>
0

>  <SCORE.SYSTEM.CONST>
0

>  <SCORE.SYSTEM.DIHEDRAL>
0

>  <SCORE.SYSTEM.SOLV>
0

>  <SCORE.SYSTEM.norm>
0

>  <SCORE.heavy>
13

>  <SCORE.norm>
-1.28235

>  <RMSD>
22.016

$$$$
ligand
 OpenBabel11021811473D
libRbt.so/2013.1/901 2013/11/27
 13 12  0  0  0  0  0  0  0  0999 V2000
   33.2625   20.5335   62.1800 O   0  0  0  0  0  0  0  0  0  0  0  0
   31.2028   17.5935   63.1436 O   0  0  0  0  0  0  0  0  0  0  0  0
   34.8035   24.7471   64.5482 P   0  0  1  0  0  0  0  0  0  0  0  0
   33.9436   25.7555   65.2586 O   0  5  0  0  0  0  0  0  0  0  0  0
   36.2221   24.5050   64.6963 O   0  0  0  0  0  0  0  0  0  0  0  0
   33.7802   23.5380   64.2410 O   0  0  0  0  0  0  0  0  0  0  0  0
   30.5563   14.7809   62.9829 O   0  0  0  0  0  0  0  0  0  0  0  0
   34.0521   22.5489   63.2245 C   0  0  0  0  0  0  0  0  0  0  0  0
   32.1822   18.6365   63.3127 C   0  0  0  0  0  0  0  0  0  0  0  0
   30.0438   15.6318   64.0236 C   0  0  0  0  0  0  0  0  0  0  0  0
   32.9176   21.5156   63.1603 C   0  0  0  0  0  0  0  0  0  0  0  0
   32.2308   19.5357   62.0554 C   0  0  0  0  0  0  0  0  0  0  0  0
   31.0456   16.7736   64.3150 C   0  0  0  0  0  0  0  0  0  0  0  0
  1 12  1  0  0  0  0
  1 11  1  0  0  0  0
  2 13  1  0  0  0  0
  2  9  1  0  0  0  0
  3  4  1  1  0  0  0
  3  5  2  0  0  0  0
  3  6  1  0  0  0  0
  6  8  1  0  0  0  0
  7 10  1  0  0  0  0
  8 11  1  0  0  0  0
  9 12  1  0  0  0  0
 10 13  1  0  0  0  0
M  CHG  1   4  -1
M  END
>  <CHROM.1>
-70.27679206,-176.61882926,160.30205536,179.48796744,-177.66734364,-176.14368045
-176.54611040,62.62320924,-179.35149934,32.97064989,20.84866803,63.70726499
-2.47427056,1.00578157,0.96243249

>  <Name>
ligand

>  <RI>
0

>  <Rbt.Current_Directory>
/home/itssahil/PROJECTS/Mol_Feturizer/New_Systems/rnas/3GS8

>  <Rbt.Executable>
rbdock ($Id: //depot/dev/client3/rdock/2013.1/src/exe/rbdock.cxx#4 $)

>  <Rbt.Library>
libRbt.so (2013.1, Build901 2013/11/27)

>  <Rbt.Parameter_File>
/export/apps/rDock/src/rDock_2013.1_src/data/scripts/dock_solv.prm

>  <Rbt.Receptor>
prm/blind_docking_100.prm

>  <SCORE>
-14.5

>  <SCORE.INTER>
0.351375

>  <SCORE.INTER.CONST>
1

>  <SCORE.INTER.POLAR>
0

>  <SCORE.INTER.ROT>
9

>  <SCORE.INTER.SOLV>
7.461

>  <SCORE.INTER.VDW>
-11.8527

>  <SCORE.INTER.norm>
0.0270288

>  <SCORE.INTRA>
-14.8514

>  <SCORE.INTRA.DIHEDRAL>
-30.9363

>  <SCORE.INTRA.DIHEDRAL.0>
31.9578

>  <SCORE.INTRA.POLAR>
0

>  <SCORE.INTRA.POLAR.0>
0

>  <SCORE.INTRA.REPUL>
0

>  <SCORE.INTRA.REPUL.0>
0

>  <SCORE.INTRA.SOLV>
-1.71128

>  <SCORE.INTRA.SOLV.lig_0>
-48.4032

>  <SCORE.INTRA.VDW>
1.47244

>  <SCORE.INTRA.VDW.0>
-1.65238

>  <SCORE.INTRA.norm>
-1.14241

>  <SCORE.RESTR>
0

>  <SCORE.RESTR.CAVITY>
0

>  <SCORE.RESTR.norm>
0

>  <SCORE.SYSTEM>
0

>  <SCORE.SYSTEM.CONST>
0

>  <SCORE.SYSTEM.DIHEDRAL>
0

>  <SCORE.SYSTEM.SOLV>
0

>  <SCORE.SYSTEM.norm>
0

>  <SCORE.heavy>
13

>  <SCORE.norm>
-1.11538

>  <RMSD>
22.019

$$$$
ligand
 OpenBabel11021811473D
libRbt.so/2013.1/901 2013/11/27
 13 12  0  0  0  0  0  0  0  0999 V2000
   26.7647   14.0964   44.3129 O   0  0  0  0  0  0  0  0  0  0  0  0
   30.3396   13.0804   44.4085 O   0  0  0  0  0  0  0  0  0  0  0  0
   22.1387   15.6658   42.9866 P   0  0  1  0  0  0  0  0  0  0  0  0
   21.1774   14.7041   43.6286 O   0  5  0  0  0  0  0  0  0  0  0  0
   22.1998   17.1052   43.1180 O   0  0  0  0  0  0  0  0  0  0  0  0
   23.4813   14.7879   42.8134 O   0  0  0  0  0  0  0  0  0  0  0  0
   31.1007   15.8523   44.3874 O   0  0  0  0  0  0  0  0  0  0  0  0
   24.4988   14.7408   43.8371 C   0  0  0  0  0  0  0  0  0  0  0  0
   29.1350   13.7312   44.8574 C   0  0  0  0  0  0  0  0  0  0  0  0
   31.8478   14.8540   43.6699 C   0  0  0  0  0  0  0  0  0  0  0  0
   25.7205   13.9493   43.3474 C   0  0  0  0  0  0  0  0  0  0  0  0
   27.9728   13.4424   43.8789 C   0  0  0  0  0  0  0  0  0  0  0  0
   30.9126   13.6985   43.2428 C   0  0  0  0  0  0  0  0  0  0  0  0
  1 12  1  0  0  0  0
  1 11  1  0  0  0  0
  2 13  1  0  0  0  0
  2  9  1  0  0  0  0
  3  4  1  1  0  0  0
  3  5  2  0  0  0  0
  3  6  1  0  0  0  0
  6  8  1  0  0  0  0
  7 10  1  0  0  0  0
  8 11  1  0  0  0  0
  9 12  1  0  0  0  0
 10 13  1  0  0  0  0
M  CHG  1   4  -1
M  END
>  <CHROM.1>
174.10195114,86.66941342,-90.38613882,-174.21405113,171.72948793,71.84950249
-179.59136441,-61.01211912,-176.58182628,26.29848885,14.69839509,43.67296788
0.16736357,0.07955425,2.98887149

>  <Name>
ligand

>  <RI>
0

>  <Rbt.Current_Directory>
/home/itssahil/PROJECTS/Mol_Feturizer/New_Systems/rnas/3GS8

>  <Rbt.Executable>
rbdock ($Id: //depot/dev/client3/rdock/2013.1/src/exe/rbdock.cxx#4 $)

>  <Rbt.Library>
libRbt.so (2013.1, Build901 2013/11/27)

>  <Rbt.Parameter_File>
/export/apps/rDock/src/rDock_2013.1_src/data/scripts/dock_solv.prm

>  <Rbt.Receptor>
prm/blind_docking_80.prm

>  <SCORE>
-14.9641

>  <SCORE.INTER>
-2.53081

>  <SCORE.INTER.CONST>
1

>  <SCORE.INTER.POLAR>
0

>  <SCORE.INTER.ROT>
9

>  <SCORE.INTER.SOLV>
18.288

>  <SCORE.INTER.VDW>
-17.3832

>  <SCORE.INTER.norm>
-0.194678

>  <SCORE.INTRA>
-12.4333

>  <SCORE.INTRA.DIHEDRAL>
-27.2485

>  <SCORE.INTRA.DIHEDRAL.0>
31.9578

>  <SCORE.INTRA.POLAR>
0

>  <SCORE.INTRA.POLAR.0>
0

>  <SCORE.INTRA.REPUL>
0

>  <SCORE.INTRA.REPUL.0>
0

>  <SCORE.INTRA.SOLV>
-1.11747

>  <SCORE.INTRA.SOLV.lig_0>
-48.4032

>  <SCORE.INTRA.VDW>
1.7497

>  <SCORE.INTRA.VDW.0>
-1.65238

>  <SCORE.INTRA.norm>
-0.956406

>  <SCORE.RESTR>
0

>  <SCORE.RESTR.CAVITY>
0

>  <SCORE.RESTR.norm>
0

>  <SCORE.SYSTEM>
0

>  <SCORE.SYSTEM.CONST>
0

>  <SCORE.SYSTEM.DIHEDRAL>
0

>  <SCORE.SYSTEM.SOLV>
0

>  <SCORE.SYSTEM.norm>
0

>  <SCORE.heavy>
13

>  <SCORE.norm>
-1.15108

>  <RMSD>
22.022

$$$$
ligand
 OpenBabel11021811473D
libRbt.so/2013.1/901 2013/11/27
 13 12  0  0  0  0  0  0  0  0999 V2000
   32.4099   19.5694   62.9906 O   0  0  0  0  0  0  0  0  0  0  0  0
   30.1407   16.7719   63.9102 O   0  0  0  0  0  0  0  0  0  0  0  0
   32.6105   23.4193   61.0962 P   0  0  1  0  0  0  0  0  0  0  0  0
   32.9291   24.2999   62.2727 O   0  5  0  0  0  0  0  0  0  0  0  0
   32.2351   23.8059   59.7537 O   0  0  0  0  0  0  0  0  0  0  0  0
   33.5060   22.1042   61.3642 O   0  0  0  0  0  0  0  0  0  0  0  0
   28.7604   13.3452   64.0845 O   0  0  0  0  0  0  0  0  0  0  0  0
   33.7026   21.5735   62.6929 C   0  0  0  0  0  0  0  0  0  0  0  0
   31.3111   17.3989   63.3508 C   0  0  0  0  0  0  0  0  0  0  0  0
   28.8670   14.7454   64.3970 C   0  0  0  0  0  0  0  0  0  0  0  0
   32.3948   20.9781   63.2349 C   0  0  0  0  0  0  0  0  0  0  0  0
   31.2376   18.9327   63.5345 C   0  0  0  0  0  0  0  0  0  0  0  0
   30.1138   15.3480   63.7080 C   0  0  0  0  0  0  0  0  0  0  0  0
  1 12  1  0  0  0  0
  1 11  1  0  0  0  0
  2 13  1  0  0  0  0
  2  9  1  0  0  0  0
  3  4  1  6  0  0  0
  3  5  2  0  0  0  0
  3  6  1  0  0  0  0
  6  8  1  0  0  0  0
  7 10  1  0  0  0  0
  8 11  1  0  0  0  0
  9 12  1  0  0  0  0
 10 13  1  0  0  0  0
M  CHG  1   4  -1
M  END
>  <CHROM.1>
-176.09111297,177.16554973,37.61514971,69.11930658,96.22904812,176.87732850
179.41843200,174.14493803,177.14269040,31.64605151,19.76144162,62.63993322
-2.06587111,-0.72634851,-0.66033351

>  <Name>
ligand

>  <RI>
0

>  <Rbt.Current_Directory>
/home/itssahil/PROJECTS/Mol_Feturizer/New_Systems/rnas/3GS8

>  <Rbt.Executable>
rbdock ($Id: //depot/dev/client3/rdock/2013.1/src/exe/rbdock.cxx#4 $)

>  <Rbt.Library>
libRbt.so (2013.1, Build901 2013/11/27)

>  <Rbt.Parameter_File>
/export/apps/rDock/src/rDock_2013.1_src/data/scripts/dock_solv.prm

>  <Rbt.Receptor>
prm/blind_docking_100.prm

>  <SCORE>
-12.406

>  <SCORE.INTER>
0.589042

>  <SCORE.INTER.CONST>
1

>  <SCORE.INTER.POLAR>
0

>  <SCORE.INTER.ROT>
9

>  <SCORE.INTER.SOLV>
11.6656

>  <SCORE.INTER.VDW>
-13.0959

>  <SCORE.INTER.norm>
0.0453109

>  <SCORE.INTRA>
-12.995

>  <SCORE.INTRA.DIHEDRAL>
-27.2725

>  <SCORE.INTRA.DIHEDRAL.0>
31.9578

>  <SCORE.INTRA.POLAR>
0

>  <SCORE.INTRA.POLAR.0>
0

>  <SCORE.INTRA.REPUL>
0

>  <SCORE.INTRA.REPUL.0>
0

>  <SCORE.INTRA.SOLV>
-0.352809

>  <SCORE.INTRA.SOLV.lig_0>
-48.4032

>  <SCORE.INTRA.VDW>
0.817618

>  <SCORE.INTRA.VDW.0>
-1.65238

>  <SCORE.INTRA.norm>
-0.999617

>  <SCORE.RESTR>
0

>  <SCORE.RESTR.CAVITY>
0

>  <SCORE.RESTR.norm>
0

>  <SCORE.SYSTEM>
0

>  <SCORE.SYSTEM.CONST>
0

>  <SCORE.SYSTEM.DIHEDRAL>
0

>  <SCORE.SYSTEM.SOLV>
0

>  <SCORE.SYSTEM.norm>
0

>  <SCORE.heavy>
13

>  <SCORE.norm>
-0.954306

>  <RMSD>
22.068

$$$$
ligand
 OpenBabel11021811473D
libRbt.so/2013.1/901 2013/11/27
 13 12  0  0  0  0  0  0  0  0999 V2000
   27.2731   13.1917   43.7222 O   0  0  0  0  0  0  0  0  0  0  0  0
   24.0023   14.8968   43.2601 O   0  0  0  0  0  0  0  0  0  0  0  0
   32.1695   11.9514   44.2000 P   0  0  1  0  0  0  0  0  0  0  0  0
   31.9779   10.8817   45.2392 O   0  5  0  0  0  0  0  0  0  0  0  0
   32.8354   11.8578   42.9191 O   0  0  0  0  0  0  0  0  0  0  0  0
   30.8784   12.8981   44.3999 O   0  0  0  0  0  0  0  0  0  0  0  0
   21.7038   16.3109   44.1449 O   0  0  0  0  0  0  0  0  0  0  0  0
   29.5712   12.5161   43.9193 C   0  0  0  0  0  0  0  0  0  0  0  0
   24.9494   13.8122   43.2092 C   0  0  0  0  0  0  0  0  0  0  0  0
   21.7585   15.7551   42.8191 C   0  0  0  0  0  0  0  0  0  0  0  0
   28.5328   13.5931   44.2666 C   0  0  0  0  0  0  0  0  0  0  0  0
   26.3057   14.2560   43.8049 C   0  0  0  0  0  0  0  0  0  0  0  0
   22.6919   14.5220   42.8002 C   0  0  0  0  0  0  0  0  0  0  0  0
  1 12  1  0  0  0  0
  1 11  1  0  0  0  0
  2 13  1  0  0  0  0
  2  9  1  0  0  0  0
  3  4  1  6  0  0  0
  3  5  2  0  0  0  0
  3  6  1  0  0  0  0
  6  8  1  0  0  0  0
  7 10  1  0  0  0  0
  8 11  1  0  0  0  0
  9 12  1  0  0  0  0
 10 13  1  0  0  0  0
M  CHG  1   4  -1
M  END
>  <CHROM.1>
179.80931825,-177.15196107,-76.36828640,179.10406394,177.66852591,-176.17183246
-178.25374013,-57.40692156,-169.95873580,27.71974977,13.42934988,43.79419003
-3.08708733,-0.36121341,1.48600281

>  <Name>
ligand

>  <RI>
0

>  <Rbt.Current_Directory>
/home/itssahil/PROJECTS/Mol_Feturizer/New_Systems/rnas/3GS8

>  <Rbt.Executable>
rbdock ($Id: //depot/dev/client3/rdock/2013.1/src/exe/rbdock.cxx#4 $)

>  <Rbt.Library>
libRbt.so (2013.1, Build901 2013/11/27)

>  <Rbt.Parameter_File>
/export/apps/rDock/src/rDock_2013.1_src/data/scripts/dock_solv.prm

>  <Rbt.Receptor>
prm/blind_docking_60.prm

>  <SCORE>
-14.6548

>  <SCORE.INTER>
1.21387

>  <SCORE.INTER.CONST>
1

>  <SCORE.INTER.POLAR>
0

>  <SCORE.INTER.ROT>
9

>  <SCORE.INTER.SOLV>
17.0321

>  <SCORE.INTER.VDW>
-14.4681

>  <SCORE.INTER.norm>
0.0933744

>  <SCORE.INTRA>
-15.8687

>  <SCORE.INTRA.DIHEDRAL>
-31.0167

>  <SCORE.INTRA.DIHEDRAL.0>
31.9578

>  <SCORE.INTRA.POLAR>
0

>  <SCORE.INTRA.POLAR.0>
0

>  <SCORE.INTRA.REPUL>
0

>  <SCORE.INTRA.REPUL.0>
0

>  <SCORE.INTRA.SOLV>
-1.44781

>  <SCORE.INTRA.SOLV.lig_0>
-48.4032

>  <SCORE.INTRA.VDW>
0.363549

>  <SCORE.INTRA.VDW.0>
-1.65238

>  <SCORE.INTRA.norm>
-1.22067

>  <SCORE.RESTR>
0

>  <SCORE.RESTR.CAVITY>
0

>  <SCORE.RESTR.norm>
0

>  <SCORE.SYSTEM>
0

>  <SCORE.SYSTEM.CONST>
0

>  <SCORE.SYSTEM.DIHEDRAL>
0

>  <SCORE.SYSTEM.SOLV>
0

>  <SCORE.SYSTEM.norm>
0

>  <SCORE.heavy>
13

>  <SCORE.norm>
-1.12729

>  <RMSD>
22.132

$$$$
ligand
 OpenBabel11021811473D
libRbt.so/2013.1/901 2013/11/27
 13 12  0  0  0  0  0  0  0  0999 V2000
   26.7145   13.0709   43.6740 O   0  0  0  0  0  0  0  0  0  0  0  0
   29.6244   12.7599   44.2495 O   0  0  0  0  0  0  0  0  0  0  0  0
   22.4052   15.7456   43.5379 P   0  0  1  0  0  0  0  0  0  0  0  0
   23.1319   16.9892   43.9696 O   0  5  0  0  0  0  0  0  0  0  0  0
   21.0326   15.6062   43.1027 O   0  0  0  0  0  0  0  0  0  0  0  0
   23.5758   14.8327   42.9056 O   0  0  0  0  0  0  0  0  0  0  0  0
   31.0945   15.3189   44.5993 O   0  0  0  0  0  0  0  0  0  0  0  0
   24.6885   14.3636   43.6977 C   0  0  0  0  0  0  0  0  0  0  0  0
   28.7497   13.6999   44.9031 C   0  0  0  0  0  0  0  0  0  0  0  0
   31.6142   14.1446   43.9509 C   0  0  0  0  0  0  0  0  0  0  0  0
   25.6306   13.4998   42.8461 C   0  0  0  0  0  0  0  0  0  0  0  0
   27.6299   14.1519   43.9370 C   0  0  0  0  0  0  0  0  0  0  0  0
   30.4678   13.3716   43.2577 C   0  0  0  0  0  0  0  0  0  0  0  0
  1 12  1  0  0  0  0
  1 11  1  0  0  0  0
  2 13  1  0  0  0  0
  2  9  1  0  0  0  0
  3  4  1  6  0  0  0
  3  5  2  0  0  0  0
  3  6  1  0  0  0  0
  6  8  1  0  0  0  0
  7 10  1  0  0  0  0
  8 11  1  0  0  0  0
  9 12  1  0  0  0  0
 10 13  1  0  0  0  0
M  CHG  1   4  -1
M  END
>  <CHROM.1>
176.50974185,75.84896561,62.43846612,178.98166031,179.62955187,72.03711111
69.32368005,-70.77110397,-73.81917567,26.25911541,14.55191364,43.72507607
0.19130513,0.14567111,-2.88151263

>  <Name>
ligand

>  <RI>
0

>  <Rbt.Current_Directory>
/home/itssahil/PROJECTS/Mol_Feturizer/New_Systems/rnas/3GS8

>  <Rbt.Executable>
rbdock ($Id: //depot/dev/client3/rdock/2013.1/src/exe/rbdock.cxx#4 $)

>  <Rbt.Library>
libRbt.so (2013.1, Build901 2013/11/27)

>  <Rbt.Parameter_File>
/export/apps/rDock/src/rDock_2013.1_src/data/scripts/dock_solv.prm

>  <Rbt.Receptor>
prm/blind_docking_60.prm

>  <SCORE>
-13.3599

>  <SCORE.INTER>
-2.32239

>  <SCORE.INTER.CONST>
1

>  <SCORE.INTER.POLAR>
0

>  <SCORE.INTER.ROT>
9

>  <SCORE.INTER.SOLV>
16.6997

>  <SCORE.INTER.VDW>
-16.7148

>  <SCORE.INTER.norm>
-0.178646

>  <SCORE.INTRA>
-11.0375

>  <SCORE.INTRA.DIHEDRAL>
-27.862

>  <SCORE.INTRA.DIHEDRAL.0>
31.9578

>  <SCORE.INTRA.POLAR>
0

>  <SCORE.INTRA.POLAR.0>
0

>  <SCORE.INTRA.REPUL>
0

>  <SCORE.INTRA.REPUL.0>
0

>  <SCORE.INTRA.SOLV>
-0.988145

>  <SCORE.INTRA.SOLV.lig_0>
-48.4032

>  <SCORE.INTRA.VDW>
3.38759

>  <SCORE.INTRA.VDW.0>
-1.65238

>  <SCORE.INTRA.norm>
-0.849038

>  <SCORE.RESTR>
0

>  <SCORE.RESTR.CAVITY>
0

>  <SCORE.RESTR.norm>
0

>  <SCORE.SYSTEM>
0

>  <SCORE.SYSTEM.CONST>
0

>  <SCORE.SYSTEM.DIHEDRAL>
0

>  <SCORE.SYSTEM.SOLV>
0

>  <SCORE.SYSTEM.norm>
0

>  <SCORE.heavy>
13

>  <SCORE.norm>
-1.02768

>  <RMSD>
22.157

$$$$
ligand
 OpenBabel11021811473D
libRbt.so/2013.1/901 2013/11/27
 13 12  0  0  0  0  0  0  0  0999 V2000
   26.5942   13.6783   43.6321 O   0  0  0  0  0  0  0  0  0  0  0  0
   29.4782   14.3240   43.7460 O   0  0  0  0  0  0  0  0  0  0  0  0
   22.7223   16.0386   43.6507 P   0  0  1  0  0  0  0  0  0  0  0  0
   21.2203   16.0640   43.7161 O   0  5  0  0  0  0  0  0  0  0  0  0
   23.6740   16.7863   44.4432 O   0  0  0  0  0  0  0  0  0  0  0  0
   23.0467   14.5366   43.1586 O   0  0  0  0  0  0  0  0  0  0  0  0
   31.5997   12.6759   45.0244 O   0  0  0  0  0  0  0  0  0  0  0  0
   24.3835   14.1236   42.8009 C   0  0  0  0  0  0  0  0  0  0  0  0
   28.8940   13.1356   44.3137 C   0  0  0  0  0  0  0  0  0  0  0  0
   31.8095   13.9358   44.3626 C   0  0  0  0  0  0  0  0  0  0  0  0
   25.2822   14.0688   44.0451 C   0  0  0  0  0  0  0  0  0  0  0  0
   27.4421   13.4155   44.7668 C   0  0  0  0  0  0  0  0  0  0  0  0
   30.7939   14.1028   43.2081 C   0  0  0  0  0  0  0  0  0  0  0  0
  1 12  1  0  0  0  0
  1 11  1  0  0  0  0
  2 13  1  0  0  0  0
  2  9  1  0  0  0  0
  3  4  1  1  0  0  0
  3  5  2  0  0  0  0
  3  6  1  0  0  0  0
  6  8  1  0  0  0  0
  7 10  1  0  0  0  0
  8 11  1  0  0  0  0
  9 12  1  0  0  0  0
 10 13  1  0  0  0  0
M  CHG  1   4  -1
M  END
>  <CHROM.1>
-174.20821058,-73.27341924,172.20242216,69.25461666,-179.02647172,-175.39097570
66.81353975,71.10096771,-171.53786970,26.32726069,14.52621253,43.89416994
0.25506503,0.11511751,-2.99273416

>  <Name>
ligand

>  <RI>
0

>  <Rbt.Current_Directory>
/home/itssahil/PROJECTS/Mol_Feturizer/New_Systems/rnas/3GS8

>  <Rbt.Executable>
rbdock ($Id: //depot/dev/client3/rdock/2013.1/src/exe/rbdock.cxx#4 $)

>  <Rbt.Library>
libRbt.so (2013.1, Build901 2013/11/27)

>  <Rbt.Parameter_File>
/export/apps/rDock/src/rDock_2013.1_src/data/scripts/dock_solv.prm

>  <Rbt.Receptor>
prm/blind_docking_60.prm

>  <SCORE>
-14.7444

>  <SCORE.INTER>
-1.86693

>  <SCORE.INTER.CONST>
1

>  <SCORE.INTER.POLAR>
0

>  <SCORE.INTER.ROT>
9

>  <SCORE.INTER.SOLV>
17.7586

>  <SCORE.INTER.VDW>
-16.7641

>  <SCORE.INTER.norm>
-0.14361

>  <SCORE.INTRA>
-12.8775

>  <SCORE.INTRA.DIHEDRAL>
-29.127

>  <SCORE.INTRA.DIHEDRAL.0>
31.9578

>  <SCORE.INTRA.POLAR>
0

>  <SCORE.INTRA.POLAR.0>
0

>  <SCORE.INTRA.REPUL>
0

>  <SCORE.INTRA.REPUL.0>
0

>  <SCORE.INTRA.SOLV>
0.252507

>  <SCORE.INTRA.SOLV.lig_0>
-48.4032

>  <SCORE.INTRA.VDW>
1.55973

>  <SCORE.INTRA.VDW.0>
-1.65238

>  <SCORE.INTRA.norm>
-0.990578

>  <SCORE.RESTR>
0

>  <SCORE.RESTR.CAVITY>
0

>  <SCORE.RESTR.norm>
0

>  <SCORE.SYSTEM>
0

>  <SCORE.SYSTEM.CONST>
0

>  <SCORE.SYSTEM.DIHEDRAL>
0

>  <SCORE.SYSTEM.SOLV>
0

>  <SCORE.SYSTEM.norm>
0

>  <SCORE.heavy>
13

>  <SCORE.norm>
-1.13419

>  <RMSD>
22.164

$$$$
ligand
 OpenBabel11021811473D
libRbt.so/2013.1/901 2013/11/27
 13 12  0  0  0  0  0  0  0  0999 V2000
   27.9079   12.9736   44.2602 O   0  0  0  0  0  0  0  0  0  0  0  0
   24.3925   14.1296   43.9045 O   0  0  0  0  0  0  0  0  0  0  0  0
   31.9908   11.8267   43.8632 P   0  0  1  0  0  0  0  0  0  0  0  0
   32.3392   10.9795   45.0556 O   0  5  0  0  0  0  0  0  0  0  0  0
   32.2316   11.5577   42.4623 O   0  0  0  0  0  0  0  0  0  0  0  0
   30.6694   12.6180   44.3439 O   0  0  0  0  0  0  0  0  0  0  0  0
   22.3760   16.1565   44.1218 O   0  0  0  0  0  0  0  0  0  0  0  0
   30.0940   13.6869   43.5616 C   0  0  0  0  0  0  0  0  0  0  0  0
   25.7147   13.7570   43.4700 C   0  0  0  0  0  0  0  0  0  0  0  0
   22.1582   14.9542   43.3624 C   0  0  0  0  0  0  0  0  0  0  0  0
   28.7477   14.1260   44.1560 C   0  0  0  0  0  0  0  0  0  0  0  0
   26.5779   13.3334   44.6812 C   0  0  0  0  0  0  0  0  0  0  0  0
   23.5033   14.4243   42.8129 C   0  0  0  0  0  0  0  0  0  0  0  0
  1 12  1  0  0  0  0
  1 11  1  0  0  0  0
  2 13  1  0  0  0  0
  2  9  1  0  0  0  0
  3  4  1  1  0  0  0
  3  5  2  0  0  0  0
  3  6  1  0  0  0  0
  6  8  1  0  0  0  0
  7 10  1  0  0  0  0
  8 11  1  0  0  0  0
  9 12  1  0  0  0  0
 10 13  1  0  0  0  0
M  CHG  1   4  -1
M  END
>  <CHROM.1>
84.83056306,-174.16469903,171.54406693,172.31540400,-54.86540555,-174.96838609
-179.31809433,60.25935381,-174.00267469,27.98634568,13.27665054,43.86122528
0.02782481,-0.34450031,1.57222199

>  <Name>
ligand

>  <RI>
0

>  <Rbt.Current_Directory>
/home/itssahil/PROJECTS/Mol_Feturizer/New_Systems/rnas/3GS8

>  <Rbt.Executable>
rbdock ($Id: //depot/dev/client3/rdock/2013.1/src/exe/rbdock.cxx#4 $)

>  <Rbt.Library>
libRbt.so (2013.1, Build901 2013/11/27)

>  <Rbt.Parameter_File>
/export/apps/rDock/src/rDock_2013.1_src/data/scripts/dock_solv.prm

>  <Rbt.Receptor>
prm/blind_docking_60.prm

>  <SCORE>
-12.5206

>  <SCORE.INTER>
1.55619

>  <SCORE.INTER.CONST>
1

>  <SCORE.INTER.POLAR>
0

>  <SCORE.INTER.ROT>
9

>  <SCORE.INTER.SOLV>
14.5675

>  <SCORE.INTER.VDW>
-13.4184

>  <SCORE.INTER.norm>
0.119707

>  <SCORE.INTRA>
-14.0768

>  <SCORE.INTRA.DIHEDRAL>
-28.1378

>  <SCORE.INTRA.DIHEDRAL.0>
31.9578

>  <SCORE.INTRA.POLAR>
0

>  <SCORE.INTRA.POLAR.0>
0

>  <SCORE.INTRA.REPUL>
0

>  <SCORE.INTRA.REPUL.0>
0

>  <SCORE.INTRA.SOLV>
-1.44998

>  <SCORE.INTRA.SOLV.lig_0>
-48.4032

>  <SCORE.INTRA.VDW>
0.717075

>  <SCORE.INTRA.VDW.0>
-1.65238

>  <SCORE.INTRA.norm>
-1.08283

>  <SCORE.RESTR>
0

>  <SCORE.RESTR.CAVITY>
0

>  <SCORE.RESTR.norm>
0

>  <SCORE.SYSTEM>
0

>  <SCORE.SYSTEM.CONST>
0

>  <SCORE.SYSTEM.DIHEDRAL>
0

>  <SCORE.SYSTEM.SOLV>
0

>  <SCORE.SYSTEM.norm>
0

>  <SCORE.heavy>
13

>  <SCORE.norm>
-0.963125

>  <RMSD>
22.186

$$$$
ligand
 OpenBabel11021811473D
libRbt.so/2013.1/901 2013/11/27
 13 12  0  0  0  0  0  0  0  0999 V2000
   29.2837   14.3489   43.9953 O   0  0  0  0  0  0  0  0  0  0  0  0
   32.5753   14.9437   43.1368 O   0  0  0  0  0  0  0  0  0  0  0  0
   24.9718   14.2139   43.3096 P   0  0  1  0  0  0  0  0  0  0  0  0
   25.0805   13.1054   42.2996 O   0  5  0  0  0  0  0  0  0  0  0  0
   23.8392   14.5789   44.1323 O   0  0  0  0  0  0  0  0  0  0  0  0
   26.4819   14.3660   43.8572 O   0  0  0  0  0  0  0  0  0  0  0  0
   33.4953   11.4075   42.9861 O   0  0  0  0  0  0  0  0  0  0  0  0
   27.1915   13.2588   44.4540 C   0  0  0  0  0  0  0  0  0  0  0  0
   31.3094   15.5929   43.3649 C   0  0  0  0  0  0  0  0  0  0  0  0
   33.7580   12.8195   42.9029 C   0  0  0  0  0  0  0  0  0  0  0  0
   28.5304   13.7297   45.0410 C   0  0  0  0  0  0  0  0  0  0  0  0
   30.5317   14.8715   44.4903 C   0  0  0  0  0  0  0  0  0  0  0  0
   32.4378   13.5905   42.6687 C   0  0  0  0  0  0  0  0  0  0  0  0
  1 12  1  0  0  0  0
  1 11  1  0  0  0  0
  2 13  1  0  0  0  0
  2  9  1  0  0  0  0
  3  4  1  1  0  0  0
  3  5  2  0  0  0  0
  3  6  1  0  0  0  0
  6  8  1  0  0  0  0
  7 10  1  0  0  0  0
  8 11  1  0  0  0  0
  9 12  1  0  0  0  0
 10 13  1  0  0  0  0
M  CHG  1   4  -1
M  END
>  <CHROM.1>
-177.51086918,-160.87704590,-57.47347374,-172.87721861,-56.94305701,63.44694286
-118.63581435,155.74411246,177.35445889,28.81155590,13.92758114,43.55483081
-0.09227453,0.02106890,0.35923393

>  <Name>
ligand

>  <RI>
0

>  <Rbt.Current_Directory>
/home/itssahil/PROJECTS/Mol_Feturizer/New_Systems/rnas/3GS8

>  <Rbt.Executable>
rbdock ($Id: //depot/dev/client3/rdock/2013.1/src/exe/rbdock.cxx#4 $)

>  <Rbt.Library>
libRbt.so (2013.1, Build901 2013/11/27)

>  <Rbt.Parameter_File>
/export/apps/rDock/src/rDock_2013.1_src/data/scripts/dock_solv.prm

>  <Rbt.Receptor>
prm/blind_docking_60.prm

>  <SCORE>
-11.2064

>  <SCORE.INTER>
-1.18622

>  <SCORE.INTER.CONST>
1

>  <SCORE.INTER.POLAR>
0

>  <SCORE.INTER.ROT>
9

>  <SCORE.INTER.SOLV>
13.6851

>  <SCORE.INTER.VDW>
-14.9525

>  <SCORE.INTER.norm>
-0.0912475

>  <SCORE.INTRA>
-10.025

>  <SCORE.INTRA.DIHEDRAL>
-21.9188

>  <SCORE.INTRA.DIHEDRAL.0>
31.9578

>  <SCORE.INTRA.POLAR>
0

>  <SCORE.INTRA.POLAR.0>
0

>  <SCORE.INTRA.REPUL>
0

>  <SCORE.INTRA.REPUL.0>
0

>  <SCORE.INTRA.SOLV>
-1.38041

>  <SCORE.INTRA.SOLV.lig_0>
-48.4032

>  <SCORE.INTRA.VDW>
1.62458

>  <SCORE.INTRA.VDW.0>
-1.65238

>  <SCORE.INTRA.norm>
-0.771155

>  <SCORE.RESTR>
0.00483088

>  <SCORE.RESTR.CAVITY>
0.00483088

>  <SCORE.RESTR.norm>
0.000371606

>  <SCORE.SYSTEM>
0

>  <SCORE.SYSTEM.CONST>
0

>  <SCORE.SYSTEM.DIHEDRAL>
0

>  <SCORE.SYSTEM.SOLV>
0

>  <SCORE.SYSTEM.norm>
0

>  <SCORE.heavy>
13

>  <SCORE.norm>
-0.862031

>  <RMSD>
22.192

$$$$
ligand
 OpenBabel11021811473D
libRbt.so/2013.1/901 2013/11/27
 13 12  0  0  0  0  0  0  0  0999 V2000
   29.8973   14.0394   44.3990 O   0  0  0  0  0  0  0  0  0  0  0  0
   32.1470   13.5625   42.4674 O   0  0  0  0  0  0  0  0  0  0  0  0
   24.9766   13.7982   43.1893 P   0  0  1  0  0  0  0  0  0  0  0  0
   24.4918   14.6386   44.3381 O   0  5  0  0  0  0  0  0  0  0  0  0
   24.7389   13.9793   41.7738 O   0  0  0  0  0  0  0  0  0  0  0  0
   26.3762   13.2042   43.7291 O   0  0  0  0  0  0  0  0  0  0  0  0
   33.2772   16.2068   41.7095 O   0  0  0  0  0  0  0  0  0  0  0  0
   27.5589   14.0249   43.8444 C   0  0  0  0  0  0  0  0  0  0  0  0
   31.6073   12.5916   43.3850 C   0  0  0  0  0  0  0  0  0  0  0  0
   34.0122   14.9711   41.7583 C   0  0  0  0  0  0  0  0  0  0  0  0
   28.7665   13.1747   44.2657 C   0  0  0  0  0  0  0  0  0  0  0  0
   31.0984   13.2904   44.6674 C   0  0  0  0  0  0  0  0  0  0  0  0
   33.4378   14.0569   42.8658 C   0  0  0  0  0  0  0  0  0  0  0  0
  1 12  1  0  0  0  0
  1 11  1  0  0  0  0
  2 13  1  0  0  0  0
  2  9  1  0  0  0  0
  3  4  1  1  0  0  0
  3  5  2  0  0  0  0
  3  6  1  0  0  0  0
  6  8  1  0  0  0  0
  7 10  1  0  0  0  0
  8 11  1  0  0  0  0
  9 12  1  0  0  0  0
 10 13  1  0  0  0  0
M  CHG  1   4  -1
M  END
>  <CHROM.1>
75.45289749,173.88101950,-73.41614209,-175.09234409,-178.48217357,74.86239949
71.39802411,70.97043571,-174.43333818,29.00617478,13.96839758,43.24449692
-0.11444913,-0.00725601,2.22947204

>  <Name>
ligand

>  <RI>
0

>  <Rbt.Current_Directory>
/home/itssahil/PROJECTS/Mol_Feturizer/New_Systems/rnas/3GS8

>  <Rbt.Executable>
rbdock ($Id: //depot/dev/client3/rdock/2013.1/src/exe/rbdock.cxx#4 $)

>  <Rbt.Library>
libRbt.so (2013.1, Build901 2013/11/27)

>  <Rbt.Parameter_File>
/export/apps/rDock/src/rDock_2013.1_src/data/scripts/dock_solv.prm

>  <Rbt.Receptor>
prm/blind_docking_60.prm

>  <SCORE>
-14.1455

>  <SCORE.INTER>
-1.18225

>  <SCORE.INTER.CONST>
1

>  <SCORE.INTER.POLAR>
0

>  <SCORE.INTER.ROT>
9

>  <SCORE.INTER.SOLV>
15.0077

>  <SCORE.INTER.VDW>
-15.3907

>  <SCORE.INTER.norm>
-0.0909424

>  <SCORE.INTRA>
-12.9674

>  <SCORE.INTRA.DIHEDRAL>
-28.136

>  <SCORE.INTRA.DIHEDRAL.0>
31.9578

>  <SCORE.INTRA.POLAR>
0

>  <SCORE.INTRA.POLAR.0>
0

>  <SCORE.INTRA.REPUL>
0

>  <SCORE.INTRA.REPUL.0>
0

>  <SCORE.INTRA.SOLV>
-1.23817

>  <SCORE.INTRA.SOLV.lig_0>
-48.4032

>  <SCORE.INTRA.VDW>
1.71973

>  <SCORE.INTRA.VDW.0>
-1.65238

>  <SCORE.INTRA.norm>
-0.99749

>  <SCORE.RESTR>
0.00415245

>  <SCORE.RESTR.CAVITY>
0.00415245

>  <SCORE.RESTR.norm>
0.000319419

>  <SCORE.SYSTEM>
0

>  <SCORE.SYSTEM.CONST>
0

>  <SCORE.SYSTEM.DIHEDRAL>
0

>  <SCORE.SYSTEM.SOLV>
0

>  <SCORE.SYSTEM.norm>
0

>  <SCORE.heavy>
13

>  <SCORE.norm>
-1.08811

>  <RMSD>
22.207

$$$$
ligand
 OpenBabel11021811473D
libRbt.so/2013.1/901 2013/11/27
 13 12  0  0  0  0  0  0  0  0999 V2000
   28.9398   12.2235   43.8935 O   0  0  0  0  0  0  0  0  0  0  0  0
   32.0146   13.4261   42.1850 O   0  0  0  0  0  0  0  0  0  0  0  0
   24.9304   14.1776   43.4233 P   0  0  1  0  0  0  0  0  0  0  0  0
   24.3937   12.9347   42.7689 O   0  5  0  0  0  0  0  0  0  0  0  0
   24.2523   15.0955   44.3124 O   0  0  0  0  0  0  0  0  0  0  0  0
   26.5013   13.8549   43.6000 O   0  0  0  0  0  0  0  0  0  0  0  0
   31.1759   15.9008   43.5918 O   0  0  0  0  0  0  0  0  0  0  0  0
   27.0413   13.3520   44.8414 C   0  0  0  0  0  0  0  0  0  0  0  0
   30.6076   13.3595   42.4878 C   0  0  0  0  0  0  0  0  0  0  0  0
   32.5131   15.6164   43.1441 C   0  0  0  0  0  0  0  0  0  0  0  0
   28.5744   13.2875   44.7759 C   0  0  0  0  0  0  0  0  0  0  0  0
   30.3405   12.2787   43.5612 C   0  0  0  0  0  0  0  0  0  0  0  0
   32.7789   14.0940   43.2043 C   0  0  0  0  0  0  0  0  0  0  0  0
  1 12  1  0  0  0  0
  1 11  1  0  0  0  0
  2 13  1  0  0  0  0
  2  9  1  0  0  0  0
  3  4  1  1  0  0  0
  3  5  2  0  0  0  0
  3  6  1  0  0  0  0
  6  8  1  0  0  0  0
  7 10  1  0  0  0  0
  8 11  1  0  0  0  0
  9 12  1  0  0  0  0
 10 13  1  0  0  0  0
M  CHG  1   4  -1
M  END
>  <CHROM.1>
-78.33760853,-73.46622466,-96.83520329,-173.57958886,-71.26807794,-75.82490714
178.73478532,70.35420992,167.84581770,28.41546470,13.84961859,43.50701936
-0.02877374,-0.08876015,-3.07548654

>  <Name>
ligand

>  <RI>
0

>  <Rbt.Current_Directory>
/home/itssahil/PROJECTS/Mol_Feturizer/New_Systems/rnas/3GS8

>  <Rbt.Executable>
rbdock ($Id: //depot/dev/client3/rdock/2013.1/src/exe/rbdock.cxx#4 $)

>  <Rbt.Library>
libRbt.so (2013.1, Build901 2013/11/27)

>  <Rbt.Parameter_File>
/export/apps/rDock/src/rDock_2013.1_src/data/scripts/dock_solv.prm

>  <Rbt.Receptor>
prm/blind_docking_60.prm

>  <SCORE>
-12.711

>  <SCORE.INTER>
-1.74428

>  <SCORE.INTER.CONST>
1

>  <SCORE.INTER.POLAR>
0

>  <SCORE.INTER.ROT>
9

>  <SCORE.INTER.SOLV>
13.6835

>  <SCORE.INTER.VDW>
-15.324

>  <SCORE.INTER.norm>
-0.134176

>  <SCORE.INTRA>
-10.9667

>  <SCORE.INTRA.DIHEDRAL>
-26.0744

>  <SCORE.INTRA.DIHEDRAL.0>
31.9578

>  <SCORE.INTRA.POLAR>
0

>  <SCORE.INTRA.POLAR.0>
0

>  <SCORE.INTRA.REPUL>
0

>  <SCORE.INTRA.REPUL.0>
0

>  <SCORE.INTRA.SOLV>
-0.922384

>  <SCORE.INTRA.SOLV.lig_0>
-48.4032

>  <SCORE.INTRA.VDW>
2.53166

>  <SCORE.INTRA.VDW.0>
-1.65238

>  <SCORE.INTRA.norm>
-0.843593

>  <SCORE.RESTR>
0

>  <SCORE.RESTR.CAVITY>
0

>  <SCORE.RESTR.norm>
0

>  <SCORE.SYSTEM>
0

>  <SCORE.SYSTEM.CONST>
0

>  <SCORE.SYSTEM.DIHEDRAL>
0

>  <SCORE.SYSTEM.SOLV>
0

>  <SCORE.SYSTEM.norm>
0

>  <SCORE.heavy>
13

>  <SCORE.norm>
-0.977769

>  <RMSD>
22.229

$$$$
ligand
 OpenBabel11021811473D
libRbt.so/2013.1/901 2013/11/27
 13 12  0  0  0  0  0  0  0  0999 V2000
   27.4723   14.0517   44.2261 O   0  0  0  0  0  0  0  0  0  0  0  0
   24.7607   13.8600   43.3280 O   0  0  0  0  0  0  0  0  0  0  0  0
   31.3672   11.9625   43.0655 P   0  0  1  0  0  0  0  0  0  0  0  0
   32.3829   12.2144   44.1453 O   0  5  0  0  0  0  0  0  0  0  0  0
   31.4101   10.9924   41.9933 O   0  0  0  0  0  0  0  0  0  0  0  0
   29.9717   12.3663   43.7676 O   0  0  0  0  0  0  0  0  0  0  0  0
   23.0604   16.1028   43.9838 O   0  0  0  0  0  0  0  0  0  0  0  0
   29.8167   13.6002   44.5019 C   0  0  0  0  0  0  0  0  0  0  0  0
   25.8408   13.3379   42.5300 C   0  0  0  0  0  0  0  0  0  0  0  0
   22.5403   14.8698   43.4557 C   0  0  0  0  0  0  0  0  0  0  0  0
   28.4458   13.6483   45.1925 C   0  0  0  0  0  0  0  0  0  0  0  0
   27.0285   12.9332   43.4340 C   0  0  0  0  0  0  0  0  0  0  0  0
   23.5972   14.1941   42.5509 C   0  0  0  0  0  0  0  0  0  0  0  0
  1 12  1  0  0  0  0
  1 11  1  0  0  0  0
  2 13  1  0  0  0  0
  2  9  1  0  0  0  0
  3  4  1  1  0  0  0
  3  5  2  0  0  0  0
  3  6  1  0  0  0  0
  6  8  1  0  0  0  0
  7 10  1  0  0  0  0
  8 11  1  0  0  0  0
  9 12  1  0  0  0  0
 10 13  1  0  0  0  0
M  CHG  1   4  -1
M  END
>  <CHROM.1>
172.15825291,-174.60924800,47.62751148,-173.52761108,-80.98801896,-177.09942412
-56.97152832,62.56954558,82.87289375,27.86126821,13.27261924,43.51410167
-2.93384884,0.27702430,-2.21404777

>  <Name>
ligand

>  <RI>
0

>  <Rbt.Current_Directory>
/home/itssahil/PROJECTS/Mol_Feturizer/New_Systems/rnas/3GS8

>  <Rbt.Executable>
rbdock ($Id: //depot/dev/client3/rdock/2013.1/src/exe/rbdock.cxx#4 $)

>  <Rbt.Library>
libRbt.so (2013.1, Build901 2013/11/27)

>  <Rbt.Parameter_File>
/export/apps/rDock/src/rDock_2013.1_src/data/scripts/dock_solv.prm

>  <Rbt.Receptor>
prm/blind_docking_60.prm

>  <SCORE>
-13.0132

>  <SCORE.INTER>
0.0546104

>  <SCORE.INTER.CONST>
1

>  <SCORE.INTER.POLAR>
0

>  <SCORE.INTER.ROT>
9

>  <SCORE.INTER.SOLV>
8.33935

>  <SCORE.INTER.VDW>
-12.3434

>  <SCORE.INTER.norm>
0.0042008

>  <SCORE.INTRA>
-13.07

>  <SCORE.INTRA.DIHEDRAL>
-27.1239

>  <SCORE.INTRA.DIHEDRAL.0>
31.9578

>  <SCORE.INTRA.POLAR>
0

>  <SCORE.INTRA.POLAR.0>
0

>  <SCORE.INTRA.REPUL>
0

>  <SCORE.INTRA.REPUL.0>
0

>  <SCORE.INTRA.SOLV>
-0.991687

>  <SCORE.INTRA.SOLV.lig_0>
-48.4032

>  <SCORE.INTRA.VDW>
0.987802

>  <SCORE.INTRA.VDW.0>
-1.65238

>  <SCORE.INTRA.norm>
-1.00538

>  <SCORE.RESTR>
0.00216393

>  <SCORE.RESTR.CAVITY>
0.00216393

>  <SCORE.RESTR.norm>
0.000166456

>  <SCORE.SYSTEM>
0

>  <SCORE.SYSTEM.CONST>
0

>  <SCORE.SYSTEM.DIHEDRAL>
0

>  <SCORE.SYSTEM.SOLV>
0

>  <SCORE.SYSTEM.norm>
0

>  <SCORE.heavy>
13

>  <SCORE.norm>
-1.00102

>  <RMSD>
22.254

$$$$
ligand
 OpenBabel11021811473D
libRbt.so/2013.1/901 2013/11/27
 13 12  0  0  0  0  0  0  0  0999 V2000
   26.1294   13.7015   44.0481 O   0  0  0  0  0  0  0  0  0  0  0  0
   29.7625   13.7860   44.7221 O   0  0  0  0  0  0  0  0  0  0  0  0
   22.4763   16.1821   43.8197 P   0  0  1  0  0  0  0  0  0  0  0  0
   22.9267   17.5053   44.3741 O   0  5  0  0  0  0  0  0  0  0  0  0
   21.2827   15.8798   43.0603 O   0  0  0  0  0  0  0  0  0  0  0  0
   23.8631   15.4084   43.5341 O   0  0  0  0  0  0  0  0  0  0  0  0
   32.1075   14.0335   43.1133 O   0  0  0  0  0  0  0  0  0  0  0  0
   23.8982   14.0022   43.2070 C   0  0  0  0  0  0  0  0  0  0  0  0
   28.3730   13.5907   45.0491 C   0  0  0  0  0  0  0  0  0  0  0  0
   31.8812   12.8679   43.9256 C   0  0  0  0  0  0  0  0  0  0  0  0
   25.3306   13.5622   42.8704 C   0  0  0  0  0  0  0  0  0  0  0  0
   27.5260   13.4985   43.7585 C   0  0  0  0  0  0  0  0  0  0  0  0
   30.3628   12.6340   44.1042 C   0  0  0  0  0  0  0  0  0  0  0  0
  1 12  1  0  0  0  0
  1 11  1  0  0  0  0
  2 13  1  0  0  0  0
  2  9  1  0  0  0  0
  3  4  1  6  0  0  0
  3  5  2  0  0  0  0
  3  6  1  0  0  0  0
  6  8  1  0  0  0  0
  7 10  1  0  0  0  0
  8 11  1  0  0  0  0
  9 12  1  0  0  0  0
 10 13  1  0  0  0  0
M  CHG  1   4  -1
M  END
>  <CHROM.1>
-177.54503857,-173.92891677,169.13084860,175.17613344,64.87651173,-68.70770455
-162.95299642,-58.92718661,-171.36203822,26.24400581,14.54320751,43.81447038
0.29145467,0.12935661,-2.86312287

>  <Name>
ligand

>  <RI>
0

>  <Rbt.Current_Directory>
/home/itssahil/PROJECTS/Mol_Feturizer/New_Systems/rnas/3GS8

>  <Rbt.Executable>
rbdock ($Id: //depot/dev/client3/rdock/2013.1/src/exe/rbdock.cxx#4 $)

>  <Rbt.Library>
libRbt.so (2013.1, Build901 2013/11/27)

>  <Rbt.Parameter_File>
/export/apps/rDock/src/rDock_2013.1_src/data/scripts/dock_solv.prm

>  <Rbt.Receptor>
prm/blind_docking_60.prm

>  <SCORE>
-15.901

>  <SCORE.INTER>
-1.63334

>  <SCORE.INTER.CONST>
1

>  <SCORE.INTER.POLAR>
0

>  <SCORE.INTER.ROT>
9

>  <SCORE.INTER.SOLV>
18.9105

>  <SCORE.INTER.VDW>
-16.9924

>  <SCORE.INTER.norm>
-0.125641

>  <SCORE.INTRA>
-14.2676

>  <SCORE.INTRA.DIHEDRAL>
-29.4777

>  <SCORE.INTRA.DIHEDRAL.0>
31.9578

>  <SCORE.INTRA.POLAR>
0

>  <SCORE.INTRA.POLAR.0>
0

>  <SCORE.INTRA.REPUL>
0

>  <SCORE.INTRA.REPUL.0>
0

>  <SCORE.INTRA.SOLV>
-1.6037

>  <SCORE.INTRA.SOLV.lig_0>
-48.4032

>  <SCORE.INTRA.VDW>
1.27308

>  <SCORE.INTRA.VDW.0>
-1.65238

>  <SCORE.INTRA.norm>
-1.09751

>  <SCORE.RESTR>
0

>  <SCORE.RESTR.CAVITY>
0

>  <SCORE.RESTR.norm>
0

>  <SCORE.SYSTEM>
0

>  <SCORE.SYSTEM.CONST>
0

>  <SCORE.SYSTEM.DIHEDRAL>
0

>  <SCORE.SYSTEM.SOLV>
0

>  <SCORE.SYSTEM.norm>
0

>  <SCORE.heavy>
13

>  <SCORE.norm>
-1.22315

>  <RMSD>
22.305

$$$$
ligand
 OpenBabel11021811473D
libRbt.so/2013.1/901 2013/11/27
 13 12  0  0  0  0  0  0  0  0999 V2000
   27.9451   13.3929   43.7522 O   0  0  0  0  0  0  0  0  0  0  0  0
   30.8896   14.1451   43.8182 O   0  0  0  0  0  0  0  0  0  0  0  0
   23.4584   14.3704   43.3687 P   0  0  1  0  0  0  0  0  0  0  0  0
   24.0821   14.9345   44.6152 O   0  5  0  0  0  0  0  0  0  0  0  0
   22.7757   15.0714   42.3031 O   0  0  0  0  0  0  0  0  0  0  0  0
   24.3534   13.0627   43.0654 O   0  0  0  0  0  0  0  0  0  0  0  0
   32.9593   14.4285   41.5610 O   0  0  0  0  0  0  0  0  0  0  0  0
   25.7641   13.1560   42.7706 C   0  0  0  0  0  0  0  0  0  0  0  0
   30.2076   13.2353   44.7030 C   0  0  0  0  0  0  0  0  0  0  0  0
   32.9740   15.0049   42.8790 C   0  0  0  0  0  0  0  0  0  0  0  0
   26.5517   13.5615   44.0252 C   0  0  0  0  0  0  0  0  0  0  0  0
   28.7440   13.6881   44.9141 C   0  0  0  0  0  0  0  0  0  0  0  0
   32.3219   14.0321   43.8893 C   0  0  0  0  0  0  0  0  0  0  0  0
  1 12  1  0  0  0  0
  1 11  1  0  0  0  0
  2 13  1  0  0  0  0
  2  9  1  0  0  0  0
  3  4  1  6  0  0  0
  3  5  2  0  0  0  0
  3  6  1  0  0  0  0
  6  8  1  0  0  0  0
  7 10  1  0  0  0  0
  8 11  1  0  0  0  0
  9 12  1  0  0  0  0
 10 13  1  0  0  0  0
M  CHG  1   4  -1
M  END
>  <CHROM.1>
168.61655733,178.11363625,-62.51234290,70.26578593,169.14500713,162.42042802
75.03521089,-80.90982451,-176.91907736,27.52415787,14.04495341,43.48280318
-0.00546427,-0.00961679,1.93649010

>  <Name>
ligand

>  <RI>
0

>  <Rbt.Current_Directory>
/home/itssahil/PROJECTS/Mol_Feturizer/New_Systems/rnas/3GS8

>  <Rbt.Executable>
rbdock ($Id: //depot/dev/client3/rdock/2013.1/src/exe/rbdock.cxx#4 $)

>  <Rbt.Library>
libRbt.so (2013.1, Build901 2013/11/27)

>  <Rbt.Parameter_File>
/export/apps/rDock/src/rDock_2013.1_src/data/scripts/dock_solv.prm

>  <Rbt.Receptor>
prm/blind_docking_60.prm

>  <SCORE>
-13.4332

>  <SCORE.INTER>
-1.14927

>  <SCORE.INTER.CONST>
1

>  <SCORE.INTER.POLAR>
0

>  <SCORE.INTER.ROT>
9

>  <SCORE.INTER.SOLV>
13.8503

>  <SCORE.INTER.VDW>
-14.9829

>  <SCORE.INTER.norm>
-0.0884052

>  <SCORE.INTRA>
-12.2839

>  <SCORE.INTRA.DIHEDRAL>
-26.1887

>  <SCORE.INTRA.DIHEDRAL.0>
31.9578

>  <SCORE.INTRA.POLAR>
0

>  <SCORE.INTRA.POLAR.0>
0

>  <SCORE.INTRA.REPUL>
0

>  <SCORE.INTRA.REPUL.0>
0

>  <SCORE.INTRA.SOLV>
0.274788

>  <SCORE.INTRA.SOLV.lig_0>
-48.4032

>  <SCORE.INTRA.VDW>
0.673032

>  <SCORE.INTRA.VDW.0>
-1.65238

>  <SCORE.INTRA.norm>
-0.944915

>  <SCORE.RESTR>
0

>  <SCORE.RESTR.CAVITY>
0

>  <SCORE.RESTR.norm>
0

>  <SCORE.SYSTEM>
0

>  <SCORE.SYSTEM.CONST>
0

>  <SCORE.SYSTEM.DIHEDRAL>
0

>  <SCORE.SYSTEM.SOLV>
0

>  <SCORE.SYSTEM.norm>
0

>  <SCORE.heavy>
13

>  <SCORE.norm>
-1.03332

>  <RMSD>
22.350

$$$$
ligand
 OpenBabel11021811473D
libRbt.so/2013.1/901 2013/11/27
 13 12  0  0  0  0  0  0  0  0999 V2000
   32.4298   19.1351   63.1729 O   0  0  0  0  0  0  0  0  0  0  0  0
   30.0275   16.3572   63.7498 O   0  0  0  0  0  0  0  0  0  0  0  0
   34.8412   23.3791   61.7922 P   0  0  1  0  0  0  0  0  0  0  0  0
   35.6096   23.4727   63.0813 O   0  5  0  0  0  0  0  0  0  0  0  0
   35.3462   23.3884   60.4365 O   0  0  0  0  0  0  0  0  0  0  0  0
   33.5496   22.4994   62.1934 O   0  0  0  0  0  0  0  0  0  0  0  0
   28.2784   14.7910   65.4172 O   0  0  0  0  0  0  0  0  0  0  0  0
   33.6598   21.1074   62.5620 C   0  0  0  0  0  0  0  0  0  0  0  0
   31.3109   16.9748   63.5325 C   0  0  0  0  0  0  0  0  0  0  0  0
   28.6978   14.3414   64.1166 C   0  0  0  0  0  0  0  0  0  0  0  0
   32.2831   20.5371   62.9336 C   0  0  0  0  0  0  0  0  0  0  0  0
   31.1524   18.5070   63.3944 C   0  0  0  0  0  0  0  0  0  0  0  0
   30.0921   14.9205   63.7806 C   0  0  0  0  0  0  0  0  0  0  0  0
  1 12  1  0  0  0  0
  1 11  1  0  0  0  0
  2 13  1  0  0  0  0
  2  9  1  0  0  0  0
  3  4  1  1  0  0  0
  3  5  2  0  0  0  0
  3  6  1  0  0  0  0
  6  8  1  0  0  0  0
  7 10  1  0  0  0  0
  8 11  1  0  0  0  0
  9 12  1  0  0  0  0
 10 13  1  0  0  0  0
M  CHG  1   4  -1
M  END
>  <CHROM.1>
175.18602524,176.01023616,-67.28318854,178.29073971,174.91253437,175.34446185
-179.84028104,-61.52467973,-174.13428651,32.34327746,19.56441492,62.98079152
2.94551043,-0.97115514,-2.10548721

>  <Name>
ligand

>  <RI>
0

>  <Rbt.Current_Directory>
/home/itssahil/PROJECTS/Mol_Feturizer/New_Systems/rnas/3GS8

>  <Rbt.Executable>
rbdock ($Id: //depot/dev/client3/rdock/2013.1/src/exe/rbdock.cxx#4 $)

>  <Rbt.Library>
libRbt.so (2013.1, Build901 2013/11/27)

>  <Rbt.Parameter_File>
/export/apps/rDock/src/rDock_2013.1_src/data/scripts/dock_solv.prm

>  <Rbt.Receptor>
prm/blind_docking_100.prm

>  <SCORE>
-15.1427

>  <SCORE.INTER>
0.691337

>  <SCORE.INTER.CONST>
1

>  <SCORE.INTER.POLAR>
0

>  <SCORE.INTER.ROT>
9

>  <SCORE.INTER.SOLV>
9.01283

>  <SCORE.INTER.VDW>
-12.1434

>  <SCORE.INTER.norm>
0.0531798

>  <SCORE.INTRA>
-15.834

>  <SCORE.INTRA.DIHEDRAL>
-31.0294

>  <SCORE.INTRA.DIHEDRAL.0>
31.9578

>  <SCORE.INTRA.POLAR>
0

>  <SCORE.INTRA.POLAR.0>
0

>  <SCORE.INTRA.REPUL>
0

>  <SCORE.INTRA.REPUL.0>
0

>  <SCORE.INTRA.SOLV>
-1.42066

>  <SCORE.INTRA.SOLV.lig_0>
-48.4032

>  <SCORE.INTRA.VDW>
0.39099

>  <SCORE.INTRA.VDW.0>
-1.65238

>  <SCORE.INTRA.norm>
-1.218

>  <SCORE.RESTR>
0

>  <SCORE.RESTR.CAVITY>
0

>  <SCORE.RESTR.norm>
0

>  <SCORE.SYSTEM>
0

>  <SCORE.SYSTEM.CONST>
0

>  <SCORE.SYSTEM.DIHEDRAL>
0

>  <SCORE.SYSTEM.SOLV>
0

>  <SCORE.SYSTEM.norm>
0

>  <SCORE.heavy>
13

>  <SCORE.norm>
-1.16482

>  <RMSD>
22.380

$$$$
ligand
 OpenBabel11021811473D
libRbt.so/2013.1/901 2013/11/27
 13 12  0  0  0  0  0  0  0  0999 V2000
   27.4978   14.3856   44.2967 O   0  0  0  0  0  0  0  0  0  0  0  0
   30.9603   13.1095   43.8878 O   0  0  0  0  0  0  0  0  0  0  0  0
   23.3580   15.6850   44.0569 P   0  0  1  0  0  0  0  0  0  0  0  0
   23.6080   17.0670   44.5940 O   0  5  0  0  0  0  0  0  0  0  0  0
   22.4908   15.2804   42.9719 O   0  0  0  0  0  0  0  0  0  0  0  0
   24.7501   14.9199   44.3396 O   0  0  0  0  0  0  0  0  0  0  0  0
   33.2476   11.5251   44.3992 O   0  0  0  0  0  0  0  0  0  0  0  0
   25.3067   13.9769   43.3979 C   0  0  0  0  0  0  0  0  0  0  0  0
   29.6234   13.4578   43.4786 C   0  0  0  0  0  0  0  0  0  0  0  0
   33.2326   12.4419   43.2906 C   0  0  0  0  0  0  0  0  0  0  0  0
   26.5831   13.3380   43.9648 C   0  0  0  0  0  0  0  0  0  0  0  0
   28.7726   13.8547   44.7075 C   0  0  0  0  0  0  0  0  0  0  0  0
   31.7817   12.6537   42.7985 C   0  0  0  0  0  0  0  0  0  0  0  0
  1 12  1  0  0  0  0
  1 11  1  0  0  0  0
  2 13  1  0  0  0  0
  2  9  1  0  0  0  0
  3  4  1  6  0  0  0
  3  5  2  0  0  0  0
  3  6  1  0  0  0  0
  6  8  1  0  0  0  0
  7 10  1  0  0  0  0
  8 11  1  0  0  0  0
  9 12  1  0  0  0  0
 10 13  1  0  0  0  0
M  CHG  1   4  -1
M  END
>  <CHROM.1>
80.15411871,174.15968757,-141.58513578,-176.35538076,-56.33490413,176.53236199
171.81982244,56.23922992,-174.09224108,27.39133738,14.13638327,43.88850087
-0.28600993,-0.21120901,0.68660118

>  <Name>
ligand

>  <RI>
0

>  <Rbt.Current_Directory>
/home/itssahil/PROJECTS/Mol_Feturizer/New_Systems/rnas/3GS8

>  <Rbt.Executable>
rbdock ($Id: //depot/dev/client3/rdock/2013.1/src/exe/rbdock.cxx#4 $)

>  <Rbt.Library>
libRbt.so (2013.1, Build901 2013/11/27)

>  <Rbt.Parameter_File>
/export/apps/rDock/src/rDock_2013.1_src/data/scripts/dock_solv.prm

>  <Rbt.Receptor>
prm/blind_docking_60.prm

>  <SCORE>
-13.5247

>  <SCORE.INTER>
0.283326

>  <SCORE.INTER.CONST>
1

>  <SCORE.INTER.POLAR>
0

>  <SCORE.INTER.ROT>
9

>  <SCORE.INTER.SOLV>
16.7201

>  <SCORE.INTER.VDW>
-14.9845

>  <SCORE.INTER.norm>
0.0217943

>  <SCORE.INTRA>
-13.808

>  <SCORE.INTRA.DIHEDRAL>
-28.0163

>  <SCORE.INTRA.DIHEDRAL.0>
31.9578

>  <SCORE.INTRA.POLAR>
0

>  <SCORE.INTRA.POLAR.0>
0

>  <SCORE.INTRA.REPUL>
0

>  <SCORE.INTRA.REPUL.0>
0

>  <SCORE.INTRA.SOLV>
-1.42871

>  <SCORE.INTRA.SOLV.lig_0>
-48.4032

>  <SCORE.INTRA.VDW>
0.914496

>  <SCORE.INTRA.VDW.0>
-1.65238

>  <SCORE.INTRA.norm>
-1.06215

>  <SCORE.RESTR>
0

>  <SCORE.RESTR.CAVITY>
0

>  <SCORE.RESTR.norm>
0

>  <SCORE.SYSTEM>
0

>  <SCORE.SYSTEM.CONST>
0

>  <SCORE.SYSTEM.DIHEDRAL>
0

>  <SCORE.SYSTEM.SOLV>
0

>  <SCORE.SYSTEM.norm>
0

>  <SCORE.heavy>
13

>  <SCORE.norm>
-1.04036

>  <RMSD>
22.461

$$$$
ligand
 OpenBabel11021811473D
libRbt.so/2013.1/901 2013/11/27
 13 12  0  0  0  0  0  0  0  0999 V2000
   26.1842   13.5781   44.0900 O   0  0  0  0  0  0  0  0  0  0  0  0
   29.8574   13.7895   44.4443 O   0  0  0  0  0  0  0  0  0  0  0  0
   22.6970   16.1021   43.6610 P   0  0  1  0  0  0  0  0  0  0  0  0
   21.5052   15.4038   43.0668 O   0  5  0  0  0  0  0  0  0  0  0  0
   22.7694   16.8984   44.8666 O   0  0  0  0  0  0  0  0  0  0  0  0
   23.9367   15.1795   43.1969 O   0  0  0  0  0  0  0  0  0  0  0  0
   32.0235   13.6038   42.6111 O   0  0  0  0  0  0  0  0  0  0  0  0
   23.9096   13.7419   43.3316 C   0  0  0  0  0  0  0  0  0  0  0  0
   28.4985   13.6951   44.9138 C   0  0  0  0  0  0  0  0  0  0  0  0
   31.9125   12.6888   43.7157 C   0  0  0  0  0  0  0  0  0  0  0  0
   25.2983   13.1478   43.0536 C   0  0  0  0  0  0  0  0  0  0  0  0
   27.5566   13.2969   43.7537 C   0  0  0  0  0  0  0  0  0  0  0  0
   30.4272   12.5119   44.1092 C   0  0  0  0  0  0  0  0  0  0  0  0
  1 12  1  0  0  0  0
  1 11  1  0  0  0  0
  2 13  1  0  0  0  0
  2  9  1  0  0  0  0
  3  4  1  1  0  0  0
  3  5  2  0  0  0  0
  3  6  1  0  0  0  0
  6  8  1  0  0  0  0
  7 10  1  0  0  0  0
  8 11  1  0  0  0  0
  9 12  1  0  0  0  0
 10 13  1  0  0  0  0
M  CHG  1   4  -1
M  END
>  <CHROM.1>
-176.88629890,-175.86325679,-47.20018156,-169.77925819,66.58496770,-69.80634248
-163.01044956,-57.80118746,-167.94848788,26.30723163,14.31913115,43.74502345
0.26912862,0.14349939,-2.69285248

>  <Name>
ligand

>  <RI>
0

>  <Rbt.Current_Directory>
/home/itssahil/PROJECTS/Mol_Feturizer/New_Systems/rnas/3GS8

>  <Rbt.Executable>
rbdock ($Id: //depot/dev/client3/rdock/2013.1/src/exe/rbdock.cxx#4 $)

>  <Rbt.Library>
libRbt.so (2013.1, Build901 2013/11/27)

>  <Rbt.Parameter_File>
/export/apps/rDock/src/rDock_2013.1_src/data/scripts/dock_solv.prm

>  <Rbt.Receptor>
prm/blind_docking_60.prm

>  <SCORE>
-13.0246

>  <SCORE.INTER>
0.255971

>  <SCORE.INTER.CONST>
1

>  <SCORE.INTER.POLAR>
0

>  <SCORE.INTER.ROT>
9

>  <SCORE.INTER.SOLV>
16.1798

>  <SCORE.INTER.VDW>
-14.8226

>  <SCORE.INTER.norm>
0.0196901

>  <SCORE.INTRA>
-13.2806

>  <SCORE.INTRA.DIHEDRAL>
-28.1809

>  <SCORE.INTRA.DIHEDRAL.0>
31.9578

>  <SCORE.INTRA.POLAR>
0

>  <SCORE.INTRA.POLAR.0>
0

>  <SCORE.INTRA.REPUL>
0

>  <SCORE.INTRA.REPUL.0>
0

>  <SCORE.INTRA.SOLV>
-1.18958

>  <SCORE.INTRA.SOLV.lig_0>
-48.4032

>  <SCORE.INTRA.VDW>
1.40462

>  <SCORE.INTRA.VDW.0>
-1.65238

>  <SCORE.INTRA.norm>
-1.02158

>  <SCORE.RESTR>
0

>  <SCORE.RESTR.CAVITY>
0

>  <SCORE.RESTR.norm>
0

>  <SCORE.SYSTEM>
0

>  <SCORE.SYSTEM.CONST>
0

>  <SCORE.SYSTEM.DIHEDRAL>
0

>  <SCORE.SYSTEM.SOLV>
0

>  <SCORE.SYSTEM.norm>
0

>  <SCORE.heavy>
13

>  <SCORE.norm>
-1.00189

>  <RMSD>
22.493

$$$$
ligand
 OpenBabel11021811473D
libRbt.so/2013.1/901 2013/11/27
 13 12  0  0  0  0  0  0  0  0999 V2000
   28.2391   14.1417   43.6937 O   0  0  0  0  0  0  0  0  0  0  0  0
   31.8967   14.4630   43.1188 O   0  0  0  0  0  0  0  0  0  0  0  0
   23.1787   14.2512   43.4341 P   0  0  1  0  0  0  0  0  0  0  0  0
   22.2739   15.4383   43.6158 O   0  5  0  0  0  0  0  0  0  0  0  0
   22.9061   13.0027   42.7560 O   0  0  0  0  0  0  0  0  0  0  0  0
   24.6520   14.9084   43.4078 O   0  0  0  0  0  0  0  0  0  0  0  0
   34.0907   11.5198   43.5163 O   0  0  0  0  0  0  0  0  0  0  0  0
   25.8358   14.1384   43.7104 C   0  0  0  0  0  0  0  0  0  0  0  0
   30.6910   13.9533   43.7209 C   0  0  0  0  0  0  0  0  0  0  0  0
   33.0553   12.3218   42.9210 C   0  0  0  0  0  0  0  0  0  0  0  0
   27.0989   14.9014   43.2847 C   0  0  0  0  0  0  0  0  0  0  0  0
   29.4571   14.7060   43.1707 C   0  0  0  0  0  0  0  0  0  0  0  0
   33.0755   13.7456   43.5250 C   0  0  0  0  0  0  0  0  0  0  0  0
  1 12  1  0  0  0  0
  1 11  1  0  0  0  0
  2 13  1  0  0  0  0
  2  9  1  0  0  0  0
  3  4  1  6  0  0  0
  3  5  2  0  0  0  0
  3  6  1  0  0  0  0
  6  8  1  0  0  0  0
  7 10  1  0  0  0  0
  8 11  1  0  0  0  0
  9 12  1  0  0  0  0
 10 13  1  0  0  0  0
M  CHG  1   4  -1
M  END
>  <CHROM.1>
174.94264801,69.32613806,158.20790060,166.26060136,175.84232665,-176.24445397
175.91628956,-169.31709464,172.25534139,27.73901019,13.98146307,43.37843056
-0.14100182,-0.01431147,0.11410480

>  <Name>
ligand

>  <RI>
0

>  <Rbt.Current_Directory>
/home/itssahil/PROJECTS/Mol_Feturizer/New_Systems/rnas/3GS8

>  <Rbt.Executable>
rbdock ($Id: //depot/dev/client3/rdock/2013.1/src/exe/rbdock.cxx#4 $)

>  <Rbt.Library>
libRbt.so (2013.1, Build901 2013/11/27)

>  <Rbt.Parameter_File>
/export/apps/rDock/src/rDock_2013.1_src/data/scripts/dock_solv.prm

>  <Rbt.Receptor>
prm/blind_docking_60.prm

>  <SCORE>
-12.1457

>  <SCORE.INTER>
1.90511

>  <SCORE.INTER.CONST>
1

>  <SCORE.INTER.POLAR>
0

>  <SCORE.INTER.ROT>
9

>  <SCORE.INTER.SOLV>
10.8094

>  <SCORE.INTER.VDW>
-11.933

>  <SCORE.INTER.norm>
0.146547

>  <SCORE.INTRA>
-14.0508

>  <SCORE.INTRA.DIHEDRAL>
-29.3087

>  <SCORE.INTRA.DIHEDRAL.0>
31.9578

>  <SCORE.INTRA.POLAR>
0

>  <SCORE.INTRA.POLAR.0>
0

>  <SCORE.INTRA.REPUL>
0

>  <SCORE.INTRA.REPUL.0>
0

>  <SCORE.INTRA.SOLV>
-1.86508

>  <SCORE.INTRA.SOLV.lig_0>
-48.4032

>  <SCORE.INTRA.VDW>
1.53609

>  <SCORE.INTRA.VDW.0>
-1.65238

>  <SCORE.INTRA.norm>
-1.08083

>  <SCORE.RESTR>
0

>  <SCORE.RESTR.CAVITY>
0

>  <SCORE.RESTR.norm>
0

>  <SCORE.SYSTEM>
0

>  <SCORE.SYSTEM.CONST>
0

>  <SCORE.SYSTEM.DIHEDRAL>
0

>  <SCORE.SYSTEM.SOLV>
0

>  <SCORE.SYSTEM.norm>
0

>  <SCORE.heavy>
13

>  <SCORE.norm>
-0.934283

>  <RMSD>
22.504

$$$$
ligand
 OpenBabel11021811473D
libRbt.so/2013.1/901 2013/11/27
 13 12  0  0  0  0  0  0  0  0999 V2000
   32.9596   20.0239   63.5998 O   0  0  0  0  0  0  0  0  0  0  0  0
   30.9935   16.8753   63.4975 O   0  0  0  0  0  0  0  0  0  0  0  0
   34.4063   23.9012   65.0347 P   0  0  1  0  0  0  0  0  0  0  0  0
   33.3776   24.9965   64.9772 O   0  5  0  0  0  0  0  0  0  0  0  0
   35.3750   23.6251   66.0730 O   0  0  0  0  0  0  0  0  0  0  0  0
   33.7219   22.7054   64.1952 O   0  0  0  0  0  0  0  0  0  0  0  0
   28.9663   15.0365   62.6090 O   0  0  0  0  0  0  0  0  0  0  0  0
   34.4892   21.8557   63.3148 C   0  0  0  0  0  0  0  0  0  0  0  0
   31.5344   18.0777   64.0785 C   0  0  0  0  0  0  0  0  0  0  0  0
   29.7784   14.7737   63.7670 C   0  0  0  0  0  0  0  0  0  0  0  0
   33.5736   20.8474   62.6051 C   0  0  0  0  0  0  0  0  0  0  0  0
   32.2673   18.9111   63.0015 C   0  0  0  0  0  0  0  0  0  0  0  0
   30.2086   16.1056   64.4252 C   0  0  0  0  0  0  0  0  0  0  0  0
  1 12  1  0  0  0  0
  1 11  1  0  0  0  0
  2 13  1  0  0  0  0
  2  9  1  0  0  0  0
  3  4  1  1  0  0  0
  3  5  2  0  0  0  0
  3  6  1  0  0  0  0
  6  8  1  0  0  0  0
  7 10  1  0  0  0  0
  8 11  1  0  0  0  0
  9 12  1  0  0  0  0
 10 13  1  0  0  0  0
M  CHG  1   4  -1
M  END
>  <CHROM.1>
-176.47947441,-174.70313682,141.55112990,-177.62766436,-61.58738184,-175.41396487
-172.50308860,-61.30908996,-170.13194980,32.60032986,20.19315173,64.03737166
-2.50792245,0.94855148,1.01692240

>  <Name>
ligand

>  <RI>
0

>  <Rbt.Current_Directory>
/home/itssahil/PROJECTS/Mol_Feturizer/New_Systems/rnas/3GS8

>  <Rbt.Executable>
rbdock ($Id: //depot/dev/client3/rdock/2013.1/src/exe/rbdock.cxx#4 $)

>  <Rbt.Library>
libRbt.so (2013.1, Build901 2013/11/27)

>  <Rbt.Parameter_File>
/export/apps/rDock/src/rDock_2013.1_src/data/scripts/dock_solv.prm

>  <Rbt.Receptor>
prm/blind_docking_100.prm

>  <SCORE>
-15.3372

>  <SCORE.INTER>
0.473722

>  <SCORE.INTER.CONST>
1

>  <SCORE.INTER.POLAR>
0

>  <SCORE.INTER.ROT>
9

>  <SCORE.INTER.SOLV>
10.3371

>  <SCORE.INTER.VDW>
-12.7299

>  <SCORE.INTER.norm>
0.0364402

>  <SCORE.INTRA>
-15.8109

>  <SCORE.INTRA.DIHEDRAL>
-30.3453

>  <SCORE.INTRA.DIHEDRAL.0>
31.9578

>  <SCORE.INTRA.POLAR>
0

>  <SCORE.INTRA.POLAR.0>
0

>  <SCORE.INTRA.REPUL>
0

>  <SCORE.INTRA.REPUL.0>
0

>  <SCORE.INTRA.SOLV>
-1.70762

>  <SCORE.INTRA.SOLV.lig_0>
-48.4032

>  <SCORE.INTRA.VDW>
0.215525

>  <SCORE.INTRA.VDW.0>
-1.65238

>  <SCORE.INTRA.norm>
-1.21623

>  <SCORE.RESTR>
0

>  <SCORE.RESTR.CAVITY>
0

>  <SCORE.RESTR.norm>
0

>  <SCORE.SYSTEM>
0

>  <SCORE.SYSTEM.CONST>
0

>  <SCORE.SYSTEM.DIHEDRAL>
0

>  <SCORE.SYSTEM.SOLV>
0

>  <SCORE.SYSTEM.norm>
0

>  <SCORE.heavy>
13

>  <SCORE.norm>
-1.17979

>  <RMSD>
22.629

$$$$
ligand
 OpenBabel11021811473D
libRbt.so/2013.1/901 2013/11/27
 13 12  0  0  0  0  0  0  0  0999 V2000
   30.1817   12.4648   44.2712 O   0  0  0  0  0  0  0  0  0  0  0  0
   33.0642   12.4956   43.2263 O   0  0  0  0  0  0  0  0  0  0  0  0
   25.8397   13.5920   43.4527 P   0  0  1  0  0  0  0  0  0  0  0  0
   25.6615   15.0809   43.5642 O   0  5  0  0  0  0  0  0  0  0  0  0
   25.9787   12.7855   42.2598 O   0  0  0  0  0  0  0  0  0  0  0  0
   26.6198   13.2090   44.8121 O   0  0  0  0  0  0  0  0  0  0  0  0
   33.3473   14.6979   41.4510 O   0  0  0  0  0  0  0  0  0  0  0  0
   28.0511   13.3555   44.9369 C   0  0  0  0  0  0  0  0  0  0  0  0
   32.4113   11.4649   43.9926 C   0  0  0  0  0  0  0  0  0  0  0  0
   33.5398   14.8642   42.8669 C   0  0  0  0  0  0  0  0  0  0  0  0
   28.7772   12.3523   44.0285 C   0  0  0  0  0  0  0  0  0  0  0  0
   30.9090   11.3983   43.6315 C   0  0  0  0  0  0  0  0  0  0  0  0
   32.6980   13.8232   43.6414 C   0  0  0  0  0  0  0  0  0  0  0  0
  1 12  1  0  0  0  0
  1 11  1  0  0  0  0
  2 13  1  0  0  0  0
  2  9  1  0  0  0  0
  3  4  1  6  0  0  0
  3  5  2  0  0  0  0
  3  6  1  0  0  0  0
  6  8  1  0  0  0  0
  7 10  1  0  0  0  0
  8 11  1  0  0  0  0
  9 12  1  0  0  0  0
 10 13  1  0  0  0  0
M  CHG  1   4  -1
M  END
>  <CHROM.1>
-175.49414317,174.56360506,-82.30475747,-67.82432334,-175.34540835,71.35394561
-77.64175436,57.71411617,169.87609180,29.42395092,13.24472773,43.52516967
-0.01172153,-0.09425438,2.62028826

>  <Name>
ligand

>  <RI>
0

>  <Rbt.Current_Directory>
/home/itssahil/PROJECTS/Mol_Feturizer/New_Systems/rnas/3GS8

>  <Rbt.Executable>
rbdock ($Id: //depot/dev/client3/rdock/2013.1/src/exe/rbdock.cxx#4 $)

>  <Rbt.Library>
libRbt.so (2013.1, Build901 2013/11/27)

>  <Rbt.Parameter_File>
/export/apps/rDock/src/rDock_2013.1_src/data/scripts/dock_solv.prm

>  <Rbt.Receptor>
prm/blind_docking_100.prm

>  <SCORE>
-14.3223

>  <SCORE.INTER>
-1.35039

>  <SCORE.INTER.CONST>
1

>  <SCORE.INTER.POLAR>
0

>  <SCORE.INTER.ROT>
9

>  <SCORE.INTER.SOLV>
13.3903

>  <SCORE.INTER.VDW>
-14.9637

>  <SCORE.INTER.norm>
-0.103876

>  <SCORE.INTRA>
-12.9719

>  <SCORE.INTRA.DIHEDRAL>
-28.8014

>  <SCORE.INTRA.DIHEDRAL.0>
31.9578

>  <SCORE.INTRA.POLAR>
0

>  <SCORE.INTRA.POLAR.0>
0

>  <SCORE.INTRA.REPUL>
0

>  <SCORE.INTRA.REPUL.0>
0

>  <SCORE.INTRA.SOLV>
0.352131

>  <SCORE.INTRA.SOLV.lig_0>
-48.4032

>  <SCORE.INTRA.VDW>
1.25273

>  <SCORE.INTRA.VDW.0>
-1.65238

>  <SCORE.INTRA.norm>
-0.997837

>  <SCORE.RESTR>
0

>  <SCORE.RESTR.CAVITY>
0

>  <SCORE.RESTR.norm>
0

>  <SCORE.SYSTEM>
0

>  <SCORE.SYSTEM.CONST>
0

>  <SCORE.SYSTEM.DIHEDRAL>
0

>  <SCORE.SYSTEM.SOLV>
0

>  <SCORE.SYSTEM.norm>
0

>  <SCORE.heavy>
13

>  <SCORE.norm>
-1.10171

>  <RMSD>
22.768

$$$$
ligand
 OpenBabel11021811473D
libRbt.so/2013.1/901 2013/11/27
 13 12  0  0  0  0  0  0  0  0999 V2000
   25.9860   13.1862   43.6268 O   0  0  0  0  0  0  0  0  0  0  0  0
   29.6008   13.3636   44.4373 O   0  0  0  0  0  0  0  0  0  0  0  0
   22.0138   15.4400   43.5520 P   0  0  1  0  0  0  0  0  0  0  0  0
   22.9876   16.5501   43.8356 O   0  5  0  0  0  0  0  0  0  0  0  0
   20.5687   15.4681   43.6134 O   0  0  0  0  0  0  0  0  0  0  0  0
   22.7831   14.5437   42.4530 O   0  0  0  0  0  0  0  0  0  0  0  0
   33.1912   12.5450   44.0815 O   0  0  0  0  0  0  0  0  0  0  0  0
   23.7456   13.5351   42.8300 C   0  0  0  0  0  0  0  0  0  0  0  0
   28.3513   12.7225   44.1153 C   0  0  0  0  0  0  0  0  0  0  0  0
   32.0429   13.3266   44.4560 C   0  0  0  0  0  0  0  0  0  0  0  0
   24.9638   14.1789   43.5084 C   0  0  0  0  0  0  0  0  0  0  0  0
   27.1907   13.7420   44.1884 C   0  0  0  0  0  0  0  0  0  0  0  0
   30.7458   12.5422   44.1488 C   0  0  0  0  0  0  0  0  0  0  0  0
  1 12  1  0  0  0  0
  1 11  1  0  0  0  0
  2 13  1  0  0  0  0
  2  9  1  0  0  0  0
  3  4  1  6  0  0  0
  3  5  2  0  0  0  0
  3  6  1  0  0  0  0
  6  8  1  0  0  0  0
  7 10  1  0  0  0  0
  8 11  1  0  0  0  0
  9 12  1  0  0  0  0
 10 13  1  0  0  0  0
M  CHG  1   4  -1
M  END
>  <CHROM.1>
-171.45589311,177.23135430,83.98432705,-64.61118068,-169.03485115,-169.11334818
169.02672729,-175.99090287,176.73250179,26.08181439,14.07419933,43.73630470
0.20445489,0.18071940,-2.76972956

>  <Name>
ligand

>  <RI>
0

>  <Rbt.Current_Directory>
/home/itssahil/PROJECTS/Mol_Feturizer/New_Systems/rnas/3GS8

>  <Rbt.Executable>
rbdock ($Id: //depot/dev/client3/rdock/2013.1/src/exe/rbdock.cxx#4 $)

>  <Rbt.Library>
libRbt.so (2013.1, Build901 2013/11/27)

>  <Rbt.Parameter_File>
/export/apps/rDock/src/rDock_2013.1_src/data/scripts/dock_solv.prm

>  <Rbt.Receptor>
prm/blind_docking_60.prm

>  <SCORE>
-14.3435

>  <SCORE.INTER>
-0.318519

>  <SCORE.INTER.CONST>
1

>  <SCORE.INTER.POLAR>
0

>  <SCORE.INTER.ROT>
9

>  <SCORE.INTER.SOLV>
14.6436

>  <SCORE.INTER.VDW>
-14.6935

>  <SCORE.INTER.norm>
-0.0245015

>  <SCORE.INTRA>
-14.025

>  <SCORE.INTRA.DIHEDRAL>
-28.8221

>  <SCORE.INTRA.DIHEDRAL.0>
31.9578

>  <SCORE.INTRA.POLAR>
0

>  <SCORE.INTRA.POLAR.0>
0

>  <SCORE.INTRA.REPUL>
0

>  <SCORE.INTRA.REPUL.0>
0

>  <SCORE.INTRA.SOLV>
-0.457668

>  <SCORE.INTRA.SOLV.lig_0>
-48.4032

>  <SCORE.INTRA.VDW>
0.614848

>  <SCORE.INTRA.VDW.0>
-1.65238

>  <SCORE.INTRA.norm>
-1.07885

>  <SCORE.RESTR>
0

>  <SCORE.RESTR.CAVITY>
0

>  <SCORE.RESTR.norm>
0

>  <SCORE.SYSTEM>
0

>  <SCORE.SYSTEM.CONST>
0

>  <SCORE.SYSTEM.DIHEDRAL>
0

>  <SCORE.SYSTEM.SOLV>
0

>  <SCORE.SYSTEM.norm>
0

>  <SCORE.heavy>
13

>  <SCORE.norm>
-1.10335

>  <RMSD>
22.785

$$$$
ligand
 OpenBabel11021811473D
libRbt.so/2013.1/901 2013/11/27
 13 12  0  0  0  0  0  0  0  0999 V2000
   28.2891   14.1211   42.7034 O   0  0  0  0  0  0  0  0  0  0  0  0
   30.1240   12.1856   43.9988 O   0  0  0  0  0  0  0  0  0  0  0  0
   23.2735   14.2230   43.4617 P   0  0  1  0  0  0  0  0  0  0  0  0
   22.6694   15.5989   43.4061 O   0  5  0  0  0  0  0  0  0  0  0  0
   22.8988   13.0409   42.7167 O   0  0  0  0  0  0  0  0  0  0  0  0
   24.8133   14.5095   43.8493 O   0  0  0  0  0  0  0  0  0  0  0  0
   27.9293    9.3628   43.0450 O   0  0  0  0  0  0  0  0  0  0  0  0
   25.9025   14.1156   42.9867 C   0  0  0  0  0  0  0  0  0  0  0  0
   29.9403   13.5471   44.4331 C   0  0  0  0  0  0  0  0  0  0  0  0
   29.1617   10.0314   43.3671 C   0  0  0  0  0  0  0  0  0  0  0  0
   27.2512   14.5091   43.6071 C   0  0  0  0  0  0  0  0  0  0  0  0
   29.5892   14.4515   43.2288 C   0  0  0  0  0  0  0  0  0  0  0  0
   28.8842   11.5112   43.7210 C   0  0  0  0  0  0  0  0  0  0  0  0
  1 12  1  0  0  0  0
  1 11  1  0  0  0  0
  2 13  1  0  0  0  0
  2  9  1  0  0  0  0
  3  4  1  6  0  0  0
  3  5  2  0  0  0  0
  3  6  1  0  0  0  0
  6  8  1  0  0  0  0
  7 10  1  0  0  0  0
  8 11  1  0  0  0  0
  9 12  1  0  0  0  0
 10 13  1  0  0  0  0
M  CHG  1   4  -1
M  END
>  <CHROM.1>
70.05574415,-175.71887462,-119.67201071,-179.82910373,-178.87545525,-76.07962172
67.56361800,-178.10090340,-179.51987772,26.63340812,13.25249067,43.42017798
-0.40040296,-0.07887085,0.07825115

>  <Name>
ligand

>  <RI>
0

>  <Rbt.Current_Directory>
/home/itssahil/PROJECTS/Mol_Feturizer/New_Systems/rnas/3GS8

>  <Rbt.Executable>
rbdock ($Id: //depot/dev/client3/rdock/2013.1/src/exe/rbdock.cxx#4 $)

>  <Rbt.Library>
libRbt.so (2013.1, Build901 2013/11/27)

>  <Rbt.Parameter_File>
/export/apps/rDock/src/rDock_2013.1_src/data/scripts/dock_solv.prm

>  <Rbt.Receptor>
prm/blind_docking_60.prm

>  <SCORE>
-13.1964

>  <SCORE.INTER>
-0.351735

>  <SCORE.INTER.CONST>
1

>  <SCORE.INTER.POLAR>
0

>  <SCORE.INTER.ROT>
9

>  <SCORE.INTER.SOLV>
10.5531

>  <SCORE.INTER.VDW>
-13.3522

>  <SCORE.INTER.norm>
-0.0270566

>  <SCORE.INTRA>
-12.8459

>  <SCORE.INTRA.DIHEDRAL>
-28.8151

>  <SCORE.INTRA.DIHEDRAL.0>
31.9578

>  <SCORE.INTRA.POLAR>
0

>  <SCORE.INTRA.POLAR.0>
0

>  <SCORE.INTRA.REPUL>
0

>  <SCORE.INTRA.REPUL.0>
0

>  <SCORE.INTRA.SOLV>
-1.3675

>  <SCORE.INTRA.SOLV.lig_0>
-48.4032

>  <SCORE.INTRA.VDW>
2.24539

>  <SCORE.INTRA.VDW.0>
-1.65238

>  <SCORE.INTRA.norm>
-0.988147

>  <SCORE.RESTR>
0.00123817

>  <SCORE.RESTR.CAVITY>
0.00123817

>  <SCORE.RESTR.norm>
9.52435e-05

>  <SCORE.SYSTEM>
0

>  <SCORE.SYSTEM.CONST>
0

>  <SCORE.SYSTEM.DIHEDRAL>
0

>  <SCORE.SYSTEM.SOLV>
0

>  <SCORE.SYSTEM.norm>
0

>  <SCORE.heavy>
13

>  <SCORE.norm>
-1.01511

>  <RMSD>
23.202

$$$$
