@<TRIPOS>MOLECULE
3GS8_rdock.pdb
 1332 1476 0 0 0
SMALL
GASTEIGER

@<TRIPOS>ATOM
      1  C5'       40.5060   31.1870   63.5650 C.3     1  U1          0.0000
      2  C5'       39.8890   30.6530   61.6230 C.2     1  U1          0.0000
      3  O5'       40.9560   30.7910   62.2680 O.3     1  U1          0.0000
      4  O5'       39.7030   29.3200   62.1250 O.2     1  U1          0.0000
      5  C4'       39.2320   31.9880   63.4650 C.3     1  U1          0.0000
      6  C4'       39.1160   31.6800   62.4150 C.3     1  U1          0.0000
      7  O4'       39.4460   33.1020   62.5650 O.3     1  U1          0.0000
      8  O4'       39.1110   32.9290   61.6810 O.3     1  U1          0.0000
      9  C3'       38.0210   31.2740   62.8960 C.2     1  U1          0.0000
     10  C3'       37.6440   31.3760   62.6230 C.2     1  U1          0.0000
     11  O3'       37.3470   30.5310   63.8820 O.3     1  U1          0.0000
     12  O3'       37.4290   30.5170   63.7240 O.2     1  U1          0.0000
     13  C2'       37.1860   32.4290   62.3650 C.2     1  U1          0.0000
     14  C2'       37.0400   32.7560   62.8370 C.3     1  U1          0.0000
     15  O2'       36.4750   33.1210   63.3740 O.3     1  U1          0.0000
     16  O2'       37.2030   33.2650   64.1440 O.3     1  U1          0.0000
     17  C1'       38.2800   33.3210   61.7860 C.3     1  U1          0.0000
     18  C1'       37.8610   33.5840   61.8510 C.3     1  U1          0.0000
     19  N1        38.6000   32.8890   60.4220 N.3     1  U1          0.0000
     20  N1        37.2210   33.6790   60.5320 N.4     1  U1          0.0000
     21  C2        37.9110   33.4610   59.3750 C.3     1  U1          0.0000
     22  C2        36.0620   34.4390   60.4180 C.2     1  U1          0.0000
     23  O2        37.0320   34.2900   59.5290 O.3     1  U1          0.0000
     24  O2        35.5240   34.9850   61.3750 O.2     1  U1          0.0000
     25  N3        38.2940   33.0230   58.1360 N.am    1  U1          0.0000
     26  N3        35.5550   34.5230   59.1410 N.am    1  U1          0.0000
     27  C4        39.2700   32.0940   57.8540 C.2     1  U1          0.0000
     28  C4        36.0700   33.9300   57.9990 C.2     1  U1          0.0000
     29  O4        39.5500   31.8570   56.6870 O.2     1  U1          0.0000
     30  O4        35.5420   34.1530   56.9140 O.2     1  U1          0.0000
     31  C5        39.9160   31.5330   58.9890 C.3     1  U1          0.0000
     32  C5        37.2440   33.1420   58.2070 C.3     1  U1          0.0000
     33  C6        39.5700   31.9390   60.2030 C.3     1  U1          0.0000
     34  C6        37.7670   33.0440   59.4320 C.3     1  U1          0.0000
     35  P         36.6470   29.1460   63.4870 P.3     2  C2          0.0000
     36  C5'       34.5760   30.5070   62.6830 C.3     2  C2          0.0000
     37  O5'       35.5830   29.5550   62.3790 O.3     2  C2          0.0000
     38  C4'       33.7930   30.8250   61.4510 C.3     2  C2          0.0000
     39  O4'       34.6880   31.3920   60.4630 O.3     2  C2          0.0000
     40  C3'       33.2580   29.5990   60.7470 C.3     2  C2          0.0000
     41  O3'       32.0550   29.1350   61.3080 O.3     2  C2          0.0000
     42  C2'       33.0510   30.1030   59.3370 C.3     2  C2          0.0000
     43  O2'       31.8860   30.8800   59.2350 O.3     2  C2          0.0000
     44  C1'       34.2620   31.0100   59.1700 C.3     2  C2          0.0000
     45  N1        35.3630   30.3300   58.4910 N.ar    2  C2          0.0000
     46  C2        35.2930   30.1900   57.1180 C.ar    2  C2          0.0000
     47  O2        34.3080   30.6380   56.5320 O.2     2  C2          0.0000
     48  N3        36.2930   29.5680   56.4590 N.ar    2  C2          0.0000
     49  C4        37.3340   29.0900   57.1350 C.ar    2  C2          0.0000
     50  N4        38.2920   28.4690   56.4440 N.pl3   2  C2          0.0000
     51  C5        37.4350   29.2220   58.5510 C.ar    2  C2          0.0000
     52  C6        36.4320   29.8430   59.1840 C.ar    2  C2          0.0000
     53  OP1       35.9020   28.7740   64.7210 O.3     2  C2          0.0000
     54  OP2       37.6530   28.2130   62.9040 O.co2   2  C2         -1.0000
     55  P         31.7240   27.5750   61.2310 P.3     3  C3          0.0000
     56  C5'       29.9410   27.9630   59.3960 C.3     3  C3          0.0000
     57  O5'       31.1720   27.3860   59.7590 O.3     3  C3          0.0000
     58  C4'       29.5920   27.5840   57.9890 C.3     3  C3          0.0000
     59  O4'       30.5480   28.1920   57.0900 O.3     3  C3          0.0000
     60  C3'       29.6680   26.1040   57.6710 C.3     3  C3          0.0000
     61  O3'       28.4610   25.4630   58.0100 O.3     3  C3          0.0000
     62  C2'       29.8680   26.1190   56.1670 C.3     3  C3          0.0000
     63  O2'       28.6680   26.3780   55.4790 O.3     3  C3          0.0000
     64  C1'       30.7880   27.3230   56.0050 C.3     3  C3          0.0000
     65  N1        32.1980   26.9370   56.0170 N.ar    3  C3          0.0000
     66  C2        32.7600   26.4950   54.8330 C.ar    3  C3          0.0000
     67  O2        32.0380   26.4360   53.8300 O.2     3  C3          0.0000
     68  N3        34.0640   26.1400   54.8030 N.ar    3  C3          0.0000
     69  C4        34.7940   26.2060   55.9170 C.ar    3  C3          0.0000
     70  N4        36.0790   25.8300   55.8530 N.pl3   3  C3          0.0000
     71  C5        34.2400   26.6550   57.1520 C.ar    3  C3          0.0000
     72  C6        32.9490   27.0080   57.1560 C.ar    3  C3          0.0000
     73  OP1       30.6300   27.2710   62.1890 O.3     3  C3         -0.5000
     74  OP2       33.0120   26.8540   61.3200 O.co2   3  C3         -0.5000
     75  P         28.4800   23.9160   58.3910 P.3     4  C4          0.0000
     76  C5'       28.2380   23.2510   55.8950 C.3     4  C4          0.0000
     77  O5'       29.0230   23.2210   57.0700 O.3     4  C4          0.0000
     78  C4'       28.8690   22.4200   54.8230 C.3     4  C4          0.0000
     79  O4'       30.1050   23.0440   54.4010 O.3     4  C4          0.0000
     80  C3'       29.3050   21.0510   55.2990 C.3     4  C4          0.0000
     81  O3'       28.2080   20.1700   55.1990 O.3     4  C4          0.0000
     82  C2'       30.3740   20.6870   54.2850 C.3     4  C4          0.0000
     83  O2'       29.7990   20.2130   53.0910 O.3     4  C4          0.0000
     84  C1'       31.0250   22.0440   54.0220 C.3     4  C4          0.0000
     85  N1        32.3020   22.2580   54.7130 N.ar    4  C4          0.0000
     86  C2        33.4630   21.9230   54.0320 C.ar    4  C4          0.0000
     87  O2        33.3580   21.4720   52.8890 O.2     4  C4          0.0000
     88  N3        34.6680   22.0960   54.6270 N.ar    4  C4          0.0000
     89  C4        34.7300   22.5900   55.8610 C.ar    4  C4          0.0000
     90  N4        35.9430   22.7600   56.4050 N.pl3   4  C4          0.0000
     91  C5        33.5510   22.9400   56.5910 C.ar    4  C4          0.0000
     92  C6        32.3650   22.7620   55.9800 C.ar    4  C4          0.0000
     93  OP1       27.0790   23.4720   58.5990 O.2     4  C4         -0.5000
     94  OP2       29.4800   23.7410   59.4720 O.co2   4  C4         -0.5000
     95  P         28.0000   19.0430   56.3080 P.3     5  A5          0.0000
     96  C5'       29.2560   17.2400   54.9000 C.3     5  A5          0.0000
     97  O5'       29.2060   18.0390   56.0660 O.3     5  A5          0.0000
     98  C4'       30.5540   16.4840   54.8530 C.3     5  A5          0.0000
     99  O4'       31.6430   17.4370   54.7700 O.3     5  A5          0.0000
    100  C3'       30.8840   15.6370   56.0710 C.3     5  A5          0.0000
    101  C2'       32.4010   15.5410   55.9740 C.3     5  A5          0.0000
    102  O2'       32.7940   14.5990   54.9770 O.3     5  A5          0.0000
    103  C1'       32.7530   16.9550   55.5030 C.3     5  A5          0.0000
    104  N1        36.3180   19.3190   58.3700 N.ar    5  A5          0.0000
    105  C2        36.4000   18.4160   57.3910 C.ar    5  A5          0.0000
    106  N3        35.4300   17.8280   56.6980 N.ar    5  A5          0.0000
    107  C4        34.2280   18.2590   57.1000 C.ar    5  A5          0.0000
    108  C5        33.9730   19.1780   58.0970 C.ar    5  A5          0.0000
    109  C6        35.0950   19.7300   58.7620 C.ar    5  A5          0.0000
    110  N6        35.0160   20.6240   59.7480 N.pl3   5  A5          0.0000
    111  N7        32.6040   19.3760   58.2350 N.ar    5  A5          0.0000
    112  C8        32.0780   18.5860   57.3280 C.ar    5  A5          0.0000
    113  N9        33.0050   17.8890   56.5990 N.ar    5  A5          0.0000
    114  OP1       26.7150   18.3570   55.9870 O.2     5  A5         -0.5000
    115  OP2       28.2030   19.6600   57.6370 O.co2   5  A5         -0.5000
    116  P         33.9050   13.4710   55.3090 P.3     6  G6          0.0000
    117  C5'       32.2660   11.4080   54.9250 C.3     6  G6          0.0000
    118  O5'       33.4220   12.1610   54.5100 O.3     6  G6          0.0000
    119  C4'       32.2580    9.9980   54.3270 C.3     6  G6          0.0000
    120  O4'       31.8240   10.0220   52.9330 O.3     6  G6          0.0000
    121  C3'       33.6670    9.3930   54.3220 C.3     6  G6          0.0000
    122  O3'       33.7220    8.0390   54.7890 O.3     6  G6          0.0000
    123  C2'       34.1950    9.6060   52.9030 C.3     6  G6          0.0000
    124  O2'       34.9410    8.5180   52.4250 O.3     6  G6          0.0000
    125  C1'       32.8910    9.6210   52.1120 C.3     6  G6          0.0000
    126  N1        34.9640   12.7490   48.6700 N.ar    6  G6          0.0000
    127  C2        35.3390   12.5320   49.9740 C.ar    6  G6          0.0000
    128  N2        36.3930   13.2370   50.4090 N.pl3   6  G6          0.0000
    129  N3        34.7190   11.6930   50.7910 N.ar    6  G6          0.0000
    130  C4        33.6550   11.1070   50.1980 C.ar    6  G6          0.0000
    131  C5        33.1910   11.2700   48.9120 C.ar    6  G6          0.0000
    132  C6        33.8860   12.1400   48.0390 C.ar    6  G6          0.0000
    133  O6        33.6500   12.3820   46.8580 O.2     6  G6          0.0000
    134  N7        32.0450   10.5150   48.7030 N.ar    6  G6          0.0000
    135  C8        31.8490    9.9030   49.8370 C.ar    6  G6          0.0000
    136  N9        32.7980   10.2030   50.7800 N.ar    6  G6          0.0000
    137  OP1       35.1880   13.9140   54.6950 O.2     6  G6         -0.5000
    138  OP2       33.8510   13.2170   56.7720 O.co2   6  G6         -0.5000
    139  P         34.3210    7.6980   56.2380 P.3     7  U7          0.0000
    140  C5'       36.4600    6.7410   55.0860 C.3     7  U7          0.0000
    141  O5'       35.8950    7.6410   56.0200 O.3     7  U7          0.0000
    142  C4'       37.9630    6.8100   55.1450 C.3     7  U7          0.0000
    143  O4'       38.4290    8.0880   54.6420 O.3     7  U7          0.0000
    144  C3'       38.5550    6.7410   56.5360 C.3     7  U7          0.0000
    145  O3'       38.6680    5.3990   56.9430 O.3     7  U7          0.0000
    146  C2'       39.9320    7.3540   56.3270 C.3     7  U7          0.0000
    147  O2'       40.8610    6.4630   55.7540 O.3     7  U7          0.0000
    148  C1'       39.6250    8.4570   55.3160 C.3     7  U7          0.0000
    149  N1        39.4310    9.7690   55.9540 N.ar    7  U7          0.0000
    150  C2        40.5560   10.4190   56.4470 C.ar    7  U7          0.0000
    151  O2        41.6890    9.9530   56.3660 O.2     7  U7          0.0000
    152  N3        40.3070   11.6390   57.0340 N.ar    7  U7          0.0000
    153  C4        39.0800   12.2650   57.1740 C.ar    7  U7          0.0000
    154  O4        39.0210   13.3700   57.7230 O.2     7  U7          0.0000
    155  C5        37.9710   11.5320   56.6410 C.ar    7  U7          0.0000
    156  C6        38.1790   10.3390   56.0640 C.ar    7  U7          0.0000
    157  OP1       33.8700    6.3280   56.5630 O.2     7  U7         -0.5000
    158  OP2       34.0040    8.8100   57.1620 O.co2   7  U7         -0.5000
    159  P         38.5790    5.0380   58.4900 P.3     8  C8          0.0000
    160  C5'       41.0080    5.8570   58.9330 C.3     8  C8          0.0000
    161  O5'       39.6210    6.0290   59.1600 O.3     8  C8          0.0000
    162  C4'       41.7820    6.8930   59.6930 C.3     8  C8          0.0000
    163  O4'       41.5460    8.2050   59.1330 O.3     8  C8          0.0000
    164  C3'       41.3840    7.0520   61.1430 C.3     8  C8          0.0000
    165  O3'       42.0030    6.0740   61.9430 O.3     8  C8          0.0000
    166  C2'       41.9150    8.4360   61.4560 C.3     8  C8          0.0000
    167  O2'       43.3160    8.4400   61.6240 O.3     8  C8          0.0000
    168  C1'       41.5530    9.1710   60.1710 C.3     8  C8          0.0000
    169  N1        40.2160    9.7610   60.2450 N.ar    8  C8          0.0000
    170  C2        40.0770   11.0540   60.7550 C.ar    8  C8          0.0000
    171  O2        41.0870   11.6530   61.1570 O.2     8  C8          0.0000
    172  N3        38.8500   11.6170   60.7960 N.ar    8  C8          0.0000
    173  C4        37.7910   10.9380   60.3490 C.ar    8  C8          0.0000
    174  N4        36.6060   11.5470   60.3750 N.pl3   8  C8          0.0000
    175  C5        37.9030    9.6090   59.8470 C.ar    8  C8          0.0000
    176  C6        39.1230    9.0640   59.8150 C.ar    8  C8          0.0000
    177  OP1       39.1110    3.6550   58.5830 O.2     8  C8         -0.5000
    178  OP2       37.2120    5.3460   58.9680 O.co2   8  C8         -0.5000
    179  P         41.2690    5.5820   63.2690 P.3     9  C9          0.0000
    180  C5'       42.6280    7.2980   64.7050 C.3     9  C9          0.0000
    181  O5'       41.3690    6.8480   64.2240 O.3     9  C9          0.0000
    182  C4'       42.4250    8.4230   65.6890 C.3     9  C9          0.0000
    183  O4'       41.8630    9.5600   64.9770 O.3     9  C9          0.0000
    184  C3'       41.4150    8.1460   66.7960 C.3     9  C9          0.0000
    185  O3'       41.9730    7.4410   67.9020 O.3     9  C9          0.0000
    186  C2'       40.9700    9.5490   67.1820 C.3     9  C9          0.0000
    187  O2'       41.8760   10.1810   68.0680 O.3     9  C9          0.0000
    188  C1'       40.9350   10.2390   65.8110 C.3     9  C9          0.0000
    189  N1        39.5980   10.1880   65.1760 N.ar    9  C9          0.0000
    190  C2        38.7230   11.2550   65.3860 C.ar    9  C9          0.0000
    191  O2        39.1110   12.2210   66.0510 O.2     9  C9          0.0000
    192  N3        37.4800   11.2120   64.8590 N.ar    9  C9          0.0000
    193  C4        37.1010   10.1650   64.1320 C.ar    9  C9          0.0000
    194  N4        35.8580   10.1650   63.6500 N.pl3   9  C9          0.0000
    195  C5        37.9790    9.0690   63.8750 C.ar    9  C9          0.0000
    196  C6        39.2080    9.1210   64.4130 C.ar    9  C9          0.0000
    197  OP1       42.1240    4.5010   63.8000 O.3     9  C9         -0.5000
    198  OP2       39.8390    5.3170   62.9680 O.co2   9  C9         -0.5000
    199  P         41.0010    6.6520   68.9190 P.3    10  A10         0.0000
    200  C5'       41.0300    8.6620   70.6100 C.3    10  A10         0.0000
    201  O5'       40.2810    7.8070   69.7480 O.3    10  A10         0.0000
    202  C4'       40.1070    9.6150   71.3280 C.3    10  A10         0.0000
    203  O4'       39.5490   10.5690   70.3840 O.3    10  A10         0.0000
    204  C3'       38.8880    8.9630   71.9540 C.3    10  A10         0.0000
    205  O3'       39.1910    8.4030   73.2250 O.3    10  A10         0.0000
    206  C2'       37.9180   10.1310   72.0550 C.3    10  A10         0.0000
    207  O2'       38.2070   10.9640   73.1650 O.3    10  A10         0.0000
    208  C1'       38.2060   10.8670   70.7410 C.3    10  A10         0.0000
    209  N1        33.5610   11.2560   68.5250 N.ar   10  A10         0.0000
    210  C2        34.0860   11.8260   69.6160 C.ar   10  A10         0.0000
    211  N3        35.3070   11.6890   70.1380 N.ar   10  A10         0.0000
    212  C4        36.0430   10.8390   69.4070 C.ar   10  A10         0.0000
    213  C5        35.6460   10.1730   68.2600 C.ar   10  A10         0.0000
    214  C6        34.3290   10.4120   67.8070 C.ar   10  A10         0.0000
    215  N6        33.8070    9.8560   66.7130 N.pl3  10  A10         0.0000
    216  N7        36.6720    9.3760   67.7760 N.ar   10  A10         0.0000
    217  C8        37.6530    9.5730   68.6240 C.ar   10  A10         0.0000
    218  N9        37.3410   10.4430   69.6370 N.ar   10  A10         0.0000
    219  OP1       41.8940    5.9230   69.8450 O.3    10  A10        -0.5000
    220  OP2       39.9560    5.9040   68.1680 O.co2  10  A10        -0.5000
    221  P         38.2780    7.2180   73.8000 P.3    11  C11         0.0000
    222  C5'       36.8450    8.9840   75.1210 C.3    11  C11         0.0000
    223  O5'       36.9010    7.9350   74.1590 O.3    11  C11         0.0000
    224  C4'       35.4640    9.5980   75.1450 C.3    11  C11         0.0000
    225  O4'       35.1970   10.2530   73.8770 O.3    11  C11         0.0000
    226  C3'       34.3160    8.6200   75.2790 C.3    11  C11         0.0000
    227  O3'       34.0950    8.2530   76.6150 O.3    11  C11         0.0000
    228  C2'       33.1460    9.4110   74.7180 C.3    11  C11         0.0000
    229  O2'       32.5900   10.3480   75.6220 O.3    11  C11         0.0000
    230  C1'       33.8210   10.1200   73.5470 C.3    11  C11         0.0000
    231  N1        33.7310    9.3030   72.3370 N.ar   11  C11         0.0000
    232  C2        32.5370    9.2910   71.6240 C.ar   11  C11         0.0000
    233  O2        31.5950    9.9910   72.0200 O.2    11  C11         0.0000
    234  N3        32.4350    8.5200   70.5260 N.ar   11  C11         0.0000
    235  C4        33.4690    7.7770   70.1360 C.ar   11  C11         0.0000
    236  N4        33.3080    7.0100   69.0660 N.pl3  11  C11         0.0000
    237  C5        34.7090    7.7830   70.8350 C.ar   11  C11         0.0000
    238  C6        34.7950    8.5540   71.9200 C.ar   11  C11         0.0000
    239  OP1       38.9090    6.7170   75.0470 O.3    11  C11        -0.5000
    240  OP2       38.0200    6.2800   72.6750 O.co2  11  C11        -0.5000
    241  P         33.2260    6.9510   76.9230 P.3    12  C12         0.0000
    242  C5'       30.6510    6.5840   76.8150 C.3    12  C12         0.0000
    243  O5'       31.7320    7.4910   76.8880 O.3    12  C12         0.0000
    244  C4'       29.4420    7.2780   76.2660 C.3    12  C12         0.0000
    245  O4'       29.8180    8.0290   75.0840 O.3    12  C12         0.0000
    246  C3'       28.3710    6.3180   75.7940 C.3    12  C12         0.0000
    247  O3'       27.5510    5.9210   76.8760 O.3    12  C12         0.0000
    248  C2'       27.6510    7.1280   74.7260 C.3    12  C12         0.0000
    249  O2'       26.6840    8.0380   75.2190 O.3    12  C12         0.0000
    250  C1'       28.8270    7.8670   74.0810 C.3    12  C12         0.0000
    251  N1        29.4350    7.1060   72.9750 N.ar   12  C12         0.0000
    252  C2        28.6430    6.7560   71.8600 C.ar   12  C12         0.0000
    253  O2        27.4390    7.0940   71.8380 O.2    12  C12         0.0000
    254  N3        29.2090    6.0600   70.8420 N.ar   12  C12         0.0000
    255  C4        30.5000    5.7140   70.9030 C.ar   12  C12         0.0000
    256  N4        31.0140    5.0280   69.8760 N.pl3  12  C12         0.0000
    257  C5        31.3220    6.0550   72.0220 C.ar   12  C12         0.0000
    258  C6        30.7540    6.7430   73.0240 C.ar   12  C12         0.0000
    259  OP1       33.5560    6.5160   78.3010 O.3    12  C12        -0.5000
    260  OP2       33.3910    6.0040   75.7910 O.co2  12  C12        -0.5000
    261  P         27.5390    4.3820   77.3300 P.3    13  G13         0.0000
    262  C5'       25.0160    4.3670   76.6190 C.3    13  G13         0.0000
    263  O5'       26.3050    3.7640   76.5350 O.3    13  G13         0.0000
    264  C4'       24.3220    4.2730   75.2860 C.3    13  G13         0.0000
    265  O4'       25.1740    4.8800   74.2770 O.3    13  G13         0.0000
    266  C3'       24.1200    2.8640   74.7570 C.3    13  G13         0.0000
    267  O3'       23.0370    2.1630   75.3620 O.3    13  G13         0.0000
    268  C2'       23.9460    3.1120   73.2660 C.3    13  G13         0.0000
    269  O2'       22.6520    3.5960   72.9470 O.3    13  G13         0.0000
    270  C1'       24.9840    4.2150   73.0340 C.3    13  G13         0.0000
    271  N1        27.5110    2.2790   69.0560 N.ar   13  G13         0.0000
    272  C2        26.1720    2.5760   69.1920 C.ar   13  G13         0.0000
    273  N2        25.3930    2.3210   68.1300 N.pl3  13  G13         0.0000
    274  N3        25.6310    3.0770   70.2910 N.ar   13  G13         0.0000
    275  C4        26.5400    3.2450   71.2770 C.ar   13  G13         0.0000
    276  C5        27.8960    2.9700   71.2570 C.ar   13  G13         0.0000
    277  C6        28.4750    2.4440   70.0510 C.ar   13  G13         0.0000
    278  O6        29.6620    2.1420   69.8200 O.2    13  G13         0.0000
    279  N7        28.4760    3.2710   72.4870 N.ar   13  G13         0.0000
    280  C8        27.4830    3.7190   73.2160 C.ar   13  G13         0.0000
    281  N9        26.2820    3.7420   72.5400 N.ar   13  G13         0.0000
    282  OP1       27.2170    4.3640   78.7810 O.3    13  G13        -0.5000
    283  OP2       28.7990    3.7510   76.8450 O.co2  13  G13        -0.5000
    284  C5'       26.9830   -0.0170   59.7350 C.3     2  C2          0.0000
    285  O5'       28.3250    0.2970   60.1370 O.3     2  C2          0.0000
    286  C4'       25.9130    0.2250   60.7840 C.3     2  C2          0.0000
    287  O4'       26.2170   -0.5530   61.9840 O.3     2  C2          0.0000
    288  C3'       25.7920    1.6470   61.3140 C.3     2  C2          0.0000
    289  O3'       25.0930    2.5350   60.4460 O.3     2  C2          0.0000
    290  C2'       25.1000    1.4240   62.6580 C.3     2  C2          0.0000
    291  O2'       23.7040    1.1710   62.5770 O.3     2  C2          0.0000
    292  C1'       25.8500    0.1860   63.1550 C.3     2  C2          0.0000
    293  N1        27.0850    0.5300   63.9150 N.ar    2  C2          0.0000
    294  C2        26.9680    0.9410   65.2590 C.ar    2  C2          0.0000
    295  O2        25.8370    0.9960   65.7730 O.2     2  C2          0.0000
    296  N3        28.0930    1.2690   65.9540 N.ar    2  C2          0.0000
    297  C4        29.2930    1.2010   65.3600 C.ar    2  C2          0.0000
    298  N4        30.3790    1.5450   66.0710 N.pl3   2  C2          0.0000
    299  C5        29.4380    0.7810   64.0040 C.ar    2  C2          0.0000
    300  C6        28.3220    0.4600   63.3260 C.ar    2  C2          0.0000
    301  P         25.4750    4.1030   60.4480 P.3     3  G3          0.0000
    302  C5'       23.3740    4.5430   61.9630 C.3     3  G3          0.0000
    303  O5'       24.7840    4.6630   61.7760 O.3     3  G3          0.0000
    304  C4'       22.9720    5.0010   63.3480 C.3     3  G3          0.0000
    305  O4'       23.5250    4.0980   64.3440 O.3     3  G3          0.0000
    306  C3'       23.4740    6.3640   63.7960 C.3     3  G3          0.0000
    307  O3'       22.7130    7.4430   63.2600 O.3     3  G3          0.0000
    308  C2'       23.3350    6.2550   65.3100 C.3     3  G3          0.0000
    309  O2'       22.0130    6.4110   65.7890 O.3     3  G3          0.0000
    310  C1'       23.8000    4.8190   65.5370 C.3     3  G3          0.0000
    311  N1        27.5190    5.8620   68.8050 N.ar    3  G3          0.0000
    312  C2        26.1540    6.0260   68.9440 C.ar    3  G3          0.0000
    313  N2        25.7200    6.5470   70.1030 N.pl3   3  G3          0.0000
    314  N3        25.2770    5.7070   68.0080 N.ar    3  G3          0.0000
    315  C4        25.8750    5.2090   66.9070 C.ar    3  G3          0.0000
    316  C5        27.2200    5.0100   66.6660 C.ar    3  G3          0.0000
    317  C6        28.1550    5.3510   67.6710 C.ar    3  G3          0.0000
    318  O6        29.3920    5.2510   67.6370 O.2     3  G3          0.0000
    319  N7        27.4200    4.4800   65.4000 N.ar    3  G3          0.0000
    320  C8        26.2160    4.3690   64.9050 C.ar    3  G3          0.0000
    321  N9        25.2370    4.7930   65.7680 N.ar    3  G3          0.0000
    322  OP1       24.7950    4.7220   59.2810 O.2     3  G3         -0.5000
    323  OP2       26.9570    4.2270   60.5820 O.co2   3  G3         -0.5000
    324  P         23.3760    8.9090   63.1590 P.3     4  G4          0.0000
    325  C5'       22.4120    9.5480   65.5060 C.3     4  G4          0.0000
    326  O5'       23.5500    9.3530   64.6790 O.3     4  G4          0.0000
    327  C4'       22.8220   10.1980   66.7960 C.3     4  G4          0.0000
    328  O4'       23.4830    9.2330   67.6530 O.3     4  G4          0.0000
    329  C3'       23.8520   11.2940   66.6280 C.3     4  G4          0.0000
    330  O3'       23.2460   12.5080   66.2360 O.3     4  G4          0.0000
    331  C2'       24.4740   11.3530   68.0130 C.3     4  G4          0.0000
    332  O2'       23.6810   12.0280   68.9630 O.3     4  G4          0.0000
    333  C1'       24.5450    9.8670   68.3500 C.3     4  G4          0.0000
    334  N1        29.4810    9.1460   69.2480 N.ar    4  G4          0.0000
    335  C2        28.5220    9.7390   70.0380 C.ar    4  G4          0.0000
    336  N2        28.9400   10.2220   71.2230 N.pl3   4  G4          0.0000
    337  N3        27.2490    9.8560   69.6950 N.ar    4  G4          0.0000
    338  C4        27.0050    9.3390   68.4750 C.ar    4  G4          0.0000
    339  C5        27.8830    8.7330   67.6020 C.ar    4  G4          0.0000
    340  C6        29.2540    8.5990   67.9880 C.ar    4  G4          0.0000
    341  O6        30.1950    8.0790   67.3620 O.2     4  G4          0.0000
    342  N7        27.2270    8.3450   66.4410 N.ar    4  G4          0.0000
    343  C8        25.9910    8.7140   66.6310 C.ar    4  G4          0.0000
    344  N9        25.7920    9.3240   67.8420 N.ar    4  G4          0.0000
    345  OP1       22.3780    9.8080   62.5140 O.2     4  G4         -0.5000
    346  OP2       24.7310    8.7660   62.5640 O.co2   4  G4         -0.5000
    347  P         24.1590   13.6740   65.6350 P.3     5  U5          0.0000
    348  C5'       25.6950   15.2970   66.9710 C.3     5  U5          0.0000
    349  O5'       24.4930   14.5630   66.9080 O.3     5  U5          0.0000
    350  C4'       26.2080   15.3170   68.3830 C.3     5  U5          0.0000
    351  O4'       26.3530   13.9540   68.8630 O.3     5  U5          0.0000
    352  C3'       27.5980   15.9030   68.5000 C.3     5  U5          0.0000
    353  O3'       27.5470   17.3000   68.5890 O.3     5  U5          0.0000
    354  C2'       28.1250   15.2320   69.7470 C.3     5  U5          0.0000
    355  O2'       27.5890   15.8030   70.9240 O.3     5  U5          0.0000
    356  C1'       27.6080   13.8140   69.5120 C.3     5  U5          0.0000
    357  N1        28.4920   13.0640   68.6050 N.ar    5  U5          0.0000
    358  C2        29.8150   12.8970   68.9860 C.ar    5  U5          0.0000
    359  O2        30.2660   13.3670   70.0200 O.2     5  U5          0.0000
    360  N3        30.5860   12.1660   68.1070 N.ar    5  U5          0.0000
    361  C4        30.1780   11.6050   66.9020 C.ar    5  U5          0.0000
    362  O4        30.9890   10.9680   66.2190 O.2     5  U5          0.0000
    363  C5        28.7970   11.8360   66.5740 C.ar    5  U5          0.0000
    364  C6        28.0220   12.5380   67.4150 C.ar    5  U5          0.0000
    365  OP1       23.3260   14.4660   64.6950 O.2     5  U5         -0.5000
    366  OP2       25.4250   13.0580   65.1610 O.co2   5  U5         -0.5000
    367  P         28.3300   18.1590   67.5040 P.3     6  G6          0.0000
    368  C5'       30.1420   18.4630   69.3220 C.3     6  G6          0.0000
    369  O5'       29.8280   18.0760   68.0040 O.3     6  G6          0.0000
    370  C4'       31.5590   18.1040   69.6250 C.3     6  G6          0.0000
    371  O4'       31.6830   16.6630   69.7210 O.3     6  G6          0.0000
    372  C3'       32.5280   18.4520   68.5180 C.3     6  G6          0.0000
    373  O3'       32.8710   19.8180   68.5360 O.3     6  G6          0.0000
    374  C2'       33.6990   17.5400   68.8400 C.3     6  G6          0.0000
    375  O2'       34.5060   17.9940   69.9150 O.3     6  G6          0.0000
    376  C1'       32.9570   16.2640   69.2290 C.3     6  G6          0.0000
    377  N1        35.0540   12.9300   66.0010 N.ar    6  G6          0.0000
    378  C2        35.6280   13.6180   67.0410 C.ar    6  G6          0.0000
    379  N2        36.9270   13.3830   67.2540 N.pl3   6  G6          0.0000
    380  N3        34.9790   14.4730   67.8150 N.ar    6  G6          0.0000
    381  C4        33.6830   14.6020   67.4530 C.ar    6  G6          0.0000
    382  C5        33.0080   13.9740   66.4270 C.ar    6  G6          0.0000
    383  C6        33.7240   13.0360   65.6080 C.ar    6  G6          0.0000
    384  O6        33.3080   12.3540   64.6550 O.2     6  G6          0.0000
    385  N7        31.6810   14.3930   66.3830 N.ar    6  G6          0.0000
    386  C8        31.5730   15.2450   67.3680 C.ar    6  G6          0.0000
    387  N9        32.7450   15.4100   68.0660 N.ar    6  G6          0.0000
    388  OP1       27.8600   19.5550   67.6200 O.3     6  G6         -0.5000
    389  OP2       28.2280   17.4420   66.2110 O.co2   6  G6         -0.5000
    390  P         33.1900   20.5600   67.1570 P.3     7  A7          0.0000
    391  C5'       35.7130   20.0970   67.7310 C.3     7  A7          0.0000
    392  O5'       34.6520   20.0420   66.7770 O.3     7  A7          0.0000
    393  C4'       36.8120   19.1270   67.3560 C.3     7  A7          0.0000
    394  O4'       36.2920   17.7760   67.3170 O.3     7  A7          0.0000
    395  C3'       37.4160   19.3120   65.9830 C.3     7  A7          0.0000
    396  O3'       38.4350   20.2720   66.0570 O.3     7  A7          0.0000
    397  C2'       38.0180   17.9480   65.6960 C.3     7  A7          0.0000
    398  O2'       39.2780   17.7650   66.3020 O.3     7  A7          0.0000
    399  C1'       36.9910   17.0230   66.3410 C.3     7  A7          0.0000
    400  N1        36.1290   13.7090   62.5110 N.ar    7  A7          0.0000
    401  C2        37.2280   14.0050   63.2230 C.ar    7  A7          0.0000
    402  N3        37.3910   14.9020   64.1950 N.ar    7  A7          0.0000
    403  C4        36.2410   15.5560   64.4320 C.ar    7  A7          0.0000
    404  C5        35.0320   15.3730   63.7830 C.ar    7  A7          0.0000
    405  C6        34.9890   14.3900   62.7670 C.ar    7  A7          0.0000
    406  N6        33.8960   14.0950   62.0500 N.pl3   7  A7          0.0000
    407  N7        34.0680   16.2330   64.2980 N.ar    7  A7          0.0000
    408  C8        34.7060   16.8960   65.2320 C.ar    7  A7          0.0000
    409  N9        36.0200   16.5240   65.3780 N.ar    7  A7          0.0000
    410  OP1       33.2800   22.0010   67.4890 O.3     7  A7         -0.5000
    411  OP2       32.1960   20.0950   66.1490 O.co2   7  A7         -0.5000
    412  P         38.6260   21.2870   64.8500 P.3     8  G8          0.0000
    413  C5'       40.1610   19.4110   63.8820 C.3     8  G8          0.0000
    414  O5'       39.1100   20.3410   63.6640 O.3     8  G8          0.0000
    415  C4'       40.4450   18.6150   62.6300 C.3     8  G8          0.0000
    416  O4'       39.3190   17.7500   62.3230 O.3     8  G8          0.0000
    417  C3'       40.6140   19.5270   61.4200 C.3     8  G8          0.0000
    418  O3'       41.8140   19.2610   60.7060 O.3     8  G8          0.0000
    419  C2'       39.2790   19.5040   60.6800 C.3     8  G8          0.0000
    420  O2'       39.4300   19.4450   59.2830 O.3     8  G8          0.0000
    421  C1'       38.7080   18.1610   61.1240 C.3     8  G8          0.0000
    422  N1        34.7520   15.4240   59.5280 N.ar    8  G8          0.0000
    423  C2        36.0920   15.2530   59.2820 C.ar    8  G8          0.0000
    424  N2        36.4210   14.2210   58.4800 N.pl3   8  G8          0.0000
    425  N3        37.0410   16.0330   59.7820 N.ar    8  G8          0.0000
    426  C4        36.5340   17.0120   60.5620 C.ar    8  G8          0.0000
    427  C5        35.2170   17.2660   60.8770 C.ar    8  G8          0.0000
    428  C6        34.2060   16.4220   60.3290 C.ar    8  G8          0.0000
    429  O6        32.9790   16.4820   60.4830 O.2     8  G8          0.0000
    430  N7        35.1180   18.3660   61.7170 N.ar    8  G8          0.0000
    431  C8        36.3560   18.7560   61.8900 C.ar    8  G8          0.0000
    432  N9        37.2620   17.9900   61.2050 N.ar    8  G8          0.0000
    433  OP1       39.7270   22.2240   65.2080 O.3     8  G8         -0.5000
    434  OP2       37.2640   21.8100   64.5400 O.co2   8  G8         -0.5000
    435  P         42.3110   20.2410   59.5330 P.3     9  A9          0.0000
    436  C5'       44.1400   18.3790   59.1940 C.3     9  A9          0.0000
    437  O5'       43.1590   19.2470   58.6180 O.3     9  A9          0.0000
    438  C4'       44.4050   17.2030   58.2790 C.3     9  A9          0.0000
    439  O4'       43.3500   16.2170   58.3930 O.3     9  A9          0.0000
    440  C3'       44.4470   17.5560   56.8080 C.3     9  A9          0.0000
    441  O3'       45.7380   17.9820   56.4560 O.3     9  A9          0.0000
    442  C2'       44.0740   16.2510   56.1250 C.3     9  A9          0.0000
    443  O2'       45.1690   15.3740   55.9930 O.3     9  A9          0.0000
    444  C1'       43.0750   15.6600   57.1200 C.3     9  A9          0.0000
    445  N1        38.9130   14.2380   54.4310 N.ar    9  A9          0.0000
    446  C2        40.1990   13.8670   54.3520 C.ar    9  A9          0.0000
    447  N3        41.2480   14.3030   55.0460 N.ar    9  A9          0.0000
    448  C4        40.8740   15.2550   55.9140 C.ar    9  A9          0.0000
    449  C5        39.5970   15.7540   56.0980 C.ar    9  A9          0.0000
    450  C6        38.5710   15.1920   55.3200 C.ar    9  A9          0.0000
    451  N6        37.2890   15.5330   55.4190 N.pl3   9  A9          0.0000
    452  N7        39.5960   16.7460   57.0650 N.ar    9  A9          0.0000
    453  C8        40.8450   16.8030   57.4560 C.ar    9  A9          0.0000
    454  N9        41.6660   15.9060   56.8260 N.ar    9  A9          0.0000
    455  OP1       43.2790   21.1790   60.1530 O.3     9  A9         -0.5000
    456  OP2       41.1650   20.7820   58.7440 O.co2   9  A9         -0.5000
    457  P         45.8950   19.3070   55.5910 P.3    10  A10         0.0000
    458  C5'       46.0220   17.9440   53.3580 C.3    10  A10         0.0000
    459  O5'       45.3280   18.8920   54.1630 O.3    10  A10         0.0000
    460  C4'       45.1220   17.4300   52.2660 C.3    10  A10         0.0000
    461  O4'       44.0570   16.6260   52.8360 O.3    10  A10         0.0000
    462  C3'       44.3620   18.4990   51.5200 C.3    10  A10         0.0000
    463  O3'       45.1560   19.1060   50.5430 O.3    10  A10         0.0000
    464  C2'       43.2340   17.7030   50.8970 C.3    10  A10         0.0000
    465  O2'       43.6480   16.9640   49.7740 O.3    10  A10         0.0000
    466  C1'       42.8850   16.7600   52.0420 C.3    10  A10         0.0000
    467  N1        37.8170   17.2740   52.5880 N.ar   10  A10         0.0000
    468  C2        38.5680   16.6500   51.6750 C.ar   10  A10         0.0000
    469  N3        39.8910   16.5560   51.5950 N.ar   10  A10         0.0000
    470  C4        40.4710   17.1970   52.6200 C.ar   10  A10         0.0000
    471  C5        39.8360   17.8820   53.6390 C.ar   10  A10         0.0000
    472  C6        38.4360   17.9200   53.5970 C.ar   10  A10         0.0000
    473  N6        37.6920   18.5630   54.4920 N.pl3  10  A10         0.0000
    474  N7        40.7610   18.4120   54.5280 N.ar   10  A10         0.0000
    475  C8        41.9200   18.0440   54.0330 C.ar   10  A10         0.0000
    476  N9        41.8160   17.3100   52.8740 N.ar   10  A10         0.0000
    477  OP1       47.3520   19.5680   55.4630 O.2    10  A10        -0.5000
    478  OP2       44.9960   20.3380   56.1800 O.co2  10  A10        -0.5000
    479  P         44.8430   20.6100   50.1280 P.3    11  G11         0.0000
    480  C5'       43.3070   19.8120   48.1820 C.3    11  G11         0.0000
    481  O5'       43.4330   20.5130   49.4050 O.3    11  G11         0.0000
    482  C4'       41.8640   19.7370   47.7860 C.3    11  G11         0.0000
    483  O4'       41.1450   19.0170   48.8150 O.3    11  G11         0.0000
    484  C3'       41.1590   21.0750   47.7320 C.3    11  G11         0.0000
    485  O3'       41.3180   21.6940   46.4760 O.3    11  G11         0.0000
    486  C2'       39.7160   20.6700   47.9290 C.3    11  G11         0.0000
    487  O2'       39.1900   20.0870   46.7590 O.3    11  G11         0.0000
    488  C1'       39.8660   19.6010   49.0040 C.3    11  G11         0.0000
    489  N1        36.8680   21.3340   52.7510 N.ar   11  G11         0.0000
    490  C2        36.5260   20.9070   51.4960 C.ar   11  G11         0.0000
    491  N2        35.2190   20.9360   51.2010 N.pl3  11  G11         0.0000
    492  N3        37.4010   20.4860   50.5900 N.ar   11  G11         0.0000
    493  C4        38.6700   20.5350   51.0490 C.ar   11  G11         0.0000
    494  C5        39.1190   20.9570   52.2830 C.ar   11  G11         0.0000
    495  C6        38.1650   21.4000   53.2490 C.ar   11  G11         0.0000
    496  O6        38.3600   21.8060   54.4090 O.2    11  G11         0.0000
    497  N7        40.5010   20.8620   52.3620 N.ar   11  G11         0.0000
    498  C8        40.8620   20.3900   51.1970 C.ar   11  G11         0.0000
    499  N9        39.8040   20.1550   50.3560 N.ar   11  G11         0.0000
    500  OP1       45.8560   20.9890   49.1170 O.2    11  G11        -0.5000
    501  OP2       44.6910   21.4080   51.3710 O.co2  11  G11        -0.5000
    502  P         41.3210   23.2900   46.3870 P.3    12  G12         0.0000
    503  C5'       38.9460   23.4950   45.3530 C.3    12  G12         0.0000
    504  O5'       39.7890   23.7070   46.4660 O.3    12  G12         0.0000
    505  C4'       37.5130   23.6900   45.7400 C.3    12  G12         0.0000
    506  O4'       37.2330   22.8780   46.9020 O.3    12  G12         0.0000
    507  C3'       37.1180   25.0770   46.1890 C.3    12  G12         0.0000
    508  O3'       36.8790   25.8890   45.0540 O.3    12  G12         0.0000
    509  C2'       35.8320   24.7690   46.9350 C.3    12  G12         0.0000
    510  O2'       34.7790   24.4080   46.0730 O.3    12  G12         0.0000
    511  C1'       36.2420   23.5120   47.6880 C.3    12  G12         0.0000
    512  N1        35.2420   25.0680   52.3750 N.ar   12  G12         0.0000
    513  C2        34.3950   24.8790   51.3110 C.ar   12  G12         0.0000
    514  N2        33.0920   25.1380   51.5170 N.pl3  12  G12         0.0000
    515  N3        34.7890   24.4690   50.1230 N.ar   12  G12         0.0000
    516  C4        36.1150   24.2730   50.0750 C.ar   12  G12         0.0000
    517  C5        37.0490   24.4420   51.0700 C.ar   12  G12         0.0000
    518  C6        36.6170   24.8600   52.3450 C.ar   12  G12         0.0000
    519  O6        37.2900   25.0320   53.3630 O.2    12  G12         0.0000
    520  N7        38.3210   24.1440   50.6070 N.ar   12  G12         0.0000
    521  C8        38.1330   23.7960   49.3620 C.ar   12  G12         0.0000
    522  N9        36.8140   23.8460   48.9840 N.ar   12  G12         0.0000
    523  OP1       41.8120   23.6510   45.0330 O.2    12  G12        -0.5000
    524  OP2       42.0220   23.7880   47.5970 O.co2  12  G12        -0.5000
    525  P         37.2120   27.4570   45.1140 P.3    13  G13         0.0000
    526  C5'       34.6770   27.8460   45.6530 C.3    13  G13         0.0000
    527  O5'       36.0400   28.0500   46.0200 O.3    13  G13         0.0000
    528  C4'       33.7450   28.2510   46.7740 C.3    13  G13         0.0000
    529  O4'       33.9060   27.3700   47.9120 O.3    13  G13         0.0000
    530  C3'       33.9200   29.6460   47.3450 C.3    13  G13         0.0000
    531  O3'       33.2740   30.5910   46.4930 O.3    13  G13         0.0000
    532  C2'       33.2420   29.4990   48.7030 C.3    13  G13         0.0000
    533  O2'       31.8330   29.5040   48.6260 O.3    13  G13         0.0000
    534  C1'       33.6920   28.0980   49.1040 C.3    13  G13         0.0000
    535  N1        35.8360   28.8420   53.5920 N.ar   13  G13         0.0000
    536  C2        34.5270   28.9450   53.2250 C.ar   13  G13         0.0000
    537  N2        33.6690   29.2870   54.1920 N.pl3  13  G13         0.0000
    538  N3        34.0880   28.7350   52.0000 N.ar   13  G13         0.0000
    539  C4        35.0840   28.4060   51.1620 C.ar   13  G13         0.0000
    540  C5        36.4280   28.2810   51.4270 C.ar   13  G13         0.0000
    541  C6        36.8820   28.5180   52.7400 C.ar   13  G13         0.0000
    542  O6        38.0330   28.4820   53.1760 O.2    13  G13         0.0000
    543  N7        37.1270   27.9330   50.2820 N.ar   13  G13         0.0000
    544  C8        36.2040   27.8530   49.3650 C.ar   13  G13         0.0000
    545  N9        34.9430   28.1210   49.8430 N.ar   13  G13         0.0000
    546  OP1       37.0380   27.9690   43.7330 O.2    13  G13        -0.5000
    547  OP2       38.5210   27.6230   45.8000 O.co2  13  G13        -0.5000
    548  P         26.4870   36.0010   50.0960 P.3    15  G15         0.0000
    549  C5'       26.0300   37.1810   52.4010 C.3    15  G15         0.0000
    550  O5'       25.5710   36.8300   51.1040 O.3    15  G15         0.0000
    551  C4'       24.8640   37.3130   53.3540 C.3    15  G15         0.0000
    552  O4'       23.9850   38.3710   52.9020 O.3    15  G15         0.0000
    553  C3'       23.9570   36.1000   53.4270 C.3    15  G15         0.0000
    554  O3'       24.4320   35.1860   54.3850 O.3    15  G15         0.0000
    555  C2'       22.6560   36.6940   53.9210 C.3    15  G15         0.0000
    556  O2'       22.6850   36.8810   55.3170 O.3    15  G15         0.0000
    557  C1'       22.6440   38.0270   53.1890 C.3    15  G15         0.0000
    558  N1        18.0980   37.9700   51.0120 N.ar   15  G15         0.0000
    559  C2        18.4200   38.0170   52.3400 C.ar   15  G15         0.0000
    560  N2        17.3960   38.0740   53.1950 N.pl3  15  G15         0.0000
    561  N3        19.6560   38.0040   52.7920 N.ar   15  G15         0.0000
    562  C4        20.5570   37.9390   51.7880 C.ar   15  G15         0.0000
    563  C5        20.3340   37.8790   50.4320 C.ar   15  G15         0.0000
    564  C6        19.0110   37.8930   49.9660 C.ar   15  G15         0.0000
    565  O6        18.6140   37.8460   48.8070 O.2    15  G15         0.0000
    566  N7        21.5330   37.8210   49.7350 N.ar   15  G15         0.0000
    567  C8        22.4430   37.8540   50.6680 C.ar   15  G15         0.0000
    568  N9        21.9180   37.9390   51.9320 N.ar   15  G15         0.0000
    569  OP1       26.2550   36.5800   48.7450 O.3    15  G15         0.0000
    570  OP2       26.2530   34.5560   50.3220 O.co2  15  G15        -1.0000
    571  P         24.0370   33.6450   54.2550 P.3    16  G16         0.0000
    572  C5'       22.5060   33.7630   56.3430 C.3    16  G16         0.0000
    573  O5'       22.6230   33.5460   54.9530 O.3    16  G16         0.0000
    574  C4'       21.0600   33.7770   56.7140 C.3    16  G16         0.0000
    575  O4'       20.4360   34.9340   56.1160 O.3    16  G16         0.0000
    576  C3'       20.2790   32.6090   56.1600 C.3    16  G16         0.0000
    577  O3'       20.3690   31.4890   57.0030 O.3    16  G16         0.0000
    578  C2'       18.8660   33.1560   56.1090 C.3    16  G16         0.0000
    579  O2'       18.2170   33.1210   57.3650 O.3    16  G16         0.0000
    580  C1'       19.1340   34.5960   55.6750 C.3    16  G16         0.0000
    581  N1        16.3770   34.9830   51.4360 N.ar   16  G16         0.0000
    582  C2        15.9510   34.8770   52.7370 C.ar   16  G16         0.0000
    583  N2        14.6240   34.8990   52.9310 N.pl3  16  G16         0.0000
    584  N3        16.7650   34.7620   53.7700 N.ar   16  G16         0.0000
    585  C4        18.0580   34.7750   53.3910 C.ar   16  G16         0.0000
    586  C5        18.5820   34.8780   52.1200 C.ar   16  G16         0.0000
    587  C6        17.7060   34.9920   51.0280 C.ar   16  G16         0.0000
    588  O6        17.9860   35.0940   49.8320 O.2    16  G16         0.0000
    589  N7        19.9650   34.8580   52.1540 N.ar   16  G16         0.0000
    590  C8        20.2530   34.7410   53.4190 C.ar   16  G16         0.0000
    591  N9        19.1440   34.6980   54.2230 N.ar   16  G16         0.0000
    592  OP1       24.9730   32.8950   55.1080 O.3    16  G16        -0.5000
    593  OP2       23.8890   33.3010   52.8250 O.co2  16  G16        -0.5000
    594  P         20.3290   30.0370   56.3540 P.3    17  C17         0.0000
    595  C5'       17.7630   29.8110   56.7910 C.3    17  C17         0.0000
    596  O5'       18.8280   29.8760   55.8590 O.3    17  C17         0.0000
    597  C4'       16.4670   29.7100   56.0550 C.3    17  C17         0.0000
    598  O4'       16.2810   30.9380   55.3130 O.3    17  C17         0.0000
    599  C3'       16.4490   28.6420   54.9770 C.3    17  C17         0.0000
    600  O3'       16.1100   27.3610   55.4700 O.3    17  C17         0.0000
    601  C2'       15.3670   29.1530   54.0520 C.3    17  C17         0.0000
    602  O2'       14.0850   28.8910   54.5750 O.3    17  C17         0.0000
    603  C1'       15.6390   30.6520   54.0900 C.3    17  C17         0.0000
    604  N1        16.5240   31.0390   52.9990 N.ar   17  C17         0.0000
    605  C2        15.9460   31.3570   51.7920 C.ar   17  C17         0.0000
    606  O2        14.7160   31.3110   51.6990 O.2    17  C17         0.0000
    607  N3        16.7210   31.7020   50.7530 N.ar   17  C17         0.0000
    608  C4        18.0400   31.7390   50.8960 C.ar   17  C17         0.0000
    609  N4        18.7650   32.0830   49.8340 N.pl3  17  C17         0.0000
    610  C5        18.6700   31.4220   52.1320 C.ar   17  C17         0.0000
    611  C6        17.8800   31.0810   53.1510 C.ar   17  C17         0.0000
    612  OP1       20.5880   29.0760   57.4550 O.3    17  C17        -0.5000
    613  OP2       21.2140   30.0680   55.1640 O.co2  17  C17        -0.5000
    614  P         16.5090   26.0650   54.6140 P.3    18  A18         0.0000
    615  C5'       14.2110   26.0790   53.4040 C.3    18  A18         0.0000
    616  O5'       15.6150   26.1870   53.3090 O.3    18  A18         0.0000
    617  C4'       13.5960   26.2080   52.0480 C.3    18  A18         0.0000
    618  O4'       13.8290   27.5460   51.5490 O.3    18  A18         0.0000
    619  C3'       14.2690   25.3420   51.0110 C.3    18  A18         0.0000
    620  O3'       13.7930   24.0200   51.0480 O.3    18  A18         0.0000
    621  C2'       13.9040   26.0450   49.7210 C.3    18  A18         0.0000
    622  O2'       12.5770   25.7890   49.3370 O.3    18  A18         0.0000
    623  C1'       13.9990   27.5000   50.1490 C.3    18  A18         0.0000
    624  N1        16.8970   29.1970   46.3360 N.ar   18  A18         0.0000
    625  C2        15.6610   28.6870   46.3790 C.ar   18  A18         0.0000
    626  N3        14.9730   28.2450   47.4230 N.ar   18  A18         0.0000
    627  C4        15.6950   28.3660   48.5500 C.ar   18  A18         0.0000
    628  C5        16.9760   28.8600   48.6690 C.ar   18  A18         0.0000
    629  C6        17.5950   29.3000   47.4890 C.ar   18  A18         0.0000
    630  N6        18.8220   29.8140   47.4470 N.pl3  18  A18         0.0000
    631  N7        17.3940   28.8210   49.9930 N.ar   18  A18         0.0000
    632  C8        16.3660   28.3170   50.6310 C.ar   18  A18         0.0000
    633  N9        15.3040   28.0340   49.8180 N.ar   18  A18         0.0000
    634  OP1       16.0910   24.8490   55.3550 O.3    18  A18        -0.5000
    635  OP2       17.9230   26.2320   54.1980 O.co2  18  A18        -0.5000
    636  P         14.7440   22.8390   50.5380 P.3    19  G19         0.0000
    637  C5'       13.4780   22.7160   48.2470 C.3    19  G19         0.0000
    638  O5'       14.6940   22.9660   48.9450 O.3    19  G19         0.0000
    639  C4'       13.5790   23.1080   46.7880 C.3    19  G19         0.0000
    640  O4'       13.8850   24.5230   46.6890 O.3    19  G19         0.0000
    641  C3'       14.6970   22.4510   46.0010 C.3    19  G19         0.0000
    642  O3'       14.3190   21.1770   45.5250 O.3    19  G19         0.0000
    643  C2'       14.8990   23.4190   44.8480 C.3    19  G19         0.0000
    644  O2'       13.9700   23.2780   43.7990 O.3    19  G19         0.0000
    645  C1'       14.6770   24.7530   45.5420 C.3    19  G19         0.0000
    646  N1        18.9350   26.8530   43.9190 N.ar   19  G19         0.0000
    647  C2        17.8520   26.4050   43.2090 C.ar   19  G19         0.0000
    648  N2        17.9220   26.5260   41.8730 N.pl3  19  G19         0.0000
    649  N3        16.7810   25.8700   43.7640 N.ar   19  G19         0.0000
    650  C4        16.8900   25.8020   45.1040 C.ar   19  G19         0.0000
    651  C5        17.9270   26.2060   45.9060 C.ar   19  G19         0.0000
    652  C6        19.0650   26.7910   45.3030 C.ar   19  G19         0.0000
    653  O6        20.0860   27.2200   45.8430 O.2    19  G19         0.0000
    654  N7        17.6450   25.9500   47.2390 N.ar   19  G19         0.0000
    655  C8        16.4610   25.4080   47.2120 C.ar   19  G19         0.0000
    656  N9        15.9530   25.2990   45.9480 N.ar   19  G19         0.0000
    657  OP1       14.1210   21.5570   50.9700 O.2    19  G19        -0.5000
    658  OP2       16.1210   23.1720   50.9830 O.co2  19  G19        -0.5000
    659  P         15.4410   20.0450   45.3440 P.3    20  A20         0.0000
    660  C5'       15.9110   20.6140   42.8520 C.3    20  A20         0.0000
    661  O5'       16.3810   20.6060   44.1870 O.3    20  A20         0.0000
    662  C4'       16.9260   21.2350   41.9330 C.3    20  A20         0.0000
    663  O4'       17.1490   22.6030   42.3450 O.3    20  A20         0.0000
    664  C3'       18.3120   20.6160   41.9450 C.3    20  A20         0.0000
    665  O3'       18.3980   19.4850   41.0960 O.3    20  A20         0.0000
    666  C2'       19.1830   21.7640   41.4550 C.3    20  A20         0.0000
    667  O2'       19.2060   21.9550   40.0550 O.3    20  A20         0.0000
    668  C1'       18.5020   22.9480   42.1270 C.3    20  A20         0.0000
    669  N1        22.5320   24.9460   44.4950 N.ar   20  A20         0.0000
    670  C2        22.1930   24.8510   43.1960 C.ar   20  A20         0.0000
    671  N3        21.1160   24.3030   42.6500 N.ar   20  A20         0.0000
    672  C4        20.3140   23.7980   43.6060 C.ar   20  A20         0.0000
    673  C5        20.5250   23.8110   44.9720 C.ar   20  A20         0.0000
    674  C6        21.6940   24.4240   45.4270 C.ar   20  A20         0.0000
    675  N6        22.0150   24.5220   46.7170 N.pl3  20  A20         0.0000
    676  N7        19.4750   23.1890   45.6380 N.ar   20  A20         0.0000
    677  C8        18.6660   22.8290   44.6710 C.ar   20  A20         0.0000
    678  N9        19.1150   23.1740   43.4190 N.ar   20  A20         0.0000
    679  OP1       14.7850   18.8110   44.8440 O.2    20  A20        -0.5000
    680  OP2       16.2130   20.0080   46.6090 O.co2  20  A20        -0.5000
    681  P         19.4170   18.3060   41.4670 P.3    21  G21         0.0000
    682  C5'       21.2660   19.5350   40.0940 C.3    21  G21         0.0000
    683  O5'       20.8440   18.9990   41.3400 O.3    21  G21         0.0000
    684  C4'       22.5940   20.2190   40.2530 C.3    21  G21         0.0000
    685  O4'       22.4390   21.3480   41.1550 O.3    21  G21         0.0000
    686  C3'       23.6640   19.3700   40.9140 C.3    21  G21         0.0000
    687  O3'       24.3220   18.5530   39.9630 O.3    21  G21         0.0000
    688  C2'       24.6030   20.4310   41.4580 C.3    21  G21         0.0000
    689  O2'       25.3780   20.9790   40.4140 O.3    21  G21         0.0000
    690  C1'       23.6130   21.4910   41.9360 C.3    21  G21         0.0000
    691  N1        24.9470   22.6960   46.6990 N.ar   21  G21         0.0000
    692  C2        25.5580   23.0050   45.5140 C.ar   21  G21         0.0000
    693  N2        26.6590   23.7590   45.6110 N.pl3  21  G21         0.0000
    694  N3        25.1200   22.6100   44.3240 N.ar   21  G21         0.0000
    695  C4        23.9860   21.8740   44.4140 C.ar   21  G21         0.0000
    696  C5        23.2860   21.5040   45.5490 C.ar   21  G21         0.0000
    697  C6        23.7890   21.9350   46.8340 C.ar   21  G21         0.0000
    698  O6        23.3380   21.7120   47.9690 O.2    21  G21         0.0000
    699  N7        22.1680   20.7440   45.2120 N.ar   21  G21         0.0000
    700  C8        22.2050   20.6710   43.9020 C.ar   21  G21         0.0000
    701  N9        23.2750   21.3430   43.3530 N.ar   21  G21         0.0000
    702  OP1       19.3330   17.2550   40.4190 O.2    21  G21        -0.5000
    703  OP2       19.1460   17.9580   42.8890 O.co2  21  G21        -0.5000
    704  P         24.6220   17.0170   40.3100 P.3    22  A22         0.0000
    705  C5'       27.2350   16.7710   39.9640 C.3    22  A22         0.0000
    706  O5'       25.9130   16.6930   39.4260 O.3    22  A22         0.0000
    707  C4'       28.0070   17.8870   39.2920 C.3    22  A22         0.0000
    708  O4'       27.5610   19.1580   39.8210 O.3    22  A22         0.0000
    709  C3'       29.5000   17.8970   39.5620 C.3    22  A22         0.0000
    710  O3'       30.1460   17.0970   38.6060 O.3    22  A22         0.0000
    711  C2'       29.8860   19.3510   39.3490 C.3    22  A22         0.0000
    712  O2'       30.1260   19.7310   38.0170 O.3    22  A22         0.0000
    713  C1'       28.6540   20.0610   39.8920 C.3    22  A22         0.0000
    714  N1        31.4380   22.9560   43.0380 N.ar   22  A22         0.0000
    715  C2        31.4330   22.8130   41.7070 C.ar   22  A22         0.0000
    716  N3        30.6630   22.0370   40.9510 N.ar   22  A22         0.0000
    717  C4        29.7930   21.3500   41.7120 C.ar   22  A22         0.0000
    718  C5        29.6700   21.3930   43.0880 C.ar   22  A22         0.0000
    719  C6        30.5590   22.2310   43.7710 C.ar   22  A22         0.0000
    720  N6        30.5910   22.3370   45.0960 N.pl3  22  A22         0.0000
    721  N7        28.6560   20.5500   43.5200 N.ar   22  A22         0.0000
    722  C8        28.1990   20.0180   42.4120 C.ar   22  A22         0.0000
    723  N9        28.8510   20.4500   41.2840 N.ar   22  A22         0.0000
    724  OP1       23.4670   16.2440   39.7820 O.2    22  A22        -0.5000
    725  OP2       24.9630   16.9220   41.7530 O.co2  22  A22        -0.5000
    726  P         31.3710   16.1910   39.0540 P.3    23  A23         0.0000
    727  C5'       32.9690   18.0590   38.2260 C.3    23  A23         0.0000
    728  O5'       32.5210   17.2490   39.2890 O.3    23  A23         0.0000
    729  C4'       33.8220   19.1550   38.7740 C.3    23  A23         0.0000
    730  O4'       33.0110   19.9490   39.6730 O.3    23  A23         0.0000
    731  C3'       34.9650   18.6580   39.6420 C.3    23  A23         0.0000
    732  O3'       36.1140   18.3710   38.8510 O.3    23  A23         0.0000
    733  C2'       35.2250   19.8530   40.5430 C.3    23  A23         0.0000
    734  O2'       36.0280   20.8390   39.9400 O.3    23  A23         0.0000
    735  C1'       33.8080   20.3830   40.7620 C.3    23  A23         0.0000
    736  N1        33.9780   20.5650   45.8830 N.ar   23  A23         0.0000
    737  C2        34.7030   21.1690   44.9340 C.ar   23  A23         0.0000
    738  N3        34.6130   21.0640   43.6130 N.ar   23  A23         0.0000
    739  C4        33.6270   20.2190   43.2710 C.ar   23  A23         0.0000
    740  C5        32.7960   19.5220   44.1290 C.ar   23  A23         0.0000
    741  C6        33.0000   19.7130   45.5070 C.ar   23  A23         0.0000
    742  N6        32.2880   19.1000   46.4530 N.pl3  23  A23         0.0000
    743  N7        31.8940   18.7450   43.4170 N.ar   23  A23         0.0000
    744  C8        32.1950   18.9840   42.1610 C.ar   23  A23         0.0000
    745  N9        33.2280   19.8740   42.0010 N.ar   23  A23         0.0000
    746  OP1       31.7810   15.3450   37.9120 O.2    23  A23        -0.5000
    747  OP2       30.9920   15.5740   40.3480 O.co2  23  A23        -0.5000
    748  P         37.0640   17.1360   39.2430 P.3    24  A24         0.0000
    749  C5'       38.8310   18.7100   40.3890 C.3    24  A24         0.0000
    750  O5'       37.8830   17.6570   40.5050 O.3    24  A24         0.0000
    751  C4'       39.2610   19.1410   41.7640 C.3    24  A24         0.0000
    752  O4'       38.1240   19.7150   42.4610 O.3    24  A24         0.0000
    753  C3'       39.7340   18.0210   42.6700 C.3    24  A24         0.0000
    754  O3'       41.1010   17.7270   42.4640 O.3    24  A24         0.0000
    755  C2'       39.4820   18.5970   44.0520 C.3    24  A24         0.0000
    756  O2'       40.4880   19.5060   44.4520 O.3    24  A24         0.0000
    757  C1'       38.1580   19.3260   43.8230 C.3    24  A24         0.0000
    758  N1        35.0590   17.1240   47.2790 N.ar   24  A24         0.0000
    759  C2        36.1200   17.9360   47.4020 C.ar   24  A24         0.0000
    760  N3        36.8940   18.4630   46.4610 N.ar   24  A24         0.0000
    761  C4        36.4790   18.0780   45.2440 C.ar   24  A24         0.0000
    762  C5        35.4090   17.2480   44.9500 C.ar   24  A24         0.0000
    763  C6        34.6690   16.7520   46.0440 C.ar   24  A24         0.0000
    764  N6        33.6140   15.9460   45.9310 N.pl3  24  A24         0.0000
    765  N7        35.2860   17.0780   43.5730 N.ar   24  A24         0.0000
    766  C8        36.2670   17.7960   43.0800 C.ar   24  A24         0.0000
    767  N9        37.0220   18.4370   44.0370 N.ar   24  A24         0.0000
    768  OP1       38.0240   16.9250   38.1190 O.2    24  A24        -0.5000
    769  OP2       36.1670   16.0280   39.6750 O.co2  24  A24        -0.5000
    770  P         41.6110   16.2230   42.6530 P.3    25  C25         0.0000
    771  C5'       42.3060   16.7500   45.1230 C.3    25  C25         0.0000
    772  O5'       41.5190   15.9810   44.2230 O.3    25  C25         0.0000
    773  C4'       41.8800   16.4830   46.5440 C.3    25  C25         0.0000
    774  O4'       40.5090   16.9050   46.7000 O.3    25  C25         0.0000
    775  C3'       41.8780   15.0280   46.9750 C.3    25  C25         0.0000
    776  O3'       43.1500   14.6760   47.4700 O.3    25  C25         0.0000
    777  C2'       40.8750   15.0340   48.1080 C.3    25  C25         0.0000
    778  O2'       41.4350   15.5270   49.3010 O.3    25  C25         0.0000
    779  C1'       39.8480   16.0290   47.5840 C.3    25  C25         0.0000
    780  N1        38.7640   15.3710   46.8620 N.ar   25  C25         0.0000
    781  C2        37.7850   14.7510   47.6080 C.ar   25  C25         0.0000
    782  O2        37.8860   14.7830   48.8330 O.2    25  C25         0.0000
    783  N3        36.7580   14.1290   46.9890 N.ar   25  C25         0.0000
    784  C4        36.7080   14.1060   45.6570 C.ar   25  C25         0.0000
    785  N4        35.6900   13.4630   45.0850 N.pl3  25  C25         0.0000
    786  C5        37.7080   14.7400   44.8540 C.ar   25  C25         0.0000
    787  C6        38.7100   15.3570   45.4960 C.ar   25  C25         0.0000
    788  OP1       43.0390   16.1810   42.2450 O.3    25  C25        -0.5000
    789  OP2       40.6230   15.3300   41.9970 O.co2  25  C25        -0.5000
    790  P         43.5840   13.1380   47.5010 P.3    26  A26         0.0000
    791  C5'       42.8220   12.8230   49.9520 C.3    26  A26         0.0000
    792  O5'       42.6430   12.4870   48.5940 O.3    26  A26         0.0000
    793  C4'       41.7810   12.1500   50.7790 C.3    26  A26         0.0000
    794  O4'       40.4900   12.6030   50.3330 O.3    26  A26         0.0000
    795  C3'       41.7130   10.6650   50.5510 C.3    26  A26         0.0000
    796  O3'       42.6570   10.0000   51.3440 O.3    26  A26         0.0000
    797  C2'       40.2900   10.3350   50.9560 C.3    26  A26         0.0000
    798  O2'       40.0850   10.2970   52.3480 O.3    26  A26         0.0000
    799  C1'       39.5570   11.5450   50.4030 C.3    26  A26         0.0000
    800  N1        35.8400    9.4650   47.5330 N.ar   26  A26         0.0000
    801  C2        36.0460    9.5020   48.8580 C.ar   26  A26         0.0000
    802  N3        37.0450   10.0560   49.5430 N.ar   26  A26         0.0000
    803  C4        37.9300   10.6270   48.7090 C.ar   26  A26         0.0000
    804  C5        37.8670   10.6700   47.3290 C.ar   26  A26         0.0000
    805  C6        36.7500   10.0530   46.7220 C.ar   26  A26         0.0000
    806  N6        36.5440   10.0200   45.4030 N.pl3  26  A26         0.0000
    807  N7        38.9680   11.3420   46.8110 N.ar   26  A26         0.0000
    808  C8        39.6510   11.6940   47.8740 C.ar   26  A26         0.0000
    809  N9        39.0750   11.3000   49.0530 N.ar   26  A26         0.0000
    810  OP1       44.9670   13.1060   48.0210 O.3    26  A26        -0.5000
    811  OP2       43.2590   12.5090   46.2040 O.co2  26  A26        -0.5000
    812  P         43.2810    8.6330   50.8150 P.3    27  C27         0.0000
    813  C5'       41.4500    7.2470   52.0510 C.3    27  C27         0.0000
    814  O5'       42.0430    7.6300   50.8180 O.3    27  C27         0.0000
    815  C4'       40.1460    6.5220   51.8200 C.3    27  C27         0.0000
    816  O4'       39.2630    7.3910   51.0620 O.3    27  C27         0.0000
    817  C3'       40.2350    5.2770   50.9510 C.3    27  C27         0.0000
    818  O3'       40.5930    4.1250   51.6950 O.3    27  C27         0.0000
    819  C2'       38.8130    5.1460   50.4320 C.3    27  C27         0.0000
    820  O2'       37.9370    4.5260   51.3570 O.3    27  C27         0.0000
    821  C1'       38.4410    6.6080   50.2030 C.3    27  C27         0.0000
    822  N1        38.6590    7.0100   48.8020 N.ar   27  C27         0.0000
    823  C2        37.6490    6.7490   47.8580 C.ar   27  C27         0.0000
    824  O2        36.5900    6.2190   48.2420 O.2    27  C27         0.0000
    825  N3        37.8520    7.0860   46.5570 N.ar   27  C27         0.0000
    826  C4        38.9970    7.6770   46.1900 C.ar   27  C27         0.0000
    827  N4        39.1500    8.0080   44.9030 N.pl3  27  C27         0.0000
    828  C5        40.0340    7.9600   47.1300 C.ar   27  C27         0.0000
    829  C6        39.8250    7.6120   48.4120 C.ar   27  C27         0.0000
    830  OP1       44.2550    8.1820   51.8380 O.3    27  C27        -0.5000
    831  OP2       43.7270    8.8950   49.4230 O.co2  27  C27        -0.5000
    832  P         41.4180    2.9460   50.9850 P.3    28  A28         0.0000
    833  C5'       39.3050    1.4500   50.9650 C.3    28  A28         0.0000
    834  O5'       40.2940    2.1280   50.2210 O.3    28  A28         0.0000
    835  C4'       38.2650    0.8980   50.0460 C.3    28  A28         0.0000
    836  O4'       37.6040    1.9970   49.3750 O.3    28  A28         0.0000
    837  C3'       38.8040    0.0530   48.9120 C.3    28  A28         0.0000
    838  O3'       39.0280   -1.2830   49.3180 O.3    28  A28         0.0000
    839  C2'       37.6900    0.1600   47.8820 C.3    28  A28         0.0000
    840  O2'       36.5840   -0.6570   48.2040 O.3    28  A28         0.0000
    841  C1'       37.2870    1.6240   48.0420 C.3    28  A28         0.0000
    842  N1        37.5370    3.7190   43.3270 N.ar   28  A28         0.0000
    843  C2        36.6590    2.8770   43.8890 C.ar   28  A28         0.0000
    844  N3        36.6510    2.3630   45.1180 N.ar   28  A28         0.0000
    845  C4        37.7130    2.8010   45.8270 C.ar   28  A28         0.0000
    846  C5        38.7020    3.6640   45.3850 C.ar   28  A28         0.0000
    847  C6        38.5900    4.1420   44.0600 C.ar   28  A28         0.0000
    848  N6        39.4540    4.9840   43.4950 N.pl3  28  A28         0.0000
    849  N7        39.6380    3.8880   46.3890 N.ar   28  A28         0.0000
    850  C8        39.1990    3.1740   47.4010 C.ar   28  A28         0.0000
    851  N9        38.0360    2.4930   47.1330 N.ar   28  A28         0.0000
    852  OP1       41.9650    2.0670   52.0510 O.3    28  A28        -0.5000
    853  OP2       42.3370    3.5640   49.9950 O.co2  28  A28        -0.5000
    854  P         40.1670   -2.1430   48.5940 P.3    29  C29         0.0000
    855  C5'       38.4950   -3.2840   46.9520 C.3    29  C29         0.0000
    856  O5'       39.5870   -2.3960   47.1310 O.3    29  C29         0.0000
    857  C4'       37.9440   -3.2040   45.5470 C.3    29  C29         0.0000
    858  O4'       37.4740   -1.8540   45.2850 O.3    29  C29         0.0000
    859  C3'       38.9290   -3.4720   44.4220 C.3    29  C29         0.0000
    860  O3'       39.0730   -4.8600   44.1840 O.3    29  C29         0.0000
    861  C2'       38.2570   -2.7820   43.2480 C.3    29  C29         0.0000
    862  O2'       37.2160   -3.5600   42.7010 O.3    29  C29         0.0000
    863  C1'       37.6860   -1.5360   43.9200 C.3    29  C29         0.0000
    864  N1        38.6700   -0.4600   43.8330 N.ar   29  C29         0.0000
    865  C2        38.7400    0.2760   42.6520 C.ar   29  C29         0.0000
    866  O2        37.9100    0.0430   41.7550 O.2    29  C29         0.0000
    867  N3        39.6980    1.2200   42.5190 N.ar   29  C29         0.0000
    868  C4        40.5500    1.4460   43.5210 C.ar   29  C29         0.0000
    869  N4        41.4920    2.3690   43.3430 N.pl3  29  C29         0.0000
    870  C5        40.4740    0.7300   44.7520 C.ar   29  C29         0.0000
    871  C6        39.5260   -0.2020   44.8640 C.ar   29  C29         0.0000
    872  OP1       40.2230   -3.4300   49.3290 O.3    29  C29        -0.5000
    873  OP2       41.3800   -1.3010   48.4910 O.co2  29  C29        -0.5000
    874  P         40.4090   -5.4090   43.4850 P.3    30  G30         0.0000
    875  C5'       39.1750   -5.3110   41.1940 C.3    30  G30         0.0000
    876  O5'       40.2680   -4.8990   41.9910 O.3    30  G30         0.0000
    877  C4'       39.3200   -4.7530   39.8050 C.3    30  G30         0.0000
    878  O4'       39.0450   -3.3300   39.8350 O.3    30  G30         0.0000
    879  C3'       40.7230   -4.8390   39.2290 C.3    30  G30         0.0000
    880  O3'       41.0330   -6.1100   38.6760 O.3    30  G30         0.0000
    881  C2'       40.6870   -3.7430   38.1840 C.3    30  G30         0.0000
    882  O2'       39.9600   -4.1600   37.0480 O.3    30  G30         0.0000
    883  C1'       39.8990   -2.6630   38.9260 C.3    30  G30         0.0000
    884  N1        43.0350    1.3200   38.7270 N.ar   30  G30         0.0000
    885  C2        42.2650    0.7710   37.7450 C.ar   30  G30         0.0000
    886  N2        42.3680    1.3450   36.5490 N.pl3  30  G30         0.0000
    887  N3        41.4590   -0.2610   37.9210 N.ar   30  G30         0.0000
    888  C4        41.4930   -0.7120   39.1870 C.ar   30  G30         0.0000
    889  C5        42.2320   -0.2320   40.2460 C.ar   30  G30         0.0000
    890  C6        43.0870    0.8760   40.0360 C.ar   30  G30         0.0000
    891  O6        43.8220    1.4400   40.8430 O.2    30  G30         0.0000
    892  N7        41.9880   -0.9750   41.3930 N.ar   30  G30         0.0000
    893  C8        41.1250   -1.8810   41.0160 C.ar   30  G30         0.0000
    894  N9        40.7920   -1.7880   39.6850 N.ar   30  G30         0.0000
    895  OP1       40.3060   -6.8840   43.4830 O.2    30  G30        -0.5000
    896  OP2       41.6110   -4.7580   44.0590 O.co2  30  G30        -0.5000
    897  P         42.5640   -6.4870   38.3660 P.3    31  A31         0.0000
    898  C5'       44.2390   -5.5090   36.6180 C.3    31  A31         0.0000
    899  O5'       42.9120   -5.5740   37.1110 O.3    31  A31         0.0000
    900  C4'       44.4110   -4.3130   35.7150 C.3    31  A31         0.0000
    901  O4'       43.7100   -3.1690   36.2560 O.3    31  A31         0.0000
    902  C3'       45.8420   -3.8450   35.5410 C.3    31  A31         0.0000
    903  O3'       46.6280   -4.6890   34.7140 O.3    31  A31         0.0000
    904  C2'       45.6580   -2.3870   35.1510 C.3    31  A31         0.0000
    905  O2'       45.2810   -2.2340   33.7940 O.3    31  A31         0.0000
    906  C1'       44.4910   -1.9970   36.0630 C.3    31  A31         0.0000
    907  N1        47.2260    1.3990   38.8370 N.ar   31  A31         0.0000
    908  C2        46.9750    1.3210   37.5280 C.ar   31  A31         0.0000
    909  N3        46.2630    0.4220   36.8610 N.ar   31  A31         0.0000
    910  C4        45.7510   -0.4890   37.7020 C.ar   31  A31         0.0000
    911  C5        45.9200   -0.5310   39.0720 C.ar   31  A31         0.0000
    912  C6        46.7070    0.4600   39.6480 C.ar   31  A31         0.0000
    913  N6        46.9800    0.5140   40.9480 N.pl3  31  A31         0.0000
    914  N7        45.2440   -1.6100   39.6200 N.ar   31  A31         0.0000
    915  C8        44.6960   -2.1950   38.5840 C.ar   31  A31         0.0000
    916  N9        44.9600   -1.5710   37.3870 N.ar   31  A31         0.0000
    917  OP1       42.5900   -7.8970   37.9140 O.2    31  A31        -0.5000
    918  OP2       43.4090   -6.0720   39.5220 O.co2  31  A31        -0.5000
    919  C5'       49.6680    9.5840   40.3950 C.3    31  U31         0.0000
    920  O5'       50.9250    9.4200   41.0670 O.3    31  U31         0.0000
    921  C4'       49.7930    9.2020   38.9400 C.3    31  U31         0.0000
    922  O4'       50.6350    8.0270   38.8340 O.3    31  U31         0.0000
    923  C3'       48.4750    8.8470   38.2720 C.3    31  U31         0.0000
    924  O3'       47.9580    9.9880   37.6080 O.3    31  U31         0.0000
    925  C2'       48.8850    7.7840   37.2700 C.3    31  U31         0.0000
    926  O2'       49.3850    8.3820   36.0890 O.3    31  U31         0.0000
    927  C1'       49.9900    7.0500   38.0450 C.3    31  U31         0.0000
    928  N1        49.5370    5.9940   38.9690 N.ar   31  U31         0.0000
    929  C2        48.7620    4.9600   38.4750 C.ar   31  U31         0.0000
    930  O2        48.4790    4.8460   37.2950 O.2    31  U31         0.0000
    931  N3        48.3320    4.0610   39.4190 N.ar   31  U31         0.0000
    932  C4        48.5990    4.0830   40.7700 C.ar   31  U31         0.0000
    933  O4        48.0130    3.3000   41.5110 O.2    31  U31         0.0000
    934  C5        49.4420    5.1500   41.1920 C.ar   31  U31         0.0000
    935  C6        49.8680    6.0470   40.3050 C.ar   31  U31         0.0000
    936  P         46.4110   10.3680   37.7680 P.3    32  C32         0.0000
    937  C5'       46.0220    9.4730   35.3670 C.3    32  C32         0.0000
    938  O5'       45.6820    9.4150   36.7340 O.3    32  C32         0.0000
    939  C4'       45.5660    8.2250   34.6920 C.3    32  C32         0.0000
    940  O4'       46.2950    7.1010   35.2450 O.3    32  C32         0.0000
    941  C3'       44.1210    7.8770   34.9720 C.3    32  C32         0.0000
    942  O3'       43.2500    8.5310   34.0760 O.3    32  C32         0.0000
    943  C2'       44.1150    6.3970   34.6780 C.3    32  C32         0.0000
    944  O2'       44.1770    6.1860   33.2880 O.3    32  C32         0.0000
    945  C1'       45.4400    5.9740   35.2980 C.3    32  C32         0.0000
    946  N1        45.2830    5.5420   36.6950 N.ar   32  C32         0.0000
    947  C2        44.5360    4.3880   36.9540 C.ar   32  C32         0.0000
    948  O2        44.0070    3.7940   36.0080 O.2    32  C32         0.0000
    949  N3        44.4000    3.9520   38.2250 N.ar   32  C32         0.0000
    950  C4        44.9660    4.6260   39.2220 C.ar   32  C32         0.0000
    951  N4        44.8030    4.1550   40.4570 N.pl3  32  C32         0.0000
    952  C5        45.7220    5.8130   38.9950 C.ar   32  C32         0.0000
    953  C6        45.8530    6.2330   37.7250 C.ar   32  C32         0.0000
    954  OP1       46.2320   11.7510   37.2610 O.2    32  C32        -0.5000
    955  OP2       45.9880   10.0170   39.1540 O.co2  32  C32        -0.5000
    956  P         41.7750    8.9080   34.5590 P.3    33  G33         0.0000
    957  C5'       40.5470    7.0140   33.2160 C.3    33  G33         0.0000
    958  O5'       40.9530    7.5490   34.4720 O.3    33  G33         0.0000
    959  C4'       39.8370    5.7090   33.4350 C.3    33  G33         0.0000
    960  O4'       40.7050    4.8300   34.1830 O.3    33  G33         0.0000
    961  C3'       38.6140    5.8490   34.3050 C.3    33  G33         0.0000
    962  O3'       37.5170    6.0810   33.4730 O.3    33  G33         0.0000
    963  C2'       38.4950    4.4910   34.9670 C.3    33  G33         0.0000
    964  O2'       37.9100    3.5330   34.1230 O.3    33  G33         0.0000
    965  C1'       39.9570    4.1220   35.1480 C.3    33  G33         0.0000
    966  N1        40.1120    2.8560   40.0390 N.ar   33  G33         0.0000
    967  C2        39.3670    2.3110   39.0320 C.ar   33  G33         0.0000
    968  N2        38.5970    1.2820   39.3720 N.pl3  33  G33         0.0000
    969  N3        39.3810    2.7460   37.7860 N.ar   33  G33         0.0000
    970  C4        40.2230    3.7900   37.6330 C.ar   33  G33         0.0000
    971  C5        41.0050    4.4090   38.5820 C.ar   33  G33         0.0000
    972  C6        40.9770    3.9350   39.9000 C.ar   33  G33         0.0000
    973  O6        41.6040    4.3550   40.8710 O.2    33  G33         0.0000
    974  N7        41.7240    5.4570   38.0230 N.ar   33  G33         0.0000
    975  C8        41.3780    5.4500   36.7660 C.ar   33  G33         0.0000
    976  N9        40.4880    4.4490   36.4600 N.ar   33  G33         0.0000
    977  OP1       41.1830    9.8330   33.5710 O.2    33  G33        -0.5000
    978  OP2       41.9200    9.3230   35.9780 O.co2  33  G33        -0.5000
    979  P         36.2450    6.8160   34.0700 P.3    34  U34         0.0000
    980  C5'       34.8300    4.6690   34.5280 C.3    34  U34         0.0000
    981  O5'       35.6050    5.7380   35.0520 O.3    34  U34         0.0000
    982  C4'       34.4750    3.6930   35.6170 C.3    34  U34         0.0000
    983  O4'       35.6930    3.2140   36.2370 O.3    34  U34         0.0000
    984  C3'       33.6700    4.2390   36.7780 C.3    34  U34         0.0000
    985  O3'       32.2940    4.2700   36.4570 O.3    34  U34         0.0000
    986  C2'       33.9610    3.2130   37.8580 C.3    34  U34         0.0000
    987  O2'       33.2250    2.0230   37.7120 O.3    34  U34         0.0000
    988  C1'       35.4340    2.9180   37.5930 C.3    34  U34         0.0000
    989  N1        36.2720    3.7810   38.4220 N.ar   34  U34         0.0000
    990  C2        36.2470    3.5310   39.7690 C.ar   34  U34         0.0000
    991  O2        35.5620    2.6420   40.2530 O.2    34  U34         0.0000
    992  N3        37.0400    4.3530   40.5270 N.ar   34  U34         0.0000
    993  C4        37.8320    5.3800   40.0710 C.ar   34  U34         0.0000
    994  O4        38.4870    6.0390   40.8800 O.2    34  U34         0.0000
    995  C5        37.7960    5.5790   38.6490 C.ar   34  U34         0.0000
    996  C6        37.0360    4.7880   37.8930 C.ar   34  U34         0.0000
    997  OP1       35.2970    7.0770   32.9570 O.2    34  U34        -0.5000
    998  OP2       36.7950    7.9390   34.8570 O.co2  34  U34        -0.5000
    999  P         31.3310    5.3090   37.2090 P.3    35  G35         0.0000
   1000  C5'       30.7130    3.4470   38.9410 C.3    35  G35         0.0000
   1001  O5'       31.2380    4.7460   38.6940 O.3    35  G35         0.0000
   1002  C4'       30.8590    3.1040   40.4000 C.3    35  G35         0.0000
   1003  O4'       32.2690    3.1110   40.7420 O.3    35  G35         0.0000
   1004  C3'       30.2440    4.1080   41.3570 C.3    35  G35         0.0000
   1005  O3'       28.8590    3.8260   41.5550 O.3    35  G35         0.0000
   1006  C2'       31.0430    3.8710   42.6360 C.3    35  G35         0.0000
   1007  O2'       30.5410    2.7870   43.3940 O.3    35  G35         0.0000
   1008  C1'       32.4320    3.5330   42.0850 C.3    35  G35         0.0000
   1009  N1        35.7600    6.1900   44.8590 N.ar   35  G35         0.0000
   1010  C2        34.9040    5.1900   45.2450 C.ar   35  G35         0.0000
   1011  N2        34.9340    4.8500   46.5360 N.pl3  35  G35         0.0000
   1012  N3        34.0680    4.5730   44.4290 N.ar   35  G35         0.0000
   1013  C4        34.1340    5.0630   43.1780 C.ar   35  G35         0.0000
   1014  C5        34.9380    6.0690   42.6910 C.ar   35  G35         0.0000
   1015  C6        35.8530    6.7040   43.5730 C.ar   35  G35         0.0000
   1016  O6        36.6700    7.5990   43.3250 O.2    35  G35         0.0000
   1017  N7        34.6900    6.2870   41.3440 N.ar   35  G35         0.0000
   1018  C8        33.7620    5.4190   41.0400 C.ar   35  G35         0.0000
   1019  N9        33.3930    4.6320   42.1010 N.ar   35  G35         0.0000
   1020  OP1       29.9730    5.2080   36.6130 O.2    35  G35        -0.5000
   1021  OP2       32.0210    6.6250   37.2600 O.co2  35  G35        -0.5000
   1022  P         27.8590    4.9980   42.0260 P.3    36  G36         0.0000
   1023  C5'       27.6370    3.6620   44.2720 C.3    36  G36         0.0000
   1024  O5'       27.8460    4.9070   43.6190 O.3    36  G36         0.0000
   1025  C4'       28.1300    3.7320   45.6930 C.3    36  G36         0.0000
   1026  O4'       29.4540    4.3020   45.6940 O.3    36  G36         0.0000
   1027  C3'       27.2770    4.6630   46.5440 C.3    36  G36         0.0000
   1028  O3'       27.1080    4.0900   47.8390 O.3    36  G36         0.0000
   1029  C2'       27.9930    6.0090   46.5470 C.3    36  G36         0.0000
   1030  O2'       27.9390    6.6310   47.8130 O.3    36  G36         0.0000
   1031  C1'       29.4310    5.5700   46.3020 C.3    36  G36         0.0000
   1032  N1        33.8640    7.9480   46.6630 N.ar   36  G36         0.0000
   1033  C2        33.2160    7.1440   47.5650 C.ar   36  G36         0.0000
   1034  N2        33.8330    6.9510   48.7320 N.pl3  36  G36         0.0000
   1035  N3        32.0440    6.5750   47.3450 N.ar   36  G36         0.0000
   1036  C4        31.5480    6.8930   46.1350 C.ar   36  G36         0.0000
   1037  C5        32.1040    7.6900   45.1590 C.ar   36  G36         0.0000
   1038  C6        33.3760    8.2850   45.4030 C.ar   36  G36         0.0000
   1039  O6        34.0420    9.0160   44.6560 O.2    36  G36         0.0000
   1040  N7        31.2700    7.7640   44.0490 N.ar   36  G36         0.0000
   1041  C8        30.2390    7.0250   44.3720 C.ar   36  G36         0.0000
   1042  N9        30.3530    6.4620   45.6200 N.ar   36  G36         0.0000
   1043  OP1       26.5080    4.6240   41.5440 O.2    36  G36        -0.5000
   1044  OP2       28.4480    6.3040   41.6240 O.co2  36  G36        -0.5000
   1045  P         25.7260    4.2500   48.6170 P.3    37  U37         0.0000
   1046  C5'       25.1000    5.6970   50.6690 C.3    37  U37         0.0000
   1047  O5'       25.8820    5.5610   49.4980 O.3    37  U37         0.0000
   1048  C4'       25.8030    6.5530   51.6860 C.3    37  U37         0.0000
   1049  O4'       27.0690    5.9380   52.0340 O.3    37  U37         0.0000
   1050  C3'       26.1510    7.9180   51.1080 C.3    37  U37         0.0000
   1051  O3'       25.7740    8.9680   51.9760 O.3    37  U37         0.0000
   1052  C2'       27.6170    7.8560   50.6950 C.3    37  U37         0.0000
   1053  O2'       28.3190    9.0450   51.0060 O.3    37  U37         0.0000
   1054  C1'       28.1380    6.7520   51.6110 C.3    37  U37         0.0000
   1055  N1        29.2430    5.9270   51.1180 N.ar   37  U37         0.0000
   1056  C2        30.4800    6.1710   51.6800 C.ar   37  U37         0.0000
   1057  O2        30.6410    6.9810   52.5750 O.2    37  U37         0.0000
   1058  N3        31.5130    5.4340   51.1600 N.ar   37  U37         0.0000
   1059  C4        31.4340    4.4910   50.1530 C.ar   37  U37         0.0000
   1060  O4        32.4750    4.0020   49.6990 O.2    37  U37         0.0000
   1061  C5        30.1040    4.2690   49.6460 C.ar   37  U37         0.0000
   1062  C6        29.0780    4.9790   50.1390 C.ar   37  U37         0.0000
   1063  OP1       25.5620    3.1430   49.5850 O.3    37  U37        -0.5000
   1064  OP2       24.7180    4.4630   47.5570 O.co2  37  U37        -0.5000
   1065  P         25.1120   10.2920   51.3900 P.3    38  A38         0.0000
   1066  C5'       25.8290   11.8220   49.3930 C.3    38  A38         0.0000
   1067  O5'       26.1980   10.8550   50.3730 O.3    38  A38         0.0000
   1068  C4'       26.9730   12.0660   48.4450 C.3    38  A38         0.0000
   1069  O4'       27.9930   12.8990   49.0160 O.3    38  A38         0.0000
   1070  C3'       27.6840   10.8220   47.8980 C.3    38  A38         0.0000
   1071  O3'       27.3500   10.7050   46.5080 O.3    38  A38         0.0000
   1072  C2'       29.1710   11.2080   47.8470 C.3    38  A38         0.0000
   1073  O2'       29.7160   11.1150   46.5520 O.3    38  A38         0.0000
   1074  C1'       29.1020   12.6800   48.2230 C.3    38  A38         0.0000
   1075  N1        32.7050   14.3030   51.5710 N.ar   38  A38         0.0000
   1076  C2        31.7080   13.4150   51.7160 C.ar   38  A38         0.0000
   1077  N3        30.7920   13.0270   50.8330 N.ar   38  A38         0.0000
   1078  C4        30.9680   13.6680   49.6700 C.ar   38  A38         0.0000
   1079  C5        31.9420   14.6050   49.3730 C.ar   38  A38         0.0000
   1080  C6        32.8450   14.9250   50.3770 C.ar   38  A38         0.0000
   1081  N6        33.8310   15.8050   50.2110 N.pl3  38  A38         0.0000
   1082  N7        31.8100   15.0610   48.0740 N.ar   38  A38         0.0000
   1083  C8        30.7820   14.4000   47.6230 C.ar   38  A38         0.0000
   1084  N9        30.2310   13.5340   48.5330 N.ar   38  A38         0.0000
   1085  OP1       24.9980   11.2270   52.5390 O.3    38  A38        -0.5000
   1086  OP2       23.9020    9.9000   50.6260 O.co2  38  A38        -0.5000
   1087  P         25.9650   10.0490   46.0300 P.3    39  C39         0.0000
   1088  C5'       24.0190   11.8330   46.0270 C.3    39  C39         0.0000
   1089  O5'       24.8120   10.8860   46.7550 O.3    39  C39         0.0000
   1090  C4'       22.6160   11.9520   46.6070 C.3    39  C39         0.0000
   1091  O4'       21.9540   10.6650   46.5070 O.3    39  C39         0.0000
   1092  C3'       22.6370   12.2960   48.1010 C.3    39  C39         0.0000
   1093  O3'       21.6350   13.2070   48.5310 O.3    39  C39         0.0000
   1094  C2'       22.4370   10.9880   48.8410 C.3    39  C39         0.0000
   1095  O2'       21.5450   11.1630   49.9220 O.3    39  C39         0.0000
   1096  C1'       21.6980   10.1620   47.7990 C.3    39  C39         0.0000
   1097  N1        21.9060    8.7190   47.8610 N.ar   39  C39         0.0000
   1098  C2        20.9810    7.9610   48.5890 C.ar   39  C39         0.0000
   1099  O2        20.0080    8.5350   49.1090 O.2    39  C39         0.0000
   1100  N3        21.1630    6.6330   48.7060 N.ar   39  C39         0.0000
   1101  C4        22.2180    6.0520   48.1280 C.ar   39  C39         0.0000
   1102  N4        22.3680    4.7310   48.2930 N.pl3  39  C39         0.0000
   1103  C5        23.1670    6.7980   47.3600 C.ar   39  C39         0.0000
   1104  C6        22.9710    8.1170   47.2540 C.ar   39  C39         0.0000
   1105  OP1       25.9340    8.6550   46.5370 O.3    39  C39        -0.5000
   1106  OP2       25.8890   10.3040   44.5600 O.co2  39  C39        -0.5000
   1107  P         21.7420   14.7640   48.1940 P.3    40  A40         0.0000
   1108  C5'       23.1610   14.8960   50.3950 C.3    40  A40         0.0000
   1109  O5'       22.9960   15.2640   49.0360 O.3    40  A40         0.0000
   1110  C4'       24.5320   15.3140   50.8660 C.3    40  A40         0.0000
   1111  O4'       25.5180   14.7170   49.9840 O.3    40  A40         0.0000
   1112  C3'       24.8300   16.7960   50.7700 C.3    40  A40         0.0000
   1113  O3'       24.3820   17.4430   51.9430 O.3    40  A40         0.0000
   1114  C2'       26.3490   16.8250   50.6910 C.3    40  A40         0.0000
   1115  O2'       26.9400   16.6860   51.9650 O.3    40  A40         0.0000
   1116  C1'       26.6360   15.5730   49.8680 C.3    40  A40         0.0000
   1117  N1        29.8450   17.6560   46.4870 N.ar   40  A40         0.0000
   1118  C2        29.8770   17.5490   47.8210 C.ar   40  A40         0.0000
   1119  N3        28.9930   16.9860   48.6400 N.ar   40  A40         0.0000
   1120  C4        27.9570   16.4890   47.9460 C.ar   40  A40         0.0000
   1121  C5        27.7750   16.5180   46.5730 C.ar   40  A40         0.0000
   1122  C6        28.7900   17.1370   45.8160 C.ar   40  A40         0.0000
   1123  N6        28.7730   17.2350   44.4840 N.pl3  40  A40         0.0000
   1124  N7        26.5760   15.9110   46.2260 N.ar   40  A40         0.0000
   1125  C8        26.0740   15.5310   47.3790 C.ar   40  A40         0.0000
   1126  N9        26.8610   15.8460   48.4550 N.ar   40  A40         0.0000
   1127  OP1       20.5270   15.3840   48.7860 O.3    40  A40        -0.5000
   1128  OP2       22.0270   14.9220   46.7300 O.co2  40  A40        -0.5000
   1129  P         23.6930   18.8790   51.8230 P.3    41  U41         0.0000
   1130  C5'       25.9530   20.0190   52.3590 C.3    41  U41         0.0000
   1131  O5'       24.8920   19.8540   51.4510 O.3    41  U41         0.0000
   1132  C4'       27.0850   20.8150   51.7520 C.3    41  U41         0.0000
   1133  O4'       27.4510   20.2530   50.4630 O.3    41  U41         0.0000
   1134  C3'       26.7270   22.2710   51.4680 C.3    41  U41         0.0000
   1135  O3'       27.6760   23.1380   52.0690 O.3    41  U41         0.0000
   1136  C2'       26.4270   22.3770   49.9680 C.3    41  U41         0.0000
   1137  O2'       26.9800   23.5260   49.3460 O.3    41  U41         0.0000
   1138  C1'       27.2130   21.1860   49.4390 C.3    41  U41         0.0000
   1139  N1        26.8150   20.5090   48.2030 N.ar   41  U41         0.0000
   1140  C2        27.6300   20.7550   47.1130 C.ar   41  U41         0.0000
   1141  O2        28.6160   21.4660   47.1870 O.2    41  U41         0.0000
   1142  N3        27.2580   20.1420   45.9460 N.ar   41  U41         0.0000
   1143  C4        26.1700   19.3220   45.7590 C.ar   41  U41         0.0000
   1144  O4        25.9270   18.9030   44.6240 O.2    41  U41         0.0000
   1145  C5        25.3700   19.0930   46.9460 C.ar   41  U41         0.0000
   1146  C6        25.7140   19.6840   48.1020 C.ar   41  U41         0.0000
   1147  OP1       23.1560   19.2400   53.1700 O.3    41  U41        -0.5000
   1148  OP2       22.7980   18.8550   50.6430 O.co2  41  U41        -0.5000
   1149  P         27.5620   24.7200   51.8700 P.3    42  U42         0.0000
   1150  C5'       29.2550   26.4530   50.8850 C.3    42  U42         0.0000
   1151  O5'       28.7760   25.1170   50.9270 O.3    42  U42         0.0000
   1152  C4'       29.9280   26.6610   49.5810 C.3    42  U42         0.0000
   1153  O4'       31.0220   25.7210   49.4940 O.3    42  U42         0.0000
   1154  C3'       28.9210   26.2460   48.5220 C.3    42  U42         0.0000
   1155  O3'       29.0390   27.0670   47.3790 O.3    42  U42         0.0000
   1156  C2'       29.2530   24.8060   48.1860 C.3    42  U42         0.0000
   1157  O2'       29.1500   24.5560   46.8140 O.3    42  U42         0.0000
   1158  C1'       30.7350   24.7600   48.5160 C.3    42  U42         0.0000
   1159  N1        31.2390   23.4510   48.9140 N.ar   42  U42         0.0000
   1160  C2        32.2030   22.8920   48.0970 C.ar   42  U42         0.0000
   1161  O2        32.6660   23.4690   47.1310 O.2    42  U42         0.0000
   1162  N3        32.6070   21.6420   48.4560 N.ar   42  U42         0.0000
   1163  C4        32.1640   20.9130   49.5330 C.ar   42  U42         0.0000
   1164  O4        32.5860   19.7710   49.6920 O.2    42  U42         0.0000
   1165  C5        31.1820   21.5760   50.3520 C.ar   42  U42         0.0000
   1166  C6        30.7660   22.7970   50.0170 C.ar   42  U42         0.0000
   1167  OP1       27.8290   25.3000   53.1960 O.3    42  U42        -0.5000
   1168  OP2       26.3050   25.0440   51.1540 O.co2  42  U42        -0.5000
   1169  P         27.9250   28.1460   47.0290 P.3    43  A43         0.0000
   1170  C5'       29.9300   29.4820   45.9730 C.3    43  A43         0.0000
   1171  O5'       28.6190   28.9370   45.8290 O.3    43  A43         0.0000
   1172  C4'       30.7890   29.1140   44.7820 C.3    43  A43         0.0000
   1173  O4'       30.9970   27.6850   44.7610 O.3    43  A43         0.0000
   1174  C3'       30.2010   29.4060   43.4170 C.3    43  A43         0.0000
   1175  O3'       30.4850   30.7310   43.0570 O.3    43  A43         0.0000
   1176  C2'       30.9550   28.4400   42.5160 C.3    43  A43         0.0000
   1177  O2'       32.2670   28.8730   42.2070 O.3    43  A43         0.0000
   1178  C1'       31.0400   27.2170   43.4170 C.3    43  A43         0.0000
   1179  N1        28.2260   24.2670   40.2030 N.ar   43  A43         0.0000
   1180  C2        29.2590   25.1040   39.9720 C.ar   43  A43         0.0000
   1181  N3        29.9490   25.8550   40.8330 N.ar   43  A43         0.0000
   1182  C4        29.4740   25.6930   42.0830 C.ar   43  A43         0.0000
   1183  C5        28.4170   24.8750   42.4740 C.ar   43  A43         0.0000
   1184  C6        27.7720   24.1290   41.4680 C.ar   43  A43         0.0000
   1185  N6        26.7440   23.3000   41.6960 N.pl3  43  A43         0.0000
   1186  N7        28.2010   24.9740   43.8400 N.ar   43  A43         0.0000
   1187  C8        29.1110   25.8270   44.2420 C.ar   43  A43         0.0000
   1188  N9        29.9230   26.2920   43.2380 N.ar   43  A43         0.0000
   1189  OP1       27.7880   29.0280   48.2240 O.3    43  A43        -0.5000
   1190  OP2       26.7470   27.3890   46.5260 O.co2  43  A43        -0.5000
   1191  P         29.2890   31.6880   42.6280 P.3    44  C44         0.0000
   1192  C5'       29.0930   30.8630   40.1480 C.3    44  C44         0.0000
   1193  O5'       28.5590   30.8750   41.4690 O.3    44  C44         0.0000
   1194  C4'       28.2340   30.0080   39.2540 C.3    44  C44         0.0000
   1195  O4'       28.3190   28.6310   39.6900 O.3    44  C44         0.0000
   1196  C3'       26.7530   30.3180   39.3350 C.3    44  C44         0.0000
   1197  O3'       26.4230   31.3680   38.4570 O.3    44  C44         0.0000
   1198  C2'       26.1120   29.0130   38.8950 C.3    44  C44         0.0000
   1199  O2'       26.0600   28.8340   37.5000 O.3    44  C44         0.0000
   1200  C1'       27.0630   27.9970   39.5160 C.3    44  C44         0.0000
   1201  N1        26.5780   27.6060   40.8320 N.ar   44  C44         0.0000
   1202  C2        25.4840   26.7440   40.9090 C.ar   44  C44         0.0000
   1203  O2        24.9620   26.3410   39.8490 O.2    44  C44         0.0000
   1204  N3        25.0250   26.3760   42.1240 N.ar   44  C44         0.0000
   1205  C4        25.6210   26.8370   43.2260 C.ar   44  C44         0.0000
   1206  N4        25.1420   26.4430   44.3950 N.pl3  44  C44         0.0000
   1207  C5        26.7380   27.7240   43.1720 C.ar   44  C44         0.0000
   1208  C6        27.1790   28.0770   41.9660 C.ar   44  C44         0.0000
   1209  OP1       29.9560   32.8830   42.0610 O.2    44  C44        -0.5000
   1210  OP2       28.3520   31.8280   43.7710 O.co2  44  C44        -0.5000
   1211  P         25.2760   32.4000   38.8700 P.3    45  C45         0.0000
   1212  C5'       23.6450   31.0720   37.3560 C.3    45  C45         0.0000
   1213  O5'       23.9430   31.5730   38.6370 O.3    45  C45         0.0000
   1214  C4'       22.3910   30.2610   37.4050 C.3    45  C45         0.0000
   1215  O4'       22.6520   29.0340   38.1310 O.3    45  C45         0.0000
   1216  C3'       21.2710   30.9090   38.1990 C.3    45  C45         0.0000
   1217  O3'       20.5540   31.8680   37.4410 O.3    45  C45         0.0000
   1218  C2'       20.4150   29.7150   38.5930 C.3    45  C45         0.0000
   1219  O2'       19.4960   29.2820   37.6120 O.3    45  C45         0.0000
   1220  C1'       21.4860   28.6560   38.8480 C.3    45  C45         0.0000
   1221  N1        21.8010   28.5950   40.2750 N.ar   45  C45         0.0000
   1222  C2        20.9270   27.8990   41.1090 C.ar   45  C45         0.0000
   1223  O2        19.9360   27.3460   40.6020 O.2    45  C45         0.0000
   1224  N3        21.1790   27.8490   42.4350 N.ar   45  C45         0.0000
   1225  C4        22.2590   28.4600   42.9300 C.ar   45  C45         0.0000
   1226  N4        22.4620   28.3920   44.2390 N.pl3  45  C45         0.0000
   1227  C5        23.1750   29.1710   42.0970 C.ar   45  C45         0.0000
   1228  C6        22.9100   29.2110   40.7870 C.ar   45  C45         0.0000
   1229  OP1       25.3370   33.5280   37.9070 O.2    45  C45        -0.5000
   1230  OP2       25.3840   32.6620   40.3260 O.co2  45  C45        -0.5000
   1231  P         19.8500   33.0950   38.1920 P.3    46  U46         0.0000
   1232  C5'       17.6260   31.8160   37.7600 C.3    46  U46         0.0000
   1233  O5'       18.4760   32.4660   38.6800 O.3    46  U46         0.0000
   1234  C4'       16.5180   31.1180   38.4910 C.3    46  U46         0.0000
   1235  O4'       17.0820   30.0080   39.2370 O.3    46  U46         0.0000
   1236  C3'       15.7910   31.9430   39.5460 C.3    46  U46         0.0000
   1237  O3'       14.7770   32.8060   39.0170 O.3    46  U46         0.0000
   1238  C2'       15.2250   30.8540   40.4480 C.3    46  U46         0.0000
   1239  O2'       14.0650   30.2480   39.9140 O.3    46  U46         0.0000
   1240  C1'       16.3790   29.8510   40.4640 C.3    46  U46         0.0000
   1241  N1        17.3020   30.1270   41.5760 N.ar   46  U46         0.0000
   1242  C2        16.9510   29.6790   42.8450 C.ar   46  U46         0.0000
   1243  O2        15.9230   29.0540   43.0790 O.2    46  U46         0.0000
   1244  N3        17.8500   29.9920   43.8330 N.ar   46  U46         0.0000
   1245  C4        19.0370   30.6900   43.6930 C.ar   46  U46         0.0000
   1246  O4        19.7240   30.9270   44.6930 O.2    46  U46         0.0000
   1247  C5        19.3280   31.1090   42.3550 C.ar   46  U46         0.0000
   1248  C6        18.4740   30.8190   41.3680 C.ar   46  U46         0.0000
   1249  OP1       19.5740   34.1610   37.1950 O.2    46  U46        -0.5000
   1250  OP2       20.6800   33.4020   39.3830 O.co2  46  U46        -0.5000
   1251  P         14.3070   34.1140   39.8540 P.3    47  G47         0.0000
   1252  C5'       12.2060   32.9090   40.8380 C.3    47  G47         0.0000
   1253  O5'       13.4700   33.5190   41.0690 O.3    47  G47         0.0000
   1254  C4'       11.5800   32.5030   42.1450 C.3    47  G47         0.0000
   1255  O4'       12.4220   31.4930   42.7580 O.3    47  G47         0.0000
   1256  C3'       11.4710   33.5920   43.2040 C.3    47  G47         0.0000
   1257  O3'       10.3160   34.4140   43.0560 O.3    47  G47         0.0000
   1258  C2'       11.4200   32.7740   44.4840 C.3    47  G47         0.0000
   1259  O2'       10.1360   32.2300   44.7180 O.3    47  G47         0.0000
   1260  C1'       12.4280   31.6650   44.1660 C.3    47  G47         0.0000
   1261  N1        15.6530   31.9790   48.0820 N.ar   47  G47         0.0000
   1262  C2        14.3500   31.5290   48.0450 C.ar   47  G47         0.0000
   1263  N2        13.8180   31.1220   49.2080 N.pl3  47  G47         0.0000
   1264  N3        13.6180   31.4800   46.9490 N.ar   47  G47         0.0000
   1265  C4        14.2920   31.9200   45.8660 C.ar   47  G47         0.0000
   1266  C5        15.5900   32.3880   45.7870 C.ar   47  G47         0.0000
   1267  C6        16.3750   32.4390   46.9800 C.ar   47  G47         0.0000
   1268  O6        17.5490   32.8260   47.1240 O.2    47  G47         0.0000
   1269  N7        15.9040   32.7500   44.4810 N.ar   47  G47         0.0000
   1270  C8        14.8110   32.5020   43.8040 C.ar   47  G47         0.0000
   1271  N9        13.7890   32.0090   44.5860 N.ar   47  G47         0.0000
   1272  OP1       13.3180   34.8270   39.0050 O.2    47  G47        -0.5000
   1273  OP2       15.4860   34.8560   40.3860 O.co2  47  G47        -0.5000
   1274  P         10.3110   35.9090   43.6690 P.3    48  C48         0.0000
   1275  C5'        8.9520   35.0460   45.7110 C.3    48  C48         0.0000
   1276  O5'       10.1250   35.6750   45.2260 O.3    48  C48         0.0000
   1277  C4'        9.0330   34.8890   47.2030 C.3    48  C48         0.0000
   1278  O4'       10.0580   33.9120   47.5280 O.3    48  C48         0.0000
   1279  C3'        9.4590   36.1280   47.9620 C.3    48  C48         0.0000
   1280  O3'        8.3910   37.0190   48.1890 O.3    48  C48         0.0000
   1281  C2'       10.0110   35.5360   49.2480 C.3    48  C48         0.0000
   1282  O2'        8.9990   35.1100   50.1330 O.3    48  C48         0.0000
   1283  C1'       10.7390   34.3070   48.7150 C.3    48  C48         0.0000
   1284  N1        12.1380   34.6430   48.3720 N.ar   48  C48         0.0000
   1285  C2        13.0830   34.8040   49.4110 C.ar   48  C48         0.0000
   1286  O2        12.7110   34.6810   50.5940 O.2    48  C48         0.0000
   1287  N3        14.3690   35.1000   49.0920 N.ar   48  C48         0.0000
   1288  C4        14.7230   35.2440   47.8100 C.ar   48  C48         0.0000
   1289  N4        15.9970   35.5290   47.5440 N.pl3  48  C48         0.0000
   1290  C5        13.7850   35.1010   46.7450 C.ar   48  C48         0.0000
   1291  C6        12.5180   34.8010   47.0680 C.ar   48  C48         0.0000
   1292  OP1        9.0720   36.5650   43.2040 O.2    48  C48        -0.5000
   1293  OP2       11.6210   36.5700   43.4370 O.co2  48  C48        -0.5000
   1294  P          8.7080   38.5710   48.4220 P.3    49  C49         0.0000
   1295  C5'        8.8890   37.8100   50.9210 C.3    49  C49         0.0000
   1296  O5'        9.4130   38.6010   49.8560 O.3    49  C49         0.0000
   1297  C4'        9.6880   37.9770   52.2000 C.3    49  C49         0.0000
   1298  O4'       11.0390   37.4730   52.0340 O.3    49  C49         0.0000
   1299  C3'        9.8260   39.4220   52.6660 C.3    49  C49         0.0000
   1300  O3'       10.1210   39.3340   54.0540 O.3    49  C49         0.0000
   1301  C2'       11.1800   39.8610   52.1240 C.3    49  C49         0.0000
   1302  O2'       11.8350   40.8020   52.9510 O.3    49  C49         0.0000
   1303  C1'       11.9510   38.5450   52.0630 C.3    49  C49         0.0000
   1304  N1        12.8820   38.4490   50.9420 N.ar   49  C49         0.0000
   1305  C2        14.2320   38.6000   51.2100 C.ar   49  C49         0.0000
   1306  O2        14.5870   38.7370   52.3890 O.2    49  C49         0.0000
   1307  N3        15.1170   38.5910   50.1930 N.ar   49  C49         0.0000
   1308  C4        14.6880   38.4270   48.9440 C.ar   49  C49         0.0000
   1309  N4        15.5910   38.4530   47.9670 N.pl3  49  C49         0.0000
   1310  C5        13.3100   38.2350   48.6400 C.ar   49  C49         0.0000
   1311  C6        12.4480   38.2500   49.6640 C.ar   49  C49         0.0000
   1312  OP1        7.3950   39.2500   48.5400 O.3    49  C49        -0.5000
   1313  OP2        9.6740   39.0050   47.3750 O.co2  49  C49        -0.5000
   1314  O1        39.5570   27.3920   58.7860 O.2    15  SO415      -0.3300
   1315  O2        41.0020   25.6090   59.4540 O.2    15  SO415      -0.3300
   1316  O3        39.6970   25.4010   57.4380 O.co2  15  SO415      -0.3300
   1317  O4        41.5510   26.9490   57.5220 O.3    15  SO415       0.0000
   1318  S         40.4520   26.3350   58.2970 S.3    15  SO415       0.0000
   1319  N1        40.4890   24.5540   54.4130 N.3    15  NCO15       0.0000
   1320  N2        40.5660   27.2840   54.8830 N.3    15  NCO15       0.0000
   1321  N3        43.1380   25.8250   54.6590 N.3    15  NCO15       0.0000
   1322  N4        39.9930   26.4800   52.3630 N.3    15  NCO15       0.0000
   1323  N5        42.4080   27.6120   52.6990 N.3    15  NCO15       0.0000
   1324  N6        42.3510   24.8330   52.2120 N.3    15  NCO15       0.0000
   1325 CO         41.5040   26.0990   53.5520 Co.oh  15  NCO15       0.0000
   1326  N1        20.6880   18.2210   49.4360 N.3     1  NCO1        0.0000
   1327  N2        18.9130   17.3850   47.4920 N.3     1  NCO1        0.0000
   1328  N3        18.5630   20.0950   48.6560 N.3     1  NCO1        0.0000
   1329  N4        21.3670   18.1490   46.6680 N.3     1  NCO1        0.0000
   1330  N5        19.3580   19.8270   46.0350 N.3     1  NCO1        0.0000
   1331  N6        21.1580   20.6910   48.0160 N.3     1  NCO1        0.0000
   1332 CO         19.9950   19.0670   47.7290 Co.oh   1  NCO1        0.0000
@<TRIPOS>BOND
     1  1314  1318    2
     2  1315  1318    2
     3  1316  1318    1
     4  1317  1318    1
     5  1320  1325    1
     6  1321  1325    1
     7  1322  1325    1
     8  1323  1325    1
     9  1327  1332    1
    10  1328  1332    1
    11  1329  1332    1
    12  1330  1332    1
    13  1331  1332    1
    14   997   979    2
    15   957   959    1
    16   957   958    1
    17   944   943    1
    18   959   960    1
    19   959   961    1
    20   962   979    1
    21   962   961    1
    22   977   956    2
    23   905   904    1
    24   979   998    1
    25   979   981    1
    26   942   956    1
    27   942   941    1
    28   964   963    1
    29   960   965    1
    30   961   963    1
    31   958   956    1
    32   980   981    1
    33   980   982    1
    34   956   978    1
    35   943   941    1
    36   943   945    1
    37   939   941    1
    38   939   940    1
    39   939   937    1
    40   903   902    1
    41   963   965    1
    42   965   976    1
    43   904   902    1
    44   904   906    1
    45   940   945    1
    46   945   946    1
    47   937   938    1
    48   902   900    1
    49   982   983    1
    50   982   984    1
    51   900   901    1
    52   900   898    1
    53   948   947    2
    54   906   901    1
    55   906   916    1
    56   926   925    1
    57   983   988    1
    58   985   984    1
    59   985   999    1
    60   976   975   ar
    61   976   970   ar
    62   886   885    1
    63  1020   999    2
    64   898   899    1
    65   946   947   ar
    66   946   953   ar
    67   938   936    1
    68   975   974   ar
    69   984   986    1
    70   909   908   ar
    71   909   910   ar
    72   947   949   ar
    73   882   881    1
    74   899   897    1
    75  1249  1231    2
    76   999  1021    1
    77   999  1001    1
    78   954   936    2
    79   925   927    1
    80   925   923    1
    81   930   929    2
    82  1212  1214    1
    83  1212  1213    1
    84   916   910   ar
    85   916   915   ar
    86  1214  1215    1
    87  1214  1216    1
    88  1217  1231    1
    89  1217  1216    1
    90  1199  1198    1
    91   908   907   ar
    92   988   986    1
    93   988   989    1
    94   924   936    1
    95   924   923    1
    96  1219  1218    1
    97   970   969   ar
    98   970   971   ar
    99   910   911   ar
   100   987   986    1
   101   953   952   ar
   102   885   887   ar
   103   885   884   ar
   104  1232  1234    1
   105  1232  1233    1
   106   936   955    1
   107   969   967   ar
   108   996   989   ar
   109   996   995   ar
   110  1229  1211    2
   111   746   726    2
   112   917   897    2
   113   887   888   ar
   114   712   711    1
   115   974   971   ar
   116   927   922    1
   117   927   928    1
   118   768   748    2
   119  1215  1220    1
   120   881   883    1
   121   881   879    1
   122  1231  1233    1
   123  1231  1250    1
   124  1216  1218    1
   125   949   950   ar
   126   727   729    1
   127   727   728    1
   128   923   921    1
   129   897   880    1
   130   897   918    1
   131   989   990   ar
   132  1197  1211    1
   133  1197  1196    1
   134   929   928   ar
   135   929   931   ar
   136  1234  1235    1
   137  1234  1236    1
   138   971   972   ar
   139   915   914   ar
   140  1218  1220    1
   141   710   726    1
   142   710   709    1
   143  1213  1211    1
   144   995   993   ar
   145   880   879    1
   146  1001  1000    1
   147   884   890   ar
   148   729   731    1
   149   729   730    1
   150   922   921    1
   151   907   912   ar
   152  1220  1221    1
   153   732   748    1
   154   732   731    1
   155  1211  1230    1
   156  1198  1196    1
   157  1198  1200    1
   158   883   894    1
   159   883   878    1
   160   921   919    1
   161  1000  1002    1
   162   928   935   ar
   163   952   950   ar
   164  1272  1251    2
   165  1237  1236    1
   166  1237  1251    1
   167   967   968    1
   168   967   966   ar
   169   726   728    1
   170   726   747    1
   171   911   914   ar
   172   911   912   ar
   173   888   894   ar
   174   888   889   ar
   175   950   951    1
   176   879   877    1
   177  1235  1240    1
   178   748   769    1
   179   748   750    1
   180  1194  1196    1
   181  1194  1195    1
   182  1194  1192    1
   183   707   709    1
   184   707   708    1
   185   707   705    1
   186   711   709    1
   187   711   713    1
   188   931   932   ar
   189   706   705    1
   190   706   704    1
   191  1200  1195    1
   192  1200  1201    1
   193  1236  1238    1
   194   731   733    1
   195   912   913    1
   196   730   735    1
   197   894   893   ar
   198   990   991    2
   199   990   992   ar
   200   724   704    2
   201   877   878    1
   202   877   875    1
   203   708   713    1
   204  1203  1202    2
   205  1251  1273    1
   206  1251  1253    1
   207   713   723    1
   208   972   966   ar
   209   972   973    2
   210  1239  1238    1
   211   734   733    1
   212   687   704    1
   213   687   686    1
   214  1180  1179   ar
   215  1180  1181   ar
   216   890   889   ar
   217   890   891    2
   218   667   666    1
   219   993   992   ar
   220   993   994    2
   221   682   684    1
   222   682   683    1
   223  1192  1193    1
   224  1179  1184   ar
   225   889   892   ar
   226   684   686    1
   227   684   685    1
   228  1221  1228   ar
   229  1221  1222   ar
   230   935   934   ar
   231   704   725    1
   232   749   750    1
   233   749   751    1
   234   919   920    1
   235  1002  1003    1
   236  1002  1004    1
   237   689   688    1
   238   702   681    2
   239  1238  1240    1
   240  1240  1241    1
   241   733   735    1
   242  1223  1222    2
   243  1003  1008    1
   244   735   745    1
   245   932   934   ar
   246   932   933    2
   247  1228  1227   ar
   248  1201  1202   ar
   249  1201  1208   ar
   250  1181  1182   ar
   251  1252  1253    1
   252  1252  1254    1
   253  1202  1204   ar
   254   686   688    1
   255   716   715   ar
   256   716   717   ar
   257   893   892   ar
   258  1018  1017   ar
   259  1018  1019   ar
   260   665   681    1
   261   665   664    1
   262  1222  1224   ar
   263   685   690    1
   264   875   876    1
   265   723   717   ar
   266   723   722   ar
   267   683   681    1
   268  1017  1014   ar
   269  1004  1005    1
   270  1004  1006    1
   271  1248  1241   ar
   272  1248  1247   ar
   273   666   664    1
   274   666   668    1
   275   688   690    1
   276   681   703    1
   277  1184  1185    1
   278  1184  1183   ar
   279  1193  1191    1
   280  1043  1022    2
   281  1005  1022    1
   282  1241  1242   ar
   283  1044  1022    1
   284   715   714   ar
   285   717   718   ar
   286   866   865    2
   287   751   752    1
   288   751   753    1
   289   648   647    1
   290   662   664    1
   291   662   663    1
   292   662   660    1
   293   690   701    1
   294  1208  1207   ar
   295   876   874    1
   296   789   770    2
   297   745   744   ar
   298   745   739   ar
   299  1022  1024    1
   300  1209  1191    2
   301  1182  1183   ar
   302  1182  1188   ar
   303  1008  1019    1
   304  1008  1006    1
   305  1227  1225   ar
   306  1019  1013   ar
   307  1204  1205   ar
   308   668   663    1
   309   668   678    1
   310  1254  1255    1
   311  1254  1256    1
   312   744   743   ar
   313  1177  1176    1
   314   788   770    1
   315  1247  1245   ar
   316   722   721   ar
   317  1224  1225   ar
   318   752   757    1
   319   754   770    1
   320   754   753    1
   321  1183  1186   ar
   322  1176  1178    1
   323  1176  1174    1
   324   867   865   ar
   325   867   868   ar
   326  1191  1175    1
   327  1191  1210    1
   328  1006  1007    1
   329   671   670   ar
   330   671   672   ar
   331   865   864   ar
   332   770   772    1
   333   753   755    1
   334  1014  1013   ar
   335  1014  1015   ar
   336   862   861    1
   337  1255  1260    1
   338  1242  1243    2
   339  1242  1244   ar
   340   660   661    1
   341  1225  1226    1
   342   714   719   ar
   343  1257  1256    1
   344  1257  1274    1
   345  1175  1174    1
   346   766   765   ar
   347   766   767   ar
   348   718   721   ar
   349   718   719   ar
   350  1207  1205   ar
   351  1013  1012   ar
   352   670   669   ar
   353  1292  1274    2
   354  1256  1258    1
   355   647   649   ar
   356   647   646   ar
   357  1205  1206    1
   358  1188  1178    1
   359  1188  1187   ar
   360   861   863    1
   361   861   859    1
   362   739   738   ar
   363   739   740   ar
   364  1016  1015    2
   365   842   843   ar
   366   842   847   ar
   367   869   868    1
   368   701   700   ar
   369   701   695   ar
   370  1178  1173    1
   371   743   740   ar
   372  1174  1172    1
   373   678   672   ar
   374   678   677   ar
   375  1293  1274    1
   376   895   874    2
   377   874   896    1
   378   874   860    1
   379   848   847    1
   380   868   870   ar
   381   765   762   ar
   382  1015  1009   ar
   383   672   673   ar
   384   738   737   ar
   385  1024  1023    1
   386  1274  1276    1
   387  1245  1244   ar
   388  1245  1246    2
   389   546   525    2
   390   649   650   ar
   391   719   720    1
   392   644   643    1
   393  1270  1269   ar
   394  1270  1271   ar
   395   757   767    1
   396   757   755    1
   397   864   863    1
   398   864   871   ar
   399  1186  1187   ar
   400   843   844   ar
   401   700   699   ar
   402   646   652   ar
   403   863   858    1
   404   767   761   ar
   405  1040  1041   ar
   406  1040  1037   ar
   407   755   756    1
   408   847   846   ar
   409   740   741   ar
   410  1260  1258    1
   411  1260  1271    1
   412   860   859    1
   413   661   659    1
   414   772   771    1
   415  1023  1025    1
   416   694   695   ar
   417   694   692   ar
   418  1041  1042   ar
   419   695   696   ar
   420   859   857    1
   421  1012  1010   ar
   422  1269  1266   ar
   423  1123  1122    1
   424  1258  1259    1
   425   669   674   ar
   426  1106  1087    2
   427  1271  1265   ar
   428  1144  1143    2
   429  1039  1038    2
   430   677   676   ar
   431   870   871   ar
   432  1173  1172    1
   433  1172  1170    1
   434   679   659    2
   435   643   645    1
   436   643   641    1
   437   786   787   ar
   438   786   784   ar
   439  1009  1010   ar
   440   827   826    1
   441   737   736   ar
   442   762   761   ar
   443   762   763   ar
   444   673   674   ar
   445   673   676   ar
   446   523   502    2
   447   508   525    1
   448   508   507    1
   449   785   784    1
   450   650   651   ar
   451   650   656   ar
   452   525   547    1
   453   525   527    1
   454   844   845   ar
   455   771   773    1
   456  1037  1038   ar
   457  1037  1036   ar
   458   699   696   ar
   459  1276  1275    1
   460   761   760   ar
   461  1010  1011    1
   462   858   857    1
   463   652   653    2
   464   652   651   ar
   465   659   642    1
   466   659   680    1
   467   503   505    1
   468   503   504    1
   469   846   845   ar
   470   846   849   ar
   471  1038  1032   ar
   472   806   805    1
   473   674   675    1
   474   787   780   ar
   475   741   736   ar
   476   741   742    1
   477   692   693    1
   478   692   691   ar
   479   642   641    1
   480   645   656    1
   481   645   640    1
   482   857   855    1
   483   696   697   ar
   484  1042  1036   ar
   485  1042  1031    1
   486   526   527    1
   487   526   528    1
   488   784   783   ar
   489  1025  1026    1
   490  1025  1027    1
   491  1026  1031    1
   492  1275  1277    1
   493   505   507    1
   494   505   506    1
   495  1143  1142   ar
   496  1143  1145   ar
   497  1266  1265   ar
   498  1266  1267   ar
   499  1122  1117   ar
   500  1122  1121   ar
   501   845   851   ar
   502  1171  1170    1
   503  1171  1169    1
   504  1265  1264   ar
   505   651   654   ar
   506   764   763    1
   507  1142  1140   ar
   508   656   655   ar
   509   641   639    1
   510  1088  1090    1
   511  1088  1089    1
   512  1087  1071    1
   513  1087  1105    1
   514  1087  1089    1
   515   763   758   ar
   516   510   509    1
   517  1036  1035   ar
   518   507   509    1
   519   826   825   ar
   520   826   828   ar
   521   811   790    2
   522  1124  1121   ar
   523  1124  1125   ar
   524  1031  1029    1
   525   624   625   ar
   526   624   629   ar
   527   625   626   ar
   528   502   504    1
   529   502   485    1
   530   502   524    1
   531   849   850   ar
   532   760   759   ar
   533   485   484    1
   534  1117  1118   ar
   535   531   530    1
   536  1091  1090    1
   537  1091  1096    1
   538  1071  1070    1
   539  1190  1169    2
   540  1027  1029    1
   541  1027  1028    1
   542   773   774    1
   543   773   775    1
   544  1029  1030    1
   545  1073  1072    1
   546   825   823   ar
   547  1121  1120   ar
   548  1090  1092    1
   549  1032  1033   ar
   550   640   639    1
   551   691   697   ar
   552   774   779    1
   553   805   804   ar
   554   805   800   ar
   555  1128  1107    2
   556  1290  1291   ar
   557  1290  1288   ar
   558   487   486    1
   559   528   530    1
   560   528   529    1
   561   639   637    1
   562   807   804   ar
   563   807   808   ar
   564  1157  1156    1
   565   697   698    2
   566   133   132    2
   567   780   779    1
   568   780   781   ar
   569   506   511    1
   570   509   511    1
   571  1145  1146   ar
   572  1264  1262   ar
   573   855   856    1
   574   775   776    1
   575   775   777    1
   576  1267  1268    2
   577  1267  1261   ar
   578   783   781   ar
   579  1169  1155    1
   580  1169  1189    1
   581  1291  1284   ar
   582  1140  1141    2
   583  1140  1139   ar
   584   828   829   ar
   585  1161  1160    2
   586   856   854    1
   587   851   850   ar
   588   851   841    1
   589  1277  1278    1
   590  1277  1279    1
   591   655   654   ar
   592  1104  1103   ar
   593  1104  1097   ar
   594   758   759   ar
   595   804   803   ar
   596  1035  1033   ar
   597   530   532    1
   598  1103  1101   ar
   599  1313  1294    2
   600  1155  1154    1
   601  1125  1126   ar
   602   626   627   ar
   603   630   629    1
   604   776   790    1
   605   629   628   ar
   606   790   810    1
   607   790   792    1
   608  1278  1283    1
   609   800   801   ar
   610  1289  1288    1
   611  1064  1045    2
   612  1033  1034    1
   613   779   777    1
   614   781   782    2
   615  1083  1082   ar
   616  1083  1084   ar
   617   511   522    1
   618  1332  1326    1
   619   484   482    1
   620   484   486    1
   621   482   480    1
   622   482   483    1
   623  1096  1097    1
   624  1096  1094    1
   625  1288  1287   ar
   626  1118  1119   ar
   627  1028  1045    1
   628  1072  1070    1
   629  1072  1074    1
   630   823   824    2
   631   823   822   ar
   632  1097  1098   ar
   633   808   809   ar
   634   839   841    1
   635   839   840    1
   636   839   837    1
   637  1070  1068    1
   638   529   534    1
   639   486   488    1
   640  1120  1126   ar
   641  1120  1119   ar
   642  1279  1280    1
   643  1279  1281    1
   644  1309  1308    1
   645   132   126   ar
   646   132   131   ar
   647   841   836    1
   648  1262  1261   ar
   649  1262  1263    1
   650  1082  1079   ar
   651  1160  1162   ar
   652  1160  1159   ar
   653  1092  1093    1
   654  1092  1094    1
   655  1146  1139   ar
   656   777   778    1
   657  1101  1102    1
   658  1101  1100   ar
   659   480   481    1
   660  1156  1158    1
   661  1156  1154    1
   662  1280  1294    1
   663  1107  1093    1
   664  1107  1127    1
   665  1107  1109    1
   666  1139  1138    1
   667  1074  1084    1
   668  1074  1069    1
   669   637   638    1
   670  1284  1283    1
   671  1284  1285   ar
   672   829   822   ar
   673  1294  1312    1
   674  1294  1296    1
   675  1068  1069    1
   676  1068  1066    1
   677  1126  1116    1
   678  1162  1163   ar
   679   873   854    2
   680  1158  1159    1
   681  1158  1153    1
   682  1154  1152    1
   683  1084  1078   ar
   684   627   628   ar
   685   627   633   ar
   686  1098  1100   ar
   687  1098  1099    2
   688   854   838    1
   689   854   872    1
   690   792   791    1
   691  1045  1047    1
   692  1045  1063    1
   693   533   532    1
   694  1310  1308   ar
   695  1310  1311   ar
   696   628   631   ar
   697   126   127   ar
   698   532   534    1
   699   134   131   ar
   700   134   135   ar
   701   803   809   ar
   702   803   802   ar
   703  1283  1281    1
   704   569   548    1
   705   822   821    1
   706   565   564    2
   707   483   488    1
   708  1094  1095    1
   709   801   802   ar
   710   837   838    1
   711   837   835    1
   712   131   130   ar
   713  1159  1166   ar
   714  1308  1307   ar
   715   638   636    1
   716   522   521   ar
   717   522   516   ar
   718   488   499    1
   719  1109  1108    1
   720   809   799    1
   721  1287  1285   ar
   722   534   545    1
   723   500   479    2
   724  1281  1282    1
   725   622   621    1
   726  1137  1136    1
   727   521   520   ar
   728   544   545   ar
   729   544   543   ar
   730  1079  1078   ar
   731  1079  1080   ar
   732   836   835    1
   733  1066  1067    1
   734   481   479    1
   735  1285  1286    2
   736   831   812    2
   737  1138  1136    1
   738  1138  1133    1
   739  1153  1152    1
   740  1047  1046    1
   741  1163  1164    2
   742  1163  1165   ar
   743  1152  1150    1
   744  1061  1062   ar
   745  1061  1059   ar
   746  1311  1304   ar
   747  1078  1077   ar
   748  1060  1059    2
   749   621   623    1
   750   621   619    1
   751   566   563   ar
   752   566   567   ar
   753   465   464    1
   754   633   623    1
   755   633   632   ar
   756   588   587    2
   757   609   608    1
   758   135   136   ar
   759   545   539   ar
   760  1296  1295    1
   761  1116  1111    1
   762  1116  1114    1
   763   791   793    1
   764   564   563   ar
   765   564   558   ar
   766  1136  1134    1
   767   127   128    1
   768   127   129   ar
   769  1111  1110    1
   770   631   632   ar
   771   853   832    2
   772  1166  1165   ar
   773   835   833    1
   774   516   515   ar
   775   516   517   ar
   776   548   570    1
   777   548   550    1
   778   515   513   ar
   779   479   463    1
   780   479   501    1
   781  1062  1055   ar
   782   623   618    1
   783  1059  1058   ar
   784  1307  1305   ar
   785   130   136   ar
   786   130   129   ar
   787   821   819    1
   788   821   816    1
   789  1081  1080    1
   790   834   833    1
   791   834   832    1
   792   543   540   ar
   793   794   799    1
   794   794   793    1
   795   499   493   ar
   796   499   498   ar
   797  1067  1065    1
   798  1080  1075   ar
   799  1108  1110    1
   800   799   797    1
   801   819   817    1
   802   819   820    1
   803   563   562   ar
   804  1133  1132    1
   805   636   657    2
   806   636   658    1
   807   636   620    1
   808   463   462    1
   809   795   793    1
   810   795   797    1
   811   795   796    1
   812   492   493   ar
   813   492   490   ar
   814   520   517   ar
   815  1086  1065    2
   816  1148  1129    2
   817   567   568   ar
   818  1046  1048    1
   819  1114  1112    1
   820  1114  1115    1
   821  1052  1053    1
   822  1052  1050    1
   823  1052  1054    1
   824   607   608   ar
   825   607   605   ar
   826  1112  1110    1
   827  1112  1113    1
   828   136   125    1
   829   812   814    1
   830   812   796    1
   831   812   830    1
   832   814   813    1
   833  1077  1076   ar
   834  1150  1151    1
   835   608   610   ar
   836   464   462    1
   837   464   466    1
   838  1295  1297    1
   839  1151  1149    1
   840  1304  1305   ar
   841  1304  1303    1
   842   817   818    1
   843   817   815    1
   844   797   798    1
   845   832   818    1
   846   832   852    1
   847   619   620    1
   848   619   617    1
   849   558   559   ar
   850   587   581   ar
   851   587   586   ar
   852   493   494   ar
   853   816   815    1
   854   517   518   ar
   855   550   549    1
   856  1050  1048    1
   857  1050  1051    1
   858  1055  1054    1
   859  1055  1056   ar
   860  1168  1149    2
   861  1058  1056   ar
   862   539   540   ar
   863   539   538   ar
   864   498   497   ar
   865   491   490    1
   866  1305  1306    2
   867   513   514    1
   868   513   512   ar
   869  1065  1051    1
   870  1065  1085    1
   871   540   541   ar
   872   581   582   ar
   873  1131  1129    1
   874  1131  1130    1
   875  1134  1132    1
   876  1134  1135    1
   877   490   489   ar
   878   462   460    1
   879   618   617    1
   880  1075  1076   ar
   881   469   468   ar
   882   469   470   ar
   883  1054  1049    1
   884   468   467   ar
   885  1056  1057    2
   886  1048  1049    1
   887   606   605    2
   888  1132  1130    1
   889   562   568   ar
   890   562   561   ar
   891   605   604   ar
   892   815   813    1
   893  1129  1113    1
   894  1129  1147    1
   895  1149  1135    1
   896  1149  1167    1
   897   568   557    1
   898   538   536   ar
   899  1298  1303    1
   900  1298  1297    1
   901   466   461    1
   902   466   476    1
   903   617   615    1
   904  1303  1301    1
   905   125   123    1
   906   125   120    1
   907   586   589   ar
   908   586   585   ar
   909  1301  1299    1
   910  1301  1302    1
   911   610   611   ar
   912   589   590   ar
   913  1297  1299    1
   914  1324  1325    1
   915   460   461    1
   916   460   458    1
   917   494   497   ar
   918   494   495   ar
   919   559   561   ar
   920   559   560    1
   921   518   512   ar
   922   518   519    2
   923   549   551    1
   924   124   123    1
   925   467   472   ar
   926   470   476   ar
   927   470   471   ar
   928  1299  1300    1
   929   582   583    1
   930   582   584   ar
   931   541   542    2
   932   541   535   ar
   933   489   495   ar
   934   593   571    2
   935   476   475   ar
   936    87    86    2
   937   552   557    1
   938   552   551    1
   939   123   121    1
   940   120   119    1
   941   604   611   ar
   942   604   603    1
   943    83    82    1
   944   557   555    1
   945   536   535   ar
   946   536   537    1
   947   495   496    2
   948   616   615    1
   949   616   614    1
   950   551   553    1
   951   458   459    1
   952   585   584   ar
   953   585   591   ar
   954   590   591   ar
   955   553   555    1
   956   553   554    1
   957  1325  1319    1
   958   472   471   ar
   959   472   473    1
   960   471   474   ar
   961    67    66    2
   962   555   556    1
   963    84    82    1
   964    84    79    1
   965    84    85    1
   966    86    88   ar
   967    86    85   ar
   968   475   474   ar
   969   601   603    1
   970   601   602    1
   971   601   599    1
   972   603   598    1
   973   459   457    1
   974   635   614    2
   975   591   580    1
   976   571   554    1
   977   571   573    1
   978   571   592    1
   979    82    80    1
   980   121   119    1
   981   121   122    1
   982   119   117    1
   983   446   445   ar
   984   446   447   ar
   985    79    78    1
   986   445   450   ar
   987   118   117    1
   988   118   116    1
   989   614   634    1
   990   614   600    1
   991    88    89   ar
   992   143   142    1
   993   143   148    1
   994   137   116    2
   995    85    92   ar
   996    99    98    1
   997    99   103    1
   998   122   139    1
   999    68    66   ar
  1000    68    69   ar
  1001    78    80    1
  1002    78    76    1
  1003    66    65   ar
  1004    98    96    1
  1005    98   100    1
  1006    96    97    1
  1007   573   572    1
  1008   599   600    1
  1009   599   597    1
  1010   102   116    1
  1011   102   101    1
  1012   447   448   ar
  1013   140   142    1
  1014   140   141    1
  1015   142   144    1
  1016   613   594    2
  1017    81    80    1
  1018    81    95    1
  1019   116   138    1
  1020   598   597    1
  1021   148   149    1
  1022   148   146    1
  1023   450   451    1
  1024   450   449   ar
  1025   477   457    2
  1026    63    62    1
  1027   103   101    1
  1028   103   113    1
  1029   457   478    1
  1030   457   441    1
  1031   580   578    1
  1032   580   575    1
  1033   147   146    1
  1034    70    69    1
  1035   596   594    1
  1036   596   595    1
  1037    89    90    1
  1038    89    91   ar
  1039    76    77    1
  1040   448   449   ar
  1041   448   454   ar
  1042    69    71   ar
  1043   149   156   ar
  1044   149   150   ar
  1045   101   100    1
  1046    92    91   ar
  1047   114    95    2
  1048   443   442    1
  1049    64    65    1
  1050    64    62    1
  1051    64    59    1
  1052    65    72   ar
  1053   141   139    1
  1054   597   595    1
  1055   156   155   ar
  1056    97    95    1
  1057   449   452   ar
  1058   578   576    1
  1059   578   579    1
  1060   575   574    1
  1061   442   440    1
  1062   442   444    1
  1063   576   574    1
  1064   576   577    1
  1065    62    60    1
  1066   139   157    2
  1067   139   158    1
  1068    95   115    1
  1069   146   144    1
  1070   572   574    1
  1071   594   577    1
  1072   594   612    1
  1073   151   150    2
  1074    50    49    1
  1075   150   152   ar
  1076   441   440    1
  1077    48    46   ar
  1078    48    49   ar
  1079    47    46    2
  1080   144   145    1
  1081   113   107   ar
  1082   113   112   ar
  1083   155   153   ar
  1084    29    27    2
  1085   106   107   ar
  1086   106   105   ar
  1087   440   438    1
  1088   454   444    1
  1089   454   453   ar
  1090    30    28    2
  1091   145   159    1
  1092   152   153   ar
  1093   452   453   ar
  1094    77    75    1
  1095    59    58    1
  1096   107   108   ar
  1097    46    45   ar
  1098   444   439    1
  1099    49    51   ar
  1100    71    72   ar
  1101   153   154    2
  1102   112   111   ar
  1103   105   104   ar
  1104    60    58    1
  1105    60    61    1
  1106    27    25   am
  1107    27    31    1
  1108    58    56    1
  1109    28    26   am
  1110    61    75    1
  1111   108   111   ar
  1112   108   109   ar
  1113    25    32    1
  1114    25    21    1
  1115    32    34    1
  1116   438   439    1
  1117   438   436    1
  1118   104   109   ar
  1119    75    93    2
  1120    75    94    1
  1121   424   423    1
  1122   159   177    2
  1123   159   178    1
  1124   159   161    1
  1125    45    44    1
  1126    45    52   ar
  1127    51    52   ar
  1128   437   436    1
  1129   437   435    1
  1130   456   435    2
  1131   109   110    1
  1132   160   161    1
  1133   160   162    1
  1134    31    33    1
  1135   163   162    1
  1136   163   168    1
  1137    26    22   am
  1138    44    42    1
  1139    44    39    1
  1140    43    42    1
  1141   322   301    2
  1142   423   422   ar
  1143   423   425   ar
  1144   420   419    1
  1145    42    40    1
  1146    21    23    1
  1147    21    20    1
  1148    56    57    1
  1149    34    19    1
  1150   422   428   ar
  1151    23    20    1
  1152   435   455    1
  1153   435   418    1
  1154   162   164    1
  1155   284   285    1
  1156   284   286    1
  1157    57    55    1
  1158   425   426   ar
  1159   176   175   ar
  1160   176   169   ar
  1161   175   173   ar
  1162   168   169    1
  1163   168   166    1
  1164    33    19    1
  1165    33     2    1
  1166   169   170   ar
  1167   428   429    2
  1168   428   427   ar
  1169   173   174    1
  1170   173   172   ar
  1171    22    24    2
  1172   289   301    1
  1173   289   288    1
  1174   301   323    1
  1175   301   303    1
  1176    39    38    1
  1177   426   427   ar
  1178   426   432   ar
  1179   419   421    1
  1180   419   417    1
  1181   418   417    1
  1182    40    41    1
  1183    40    38    1
  1184   170   172   ar
  1185   170   171    2
  1186   286   288    1
  1187   286   287    1
  1188   427   430   ar
  1189   421   432    1
  1190   421   416    1
  1191   164   166    1
  1192   164   165    1
  1193   432   431   ar
  1194    55    41    1
  1195    55    74    2
  1196    55    73    1
  1197   288   290    1
  1198   417   415    1
  1199    38    36    1
  1200   166   167    1
  1201     2     4    2
  1202     2     3    1
  1203     8    17    1
  1204     8     7    1
  1205   430   431   ar
  1206   303   302    1
  1207    18    13    1
  1208   165   179    1
  1209   302   304    1
  1210   287   292    1
  1211   406   405    1
  1212     3     1    1
  1213   416   415    1
  1214    13    10    2
  1215    37    36    1
  1216    37    35    1
  1217     6     9    1
  1218     6     5    1
  1219   400   405   ar
  1220   400   401   ar
  1221   345   324    2
  1222   346   324    1
  1223   291   290    1
  1224   415   413    1
  1225   290   292    1
  1226   405   404   ar
  1227    14    15    1
  1228     9    12    2
  1229    54    35    2
  1230   198   179    2
  1231   292   293    1
  1232   324   307    1
  1233   324   326    1
  1234   401   402   ar
  1235   307   306    1
  1236   179   197    1
  1237   179   181    1
  1238   300   293   ar
  1239   300   299   ar
  1240   304   306    1
  1241   304   305    1
  1242    15    16    1
  1243     5     1    1
  1244    35    11    1
  1245    35    53    1
  1246   194   193    1
  1247   414   413    1
  1248   414   412    1
  1249   404   407   ar
  1250   404   403   ar
  1251   306   308    1
  1252   195   193   ar
  1253   195   196   ar
  1254   293   294   ar
  1255   299   297   ar
  1256   193   192   ar
  1257   402   403   ar
  1258   181   180    1
  1259   407   408   ar
  1260   305   310    1
  1261   196   189   ar
  1262   403   409   ar
  1263   434   412    2
  1264   384   383    2
  1265   326   325    1
  1266   365   347    2
  1267   180   182    1
  1268   412   433    1
  1269   412   396    1
  1270   192   190   ar
  1271   320   319   ar
  1272   320   321   ar
  1273   183   182    1
  1274   183   188    1
  1275   366   347    1
  1276   189   190   ar
  1277   189   188    1
  1278   408   409   ar
  1279   294   295    2
  1280   294   296   ar
  1281   308   310    1
  1282   308   309    1
  1283   297   296   ar
  1284   297   298    1
  1285   409   399    1
  1286   190   191    2
  1287   319   316   ar
  1288   325   327    1
  1289   310   321    1
  1290   383   377   ar
  1291   383   382   ar
  1292   347   330    1
  1293   347   349    1
  1294   182   184    1
  1295   397   395    1
  1296   397   398    1
  1297   397   399    1
  1298   321   315   ar
  1299   188   186    1
  1300   395   396    1
  1301   395   393    1
  1302   377   378   ar
  1303   411   390    2
  1304   389   367    2
  1305   362   361    2
  1306   330   329    1
  1307   399   394    1
  1308   385   382   ar
  1309   385   386   ar
  1310   382   381   ar
  1311   342   343   ar
  1312   342   339   ar
  1313   363   361   ar
  1314   363   364   ar
  1315   329   327    1
  1316   329   331    1
  1317   343   344   ar
  1318   316   315   ar
  1319   316   317   ar
  1320   215   214    1
  1321   392   390    1
  1322   392   391    1
  1323   184   186    1
  1324   184   185    1
  1325   327   328    1
  1326   361   360   ar
  1327   315   314   ar
  1328   349   348    1
  1329   348   350    1
  1330   378   379    1
  1331   378   380   ar
  1332   390   410    1
  1333   390   373    1
  1334   186   187    1
  1335   394   393    1
  1336   393   391    1
  1337   341   340    2
  1338   386   387   ar
  1339   364   357   ar
  1340   381   380   ar
  1341   381   387   ar
  1342   367   388    1
  1343   367   369    1
  1344   367   353    1
  1345   339   340   ar
  1346   339   338   ar
  1347   318   317    2
  1348   328   333    1
  1349   317   311   ar
  1350   216   213   ar
  1351   216   217   ar
  1352   214   213   ar
  1353   214   209   ar
  1354   344   333    1
  1355   344   338   ar
  1356   185   199    1
  1357   340   334   ar
  1358   369   368    1
  1359   314   312   ar
  1360   331   333    1
  1361   331   332    1
  1362   387   376    1
  1363   360   358   ar
  1364   273   272    1
  1365   220   199    2
  1366   213   212   ar
  1367   350   352    1
  1368   350   351    1
  1369   338   337   ar
  1370   352   353    1
  1371   352   354    1
  1372   372   373    1
  1373   372   374    1
  1374   372   370    1
  1375   209   210   ar
  1376   357   358   ar
  1377   357   356    1
  1378   217   218   ar
  1379   311   312   ar
  1380   374   376    1
  1381   374   375    1
  1382   351   356    1
  1383   199   201    1
  1384   199   219    1
  1385   312   313    1
  1386   358   359    2
  1387   271   272   ar
  1388   271   277   ar
  1389   236   235    1
  1390   272   274   ar
  1391   376   371    1
  1392   334   335   ar
  1393   368   370    1
  1394   212   218   ar
  1395   212   211   ar
  1396   356   354    1
  1397   210   211   ar
  1398   370   371    1
  1399   218   208    1
  1400   337   335   ar
  1401   354   355    1
  1402   201   200    1
  1403   278   277    2
  1404   256   255    1
  1405   335   336    1
  1406   277   276   ar
  1407   235   234   ar
  1408   235   237   ar
  1409   274   275   ar
  1410   203   208    1
  1411   203   202    1
  1412   234   232   ar
  1413   200   202    1
  1414   208   206    1
  1415   237   238   ar
  1416   254   255   ar
  1417   254   252   ar
  1418   255   257   ar
  1419   276   275   ar
  1420   276   279   ar
  1421   275   281   ar
  1422   202   204    1
  1423   232   233    2
  1424   232   231   ar
  1425   253   252    2
  1426   252   251   ar
  1427   238   231   ar
  1428   204   206    1
  1429   204   205    1
  1430   257   258   ar
  1431   206   207    1
  1432   231   230    1
  1433   279   280   ar
  1434   281   270    1
  1435   281   280   ar
  1436   240   221    2
  1437   269   268    1
  1438   251   258   ar
  1439   251   250    1
  1440   270   268    1
  1441   270   265    1
  1442   205   221    1
  1443   268   266    1
  1444   230   225    1
  1445   230   228    1
  1446   221   223    1
  1447   221   239    1
  1448   225   224    1
  1449   250   248    1
  1450   250   245    1
  1451   223   222    1
  1452   265   264    1
  1453   228   226    1
  1454   228   229    1
  1455   248   249    1
  1456   248   246    1
  1457   266   264    1
  1458   266   267    1
  1459   245   244    1
  1460   222   224    1
  1461   224   226    1
  1462   226   227    1
  1463   264   262    1
  1464   260   241    2
  1465   246   244    1
  1466   246   247    1
  1467   244   242    1
  1468   263   262    1
  1469   263   261    1
  1470   227   241    1
  1471   242   243    1
  1472   283   261    2
  1473   247   261    1
  1474   243   241    1
  1475   241   259    1
  1476   261   282    1
