2oe5_lig
 OpenBabel02221317003D

 37 40  0  0  1  0  0  0  0  0999 V2000
   20.6690    1.1630   54.0570 C   0  0  1  0  0  0  0  0  0  0  0  0
   19.4830    1.5270   53.1360 C   0  0  1  0  0  0  0  0  0  0  0  0
   18.9570    0.2240   52.4270 C   0  0  0  0  0  0  0  0  0  0  0  0
   20.1650   -0.3260   51.6360 C   0  0  1  0  0  0  0  0  0  0  0  0
   21.3790   -0.6910   52.6000 C   0  0  1  0  0  0  0  0  0  0  0  0
   22.6020   -1.2530   51.8250 C   0  0  1  0  0  0  0  0  0  0  0  0
   22.1150   -2.5260   51.0760 C   0  0  1  0  0  0  0  0  0  0  0  0
   20.8880   -2.1300   50.1700 C   0  0  2  0  0  0  0  0  0  0  0  0
   24.5270   -3.5330   50.9000 C   0  0  0  0  0  0  0  0  0  0  0  0
   18.3900    2.1300   53.9330 N   0  0  0  0  0  0  0  0  0  0  0  0
   23.2370   -3.1120   50.2500 N   0  0  0  0  0  0  0  0  0  0  0  0
   20.2760    0.2700   55.1120 O   0  0  0  0  0  0  0  0  0  0  0  0
   21.7690    0.5230   53.3200 O   0  0  0  0  0  0  0  0  0  0  0  0
   19.7750   -1.5390   50.9380 O   0  0  0  0  0  0  0  0  0  0  0  0
   23.0510   -0.2420   50.9170 O   0  0  0  0  0  0  0  0  0  0  0  0
   20.3770   -3.2770   49.5200 O   0  0  0  0  0  0  0  0  0  0  0  0
   19.6630   -2.9020   48.3570 C   0  0  2  0  0  0  0  0  0  0  0  0
   18.4310   -3.7760   48.1250 C   0  0  1  0  0  0  0  0  0  0  0  0
   18.8330   -5.2520   47.8550 C   0  0  2  0  0  0  0  0  0  0  0  0
   19.7910   -5.2600   46.6270 C   0  0  1  0  0  0  0  0  0  0  0  0
   21.0370   -4.3810   46.9750 C   0  0  1  0  0  0  0  0  0  0  0  0
   22.0170   -4.2740   45.8280 C   0  0  0  0  0  0  0  0  0  0  0  0
   20.1860   -6.6930   46.3540 N   0  0  0  0  0  0  0  0  0  0  0  0
   20.5670   -3.0110   47.2130 O   0  0  0  0  0  0  0  0  0  0  0  0
   17.6020   -3.6770   49.3000 O   0  0  0  0  0  0  0  0  0  0  0  0
   17.6380   -5.9890   47.5390 O   0  0  0  0  0  0  0  0  0  0  0  0
   21.3760   -4.0920   44.6120 O   0  0  0  0  0  0  0  0  0  0  0  0
   21.0610    0.3860   56.2990 C   0  0  1  0  0  0  0  0  0  0  0  0
   20.3440    1.3380   57.3220 C   0  0  1  0  0  0  0  0  0  0  0  0
   21.2190    1.4390   58.6230 C   0  0  2  0  0  0  0  0  0  0  0  0
   21.3690    0.0420   59.2440 C   0  0  1  0  0  0  0  0  0  0  0  0
   22.1020   -0.9090   58.2210 C   0  0  0  0  0  0  0  0  0  0  0  0
   21.2320   -1.0000   56.9060 C   0  0  2  0  0  0  0  0  0  0  0  0
   22.1640    0.1520   60.4560 N   0  0  0  0  0  0  0  0  0  0  0  0
   21.9010   -1.8720   55.9050 N   0  0  0  0  0  0  0  0  0  0  0  0
   20.1990    2.6640   56.7370 O   0  0  0  0  0  0  0  0  0  0  0  0
   20.5730    2.2740   59.5470 O   0  0  0  0  0  0  0  0  0  0  0  0
  1  2  1  0  0  0  0
  1 12  1  6  0  0  0
  1 13  1  0  0  0  0
  2  3  1  0  0  0  0
  2 10  1  1  0  0  0
  4  3  1  1  0  0  0
  4  5  1  0  0  0  0
  4 14  1  0  0  0  0
  5  6  1  0  0  0  0
  5 13  1  6  0  0  0
  6  7  1  0  0  0  0
  6 15  1  6  0  0  0
  7  8  1  0  0  0  0
  7 11  1  6  0  0  0
  8 14  1  0  0  0  0
  8 16  1  1  0  0  0
  9 11  1  0  0  0  0
 17 16  1  6  0  0  0
 17 18  1  0  0  0  0
 17 24  1  0  0  0  0
 18 19  1  0  0  0  0
 18 25  1  1  0  0  0
 19 20  1  0  0  0  0
 19 26  1  6  0  0  0
 20 21  1  0  0  0  0
 20 23  1  1  0  0  0
 21 22  1  6  0  0  0
 21 24  1  0  0  0  0
 22 27  1  0  0  0  0
 28 12  1  1  0  0  0
 28 29  1  0  0  0  0
 28 33  1  0  0  0  0
 29 30  1  0  0  0  0
 29 36  1  6  0  0  0
 30 31  1  0  0  0  0
 30 37  1  1  0  0  0
 31 32  1  0  0  0  0
 31 34  1  6  0  0  0
 32 33  1  0  0  0  0
 33 35  1  6  0  0  0
M  END
$$$$
