2oe5_lig
 OpenBabel11021811463D
libRbt.so/2013.1/901 2013/11/27
 37 40  0  0  0  0  0  0  0  0999 V2000
   20.7219    1.3972   53.6910 C   0  0  1  0  0  0  0  0  0  0  0  0
   19.6709    1.9352   52.6943 C   0  0  1  0  0  0  0  0  0  0  0  0
   18.9411    0.7233   52.0046 C   0  0  0  0  0  0  0  0  0  0  0  0
   20.0585   -0.0789   51.3007 C   0  0  1  0  0  0  0  0  0  0  0  0
   21.1347   -0.6212   52.3419 C   0  0  1  0  0  0  0  0  0  0  0  0
   22.2637   -1.4372   51.6553 C   0  0  1  0  0  0  0  0  0  0  0  0
   21.5797   -2.6288   50.9267 C   0  0  1  0  0  0  0  0  0  0  0  0
   20.4939   -2.0510   49.9416 C   0  0  2  0  0  0  0  0  0  0  0  0
   23.7234   -4.1345   50.9278 C   0  0  0  0  0  0  0  0  0  0  0  0
   18.6761    2.7681   53.4085 N   0  0  0  0  0  0  0  0  0  0  0  0
   22.6075   -3.4517   50.1845 N   0  0  0  0  0  0  0  0  0  0  0  0
   20.1176    0.6425   54.7542 O   0  0  0  0  0  0  0  0  0  0  0  0
   21.7137    0.5294   53.0384 O   0  0  0  0  0  0  0  0  0  0  0  0
   19.4785   -1.2275   50.6262 O   0  0  0  0  0  0  0  0  0  0  0  0
   22.9384   -0.5706   50.7377 O   0  0  0  0  0  0  0  0  0  0  0  0
   19.8056   -3.1100   49.3059 O   0  0  0  0  0  0  0  0  0  0  0  0
   19.0230   -2.6119   48.2370 C   0  0  2  0  0  0  0  0  0  0  0  0
   17.8730   -3.5503   47.8730 C   0  0  1  0  0  0  0  0  0  0  0  0
   18.4048   -4.9101   47.3427 C   0  0  2  0  0  0  0  0  0  0  0  0
   19.3202   -4.6105   46.1188 C   0  0  1  0  0  0  0  0  0  0  0  0
   20.4873   -3.6859   46.5976 C   0  0  1  0  0  0  0  0  0  0  0  0
   21.4162   -3.2855   45.4732 C   0  0  0  0  0  0  0  0  0  0  0  0
   19.8408   -5.9283   45.5931 N   0  0  0  0  0  0  0  0  0  0  0  0
   19.8969   -2.4312   47.0788 O   0  0  0  0  0  0  0  0  0  0  0  0
   17.0756   -3.7387   49.0589 O   0  0  0  0  0  0  0  0  0  0  0  0
   17.2759   -5.6959   46.9195 O   0  0  0  0  0  0  0  0  0  0  0  0
   20.7778   -2.4980   44.5272 O   0  0  0  0  0  0  0  0  0  0  0  0
   20.8522    0.6655   55.9783 C   0  0  1  0  0  0  0  0  0  0  0  0
   20.0530    1.4701   57.0651 C   0  0  1  0  0  0  0  0  0  0  0  0
   20.8740    1.4700   58.4047 C   0  0  2  0  0  0  0  0  0  0  0  0
   21.0686    0.0226   58.8811 C   0  0  1  0  0  0  0  0  0  0  0  0
   21.8836   -0.7802   57.7951 C   0  0  0  0  0  0  0  0  0  0  0  0
   21.0677   -0.7685   56.4429 C   0  0  2  0  0  0  0  0  0  0  0  0
   21.8125    0.0375   60.1299 N   0  0  0  0  0  0  0  0  0  0  0  0
   21.8143   -1.4980   55.3844 N   0  0  0  0  0  0  0  0  0  0  0  0
   19.8655    2.8433   56.6172 O   0  0  0  0  0  0  0  0  0  0  0  0
   20.1550    2.1720   59.3837 O   0  0  0  0  0  0  0  0  0  0  0  0
  1  2  1  0  0  0  0
  1 12  1  1  0  0  0
  1 13  1  0  0  0  0
  2  3  1  0  0  0  0
  2 10  1  1  0  0  0
  4  3  1  1  0  0  0
  4  5  1  0  0  0  0
  4 14  1  0  0  0  0
  5  6  1  0  0  0  0
  5 13  1  6  0  0  0
  6  7  1  0  0  0  0
  6 15  1  6  0  0  0
  7  8  1  0  0  0  0
  7 11  1  6  0  0  0
  8 14  1  0  0  0  0
  8 16  1  1  0  0  0
  9 11  1  0  0  0  0
 17 16  1  1  0  0  0
 17 18  1  0  0  0  0
 17 24  1  0  0  0  0
 18 19  1  0  0  0  0
 18 25  1  1  0  0  0
 19 20  1  0  0  0  0
 19 26  1  6  0  0  0
 20 21  1  0  0  0  0
 20 23  1  1  0  0  0
 21 22  1  6  0  0  0
 21 24  1  0  0  0  0
 22 27  1  0  0  0  0
 28 12  1  6  0  0  0
 28 29  1  0  0  0  0
 28 33  1  0  0  0  0
 29 30  1  0  0  0  0
 29 36  1  6  0  0  0
 30 31  1  0  0  0  0
 30 37  1  1  0  0  0
 31 32  1  0  0  0  0
 31 34  1  1  0  0  0
 32 33  1  0  0  0  0
 33 35  1  6  0  0  0
M  END
>  <CHROM.1>
-151.58985447,61.33933415,-168.46008226,-157.50599049,64.95254198,111.73384754
20.38891722,-1.31897714,51.80880206,1.44560665,-0.66983441,1.04956924

>  <Name>
2oe5_lig

>  <RI>
0

>  <Rbt.Current_Directory>
/home/itssahil/PROJECTS/Mol_Feturizer/New_Systems/rnas/2oe5

>  <Rbt.Executable>
rbdock ($Id: //depot/dev/client3/rdock/2013.1/src/exe/rbdock.cxx#4 $)

>  <Rbt.Library>
libRbt.so (2013.1, Build901 2013/11/27)

>  <Rbt.Parameter_File>
/export/apps/rDock/src/rDock_2013.1_src/data/scripts/dock_solv.prm

>  <Rbt.Receptor>
prm/pocket_docking_2.prm

>  <SCORE>
-17.6393

>  <SCORE.INTER>
-16.3537

>  <SCORE.INTER.CONST>
1

>  <SCORE.INTER.POLAR>
-1.95427

>  <SCORE.INTER.ROT>
6

>  <SCORE.INTER.SOLV>
16.1735

>  <SCORE.INTER.VDW>
-17.3794

>  <SCORE.INTER.norm>
-0.441991

>  <SCORE.INTRA>
-1.3972

>  <SCORE.INTRA.DIHEDRAL>
-3.05043

>  <SCORE.INTRA.DIHEDRAL.0>
16.2083

>  <SCORE.INTRA.POLAR>
0

>  <SCORE.INTRA.POLAR.0>
0

>  <SCORE.INTRA.REPUL>
0

>  <SCORE.INTRA.REPUL.0>
0

>  <SCORE.INTRA.SOLV>
0.277502

>  <SCORE.INTRA.SOLV.lig_0>
-89.8095

>  <SCORE.INTRA.VDW>
-0.0107359

>  <SCORE.INTRA.VDW.0>
-3.19502

>  <SCORE.INTRA.norm>
-0.0377622

>  <SCORE.RESTR>
0.111566

>  <SCORE.RESTR.CAVITY>
0.111566

>  <SCORE.RESTR.norm>
0.00301528

>  <SCORE.SYSTEM>
0

>  <SCORE.SYSTEM.CONST>
0

>  <SCORE.SYSTEM.DIHEDRAL>
0

>  <SCORE.SYSTEM.SOLV>
0

>  <SCORE.SYSTEM.norm>
0

>  <SCORE.heavy>
37

>  <SCORE.norm>
-0.476738

>  <RMSD>
0.709

$$$$
2oe5_lig
 OpenBabel11021811463D
libRbt.so/2013.1/901 2013/11/27
 37 40  0  0  0  0  0  0  0  0999 V2000
   20.7674    1.7779   53.6395 C   0  0  1  0  0  0  0  0  0  0  0  0
   19.6126    2.1620   52.6875 C   0  0  1  0  0  0  0  0  0  0  0  0
   19.0383    0.8597   52.0157 C   0  0  0  0  0  0  0  0  0  0  0  0
   20.2314    0.2285   51.2637 C   0  0  1  0  0  0  0  0  0  0  0  0
   21.4135   -0.1564   52.2592 C   0  0  1  0  0  0  0  0  0  0  0  0
   22.6208   -0.7998   51.5238 C   0  0  1  0  0  0  0  0  0  0  0  0
   22.0874   -2.0753   50.8117 C   0  0  1  0  0  0  0  0  0  0  0  0
   20.8929   -1.6568   49.8729 C   0  0  2  0  0  0  0  0  0  0  0  0
   24.2495   -3.5518   50.7241 C   0  0  0  0  0  0  0  0  0  0  0  0
   18.5367    2.8413   53.4454 N   0  0  0  0  0  0  0  0  0  0  0  0
   23.1934   -2.7399   50.0246 N   0  0  0  0  0  0  0  0  0  0  0  0
   20.3190    0.9413   54.7183 O   0  0  0  0  0  0  0  0  0  0  0  0
   21.8478    1.0635   52.9429 O   0  0  0  0  0  0  0  0  0  0  0  0
   19.7969   -0.9897   50.6020 O   0  0  0  0  0  0  0  0  0  0  0  0
   23.1284    0.1573   50.5887 O   0  0  0  0  0  0  0  0  0  0  0  0
   20.3398   -2.8020   49.2549 O   0  0  0  0  0  0  0  0  0  0  0  0
   19.4919   -2.4199   48.1880 C   0  0  2  0  0  0  0  0  0  0  0  0
   18.2975   -3.3600   48.0303 C   0  0  1  0  0  0  0  0  0  0  0  0
   18.7581   -4.7925   47.6446 C   0  0  2  0  0  0  0  0  0  0  0  0
   19.5873   -4.6808   46.3310 C   0  0  1  0  0  0  0  0  0  0  0  0
   20.8070   -3.7402   46.6029 C   0  0  1  0  0  0  0  0  0  0  0  0
   21.6593   -3.5162   45.3737 C   0  0  0  0  0  0  0  0  0  0  0  0
   20.0381   -6.0708   45.9453 N   0  0  0  0  0  0  0  0  0  0  0  0
   20.2820   -2.4162   46.9577 O   0  0  0  0  0  0  0  0  0  0  0  0
   17.5856   -3.3702   49.2836 O   0  0  0  0  0  0  0  0  0  0  0  0
   17.5838   -5.5898   47.4071 O   0  0  0  0  0  0  0  0  0  0  0  0
   20.9323   -2.9617   44.3312 O   0  0  0  0  0  0  0  0  0  0  0  0
   21.1643    0.9674   55.8687 C   0  0  1  0  0  0  0  0  0  0  0  0
   20.6801    2.0840   56.8615 C   0  0  1  0  0  0  0  0  0  0  0  0
   21.6162    2.0842   58.1233 C   0  0  2  0  0  0  0  0  0  0  0  0
   21.5358    0.7153   58.8157 C   0  0  1  0  0  0  0  0  0  0  0  0
   22.0359   -0.4033   57.8223 C   0  0  0  0  0  0  0  0  0  0  0  0
   21.1059   -0.3953   56.5458 C   0  0  2  0  0  0  0  0  0  0  0  0
   22.3910    0.7349   59.9910 N   0  0  0  0  0  0  0  0  0  0  0  0
   21.5586   -1.4235   55.5722 N   0  0  0  0  0  0  0  0  0  0  0  0
   20.7541    3.3840   56.2088 O   0  0  0  0  0  0  0  0  0  0  0  0
   21.1759    3.0681   59.0213 O   0  0  0  0  0  0  0  0  0  0  0  0
  1  2  1  0  0  0  0
  1 12  1  1  0  0  0
  1 13  1  0  0  0  0
  2  3  1  0  0  0  0
  2 10  1  1  0  0  0
  4  3  1  1  0  0  0
  4  5  1  0  0  0  0
  4 14  1  0  0  0  0
  5  6  1  0  0  0  0
  5 13  1  6  0  0  0
  6  7  1  0  0  0  0
  6 15  1  6  0  0  0
  7  8  1  0  0  0  0
  7 11  1  6  0  0  0
  8 14  1  0  0  0  0
  8 16  1  1  0  0  0
  9 11  1  0  0  0  0
 17 16  1  1  0  0  0
 17 18  1  0  0  0  0
 17 24  1  0  0  0  0
 18 19  1  0  0  0  0
 18 25  1  1  0  0  0
 19 20  1  0  0  0  0
 19 26  1  6  0  0  0
 20 21  1  0  0  0  0
 20 23  1  1  0  0  0
 21 22  1  6  0  0  0
 21 24  1  0  0  0  0
 22 27  1  0  0  0  0
 28 12  1  6  0  0  0
 28 29  1  0  0  0  0
 28 33  1  0  0  0  0
 29 30  1  0  0  0  0
 29 36  1  6  0  0  0
 30 31  1  0  0  0  0
 30 37  1  1  0  0  0
 31 32  1  0  0  0  0
 31 34  1  1  0  0  0
 32 33  1  0  0  0  0
 33 35  1  6  0  0  0
M  END
>  <CHROM.1>
-157.41265236,76.51685754,-166.29029839,-145.78935880,58.69133563,91.18250261
20.72676380,-1.00069983,51.77593929,1.44499194,-0.57139510,1.01344995

>  <Name>
2oe5_lig

>  <RI>
0

>  <Rbt.Current_Directory>
/home/itssahil/PROJECTS/Mol_Feturizer/New_Systems/rnas/2oe5

>  <Rbt.Executable>
rbdock ($Id: //depot/dev/client3/rdock/2013.1/src/exe/rbdock.cxx#4 $)

>  <Rbt.Library>
libRbt.so (2013.1, Build901 2013/11/27)

>  <Rbt.Parameter_File>
/export/apps/rDock/src/rDock_2013.1_src/data/scripts/dock_solv.prm

>  <Rbt.Receptor>
prm/pocket_docking_2.prm

>  <SCORE>
-17.4345

>  <SCORE.INTER>
-14.6434

>  <SCORE.INTER.CONST>
1

>  <SCORE.INTER.POLAR>
-1.64647

>  <SCORE.INTER.ROT>
6

>  <SCORE.INTER.SOLV>
15.8762

>  <SCORE.INTER.VDW>
-17.1661

>  <SCORE.INTER.norm>
-0.395767

>  <SCORE.INTRA>
-2.79262

>  <SCORE.INTRA.DIHEDRAL>
-4.59935

>  <SCORE.INTRA.DIHEDRAL.0>
16.2083

>  <SCORE.INTRA.POLAR>
0

>  <SCORE.INTRA.POLAR.0>
0

>  <SCORE.INTRA.REPUL>
0

>  <SCORE.INTRA.REPUL.0>
0

>  <SCORE.INTRA.SOLV>
-0.702098

>  <SCORE.INTRA.SOLV.lig_0>
-89.8095

>  <SCORE.INTRA.VDW>
-0.141892

>  <SCORE.INTRA.VDW.0>
-3.19502

>  <SCORE.INTRA.norm>
-0.0754761

>  <SCORE.RESTR>
0.00147834

>  <SCORE.RESTR.CAVITY>
0.00147834

>  <SCORE.RESTR.norm>
3.99551e-05

>  <SCORE.SYSTEM>
0

>  <SCORE.SYSTEM.CONST>
0

>  <SCORE.SYSTEM.DIHEDRAL>
0

>  <SCORE.SYSTEM.SOLV>
0

>  <SCORE.SYSTEM.norm>
0

>  <SCORE.heavy>
37

>  <SCORE.norm>
-0.471203

>  <RMSD>
0.725

$$$$
2oe5_lig
 OpenBabel11021811463D
libRbt.so/2013.1/901 2013/11/27
 37 40  0  0  0  0  0  0  0  0999 V2000
   20.7608    1.7150   53.6573 C   0  0  1  0  0  0  0  0  0  0  0  0
   19.6294    2.1394   52.6944 C   0  0  1  0  0  0  0  0  0  0  0  0
   19.0219    0.8587   52.0103 C   0  0  0  0  0  0  0  0  0  0  0  0
   20.2028    0.1932   51.2687 C   0  0  1  0  0  0  0  0  0  0  0  0
   21.3609   -0.2329   52.2753 C   0  0  1  0  0  0  0  0  0  0  0  0
   22.5555   -0.9110   51.5505 C   0  0  1  0  0  0  0  0  0  0  0  0
   21.9901   -2.1660   50.8266 C   0  0  1  0  0  0  0  0  0  0  0  0
   20.8200   -1.7061   49.8767 C   0  0  2  0  0  0  0  0  0  0  0  0
   22.9264   -4.2967   49.6240 C   0  0  0  0  0  0  0  0  0  0  0  0
   18.5671    2.8490   53.4435 N   0  0  0  0  0  0  0  0  0  0  0  0
   23.0834   -2.8619   50.0488 N   0  0  0  0  0  0  0  0  0  0  0  0
   20.2742    0.8884   54.7273 O   0  0  0  0  0  0  0  0  0  0  0  0
   21.8258    0.9698   52.9693 O   0  0  0  0  0  0  0  0  0  0  0  0
   19.7375   -1.0078   50.5966 O   0  0  0  0  0  0  0  0  0  0  0  0
   23.1034    0.0335   50.6253 O   0  0  0  0  0  0  0  0  0  0  0  0
   20.2380   -2.8306   49.2474 O   0  0  0  0  0  0  0  0  0  0  0  0
   19.4802   -2.4237   48.1235 C   0  0  2  0  0  0  0  0  0  0  0  0
   18.2715   -3.3268   47.8803 C   0  0  1  0  0  0  0  0  0  0  0  0
   18.7141   -4.7732   47.5266 C   0  0  2  0  0  0  0  0  0  0  0  0
   19.6375   -4.6884   46.2753 C   0  0  1  0  0  0  0  0  0  0  0  0
   20.8632   -3.7856   46.6342 C   0  0  1  0  0  0  0  0  0  0  0  0
   21.8071   -3.5892   45.4689 C   0  0  0  0  0  0  0  0  0  0  0  0
   20.0715   -6.0920   45.9210 N   0  0  0  0  0  0  0  0  0  0  0  0
   20.3553   -2.4457   46.9523 O   0  0  0  0  0  0  0  0  0  0  0  0
   17.4725   -3.3137   49.0799 O   0  0  0  0  0  0  0  0  0  0  0  0
   17.5356   -5.5342   47.2055 O   0  0  0  0  0  0  0  0  0  0  0  0
   21.1664   -3.0421   44.3676 O   0  0  0  0  0  0  0  0  0  0  0  0
   21.1387    0.8323   55.8623 C   0  0  1  0  0  0  0  0  0  0  0  0
   20.5798    1.7539   57.0047 C   0  0  1  0  0  0  0  0  0  0  0  0
   21.5393    1.6652   58.2457 C   0  0  2  0  0  0  0  0  0  0  0  0
   21.5945    0.2126   58.7423 C   0  0  1  0  0  0  0  0  0  0  0  0
   22.1694   -0.7094   57.5988 C   0  0  0  0  0  0  0  0  0  0  0  0
   21.2149   -0.6101   56.3444 C   0  0  2  0  0  0  0  0  0  0  0  0
   22.4699    0.1475   59.9010 N   0  0  0  0  0  0  0  0  0  0  0  0
   21.7351   -1.4499   55.2334 N   0  0  0  0  0  0  0  0  0  0  0  0
   20.5250    3.1325   56.5380 O   0  0  0  0  0  0  0  0  0  0  0  0
   21.0337    2.4728   59.2755 O   0  0  0  0  0  0  0  0  0  0  0  0
  1  2  1  0  0  0  0
  1 12  1  1  0  0  0
  1 13  1  0  0  0  0
  2  3  1  0  0  0  0
  2 10  1  1  0  0  0
  4  3  1  1  0  0  0
  4  5  1  0  0  0  0
  4 14  1  0  0  0  0
  5  6  1  0  0  0  0
  5 13  1  6  0  0  0
  6  7  1  0  0  0  0
  6 15  1  6  0  0  0
  7  8  1  0  0  0  0
  7 11  1  6  0  0  0
  8 14  1  0  0  0  0
  8 16  1  1  0  0  0
  9 11  1  0  0  0  0
 17 16  1  1  0  0  0
 17 18  1  0  0  0  0
 17 24  1  0  0  0  0
 18 19  1  0  0  0  0
 18 25  1  1  0  0  0
 19 20  1  0  0  0  0
 19 26  1  6  0  0  0
 20 21  1  0  0  0  0
 20 23  1  1  0  0  0
 21 22  1  6  0  0  0
 21 24  1  0  0  0  0
 22 27  1  0  0  0  0
 28 12  1  6  0  0  0
 28 29  1  0  0  0  0
 28 33  1  0  0  0  0
 29 30  1  0  0  0  0
 29 36  1  6  0  0  0
 30 31  1  0  0  0  0
 30 37  1  1  0  0  0
 31 32  1  0  0  0  0
 31 34  1  1  0  0  0
 32 33  1  0  0  0  0
 33 35  1  6  0  0  0
M  END
>  <CHROM.1>
-160.25381781,160.71990397,-162.73244545,-147.86765061,57.30444287,102.48392357
20.67904456,-1.13867675,51.73051900,1.43400040,-0.74804805,1.00785820

>  <Name>
2oe5_lig

>  <RI>
0

>  <Rbt.Current_Directory>
/home/itssahil/PROJECTS/Mol_Feturizer/New_Systems/rnas/2oe5

>  <Rbt.Executable>
rbdock ($Id: //depot/dev/client3/rdock/2013.1/src/exe/rbdock.cxx#4 $)

>  <Rbt.Library>
libRbt.so (2013.1, Build901 2013/11/27)

>  <Rbt.Parameter_File>
/export/apps/rDock/src/rDock_2013.1_src/data/scripts/dock_solv.prm

>  <Rbt.Receptor>
prm/pocket_docking_2.prm

>  <SCORE>
-16.9465

>  <SCORE.INTER>
-14.7354

>  <SCORE.INTER.CONST>
1

>  <SCORE.INTER.POLAR>
-1.58652

>  <SCORE.INTER.ROT>
6

>  <SCORE.INTER.SOLV>
16.7111

>  <SCORE.INTER.VDW>
-17.7056

>  <SCORE.INTER.norm>
-0.398255

>  <SCORE.INTRA>
-2.21108

>  <SCORE.INTRA.DIHEDRAL>
-2.91899

>  <SCORE.INTRA.DIHEDRAL.0>
16.2083

>  <SCORE.INTRA.POLAR>
0

>  <SCORE.INTRA.POLAR.0>
0

>  <SCORE.INTRA.REPUL>
0

>  <SCORE.INTRA.REPUL.0>
0

>  <SCORE.INTRA.SOLV>
0.0492745

>  <SCORE.INTRA.SOLV.lig_0>
-89.8095

>  <SCORE.INTRA.VDW>
-0.776224

>  <SCORE.INTRA.VDW.0>
-3.19502

>  <SCORE.INTRA.norm>
-0.059759

>  <SCORE.RESTR>
0

>  <SCORE.RESTR.CAVITY>
0

>  <SCORE.RESTR.norm>
0

>  <SCORE.SYSTEM>
0

>  <SCORE.SYSTEM.CONST>
0

>  <SCORE.SYSTEM.DIHEDRAL>
0

>  <SCORE.SYSTEM.SOLV>
0

>  <SCORE.SYSTEM.norm>
0

>  <SCORE.heavy>
37

>  <SCORE.norm>
-0.458014

>  <RMSD>
0.730

$$$$
2oe5_lig
 OpenBabel11021811463D
libRbt.so/2013.1/901 2013/11/27
 37 40  0  0  0  0  0  0  0  0999 V2000
   20.7004    1.3773   53.6910 C   0  0  1  0  0  0  0  0  0  0  0  0
   19.6658    1.9098   52.6745 C   0  0  1  0  0  0  0  0  0  0  0  0
   19.0136    0.6965   51.9131 C   0  0  0  0  0  0  0  0  0  0  0  0
   20.1892   -0.0324   51.2244 C   0  0  1  0  0  0  0  0  0  0  0  0
   21.2475   -0.5699   52.2862 C   0  0  1  0  0  0  0  0  0  0  0  0
   22.4347   -1.3128   51.6146 C   0  0  1  0  0  0  0  0  0  0  0  0
   21.8289   -2.5025   50.8170 C   0  0  1  0  0  0  0  0  0  0  0  0
   20.7574   -1.9321   49.8121 C   0  0  2  0  0  0  0  0  0  0  0  0
   23.8504   -4.1686   50.8323 C   0  0  0  0  0  0  0  0  0  0  0  0
   18.6109    2.6739   53.3794 N   0  0  0  0  0  0  0  0  0  0  0  0
   22.9174   -3.2543   50.0858 N   0  0  0  0  0  0  0  0  0  0  0  0
   20.0890    0.5588   54.7016 O   0  0  0  0  0  0  0  0  0  0  0  0
   21.7515    0.5759   53.0462 O   0  0  0  0  0  0  0  0  0  0  0  0
   19.6835   -1.1770   50.4863 O   0  0  0  0  0  0  0  0  0  0  0  0
   23.1063   -0.3852   50.7562 O   0  0  0  0  0  0  0  0  0  0  0  0
   20.1383   -2.9931   49.1120 O   0  0  0  0  0  0  0  0  0  0  0  0
   19.2949   -2.4821   48.0969 C   0  0  2  0  0  0  0  0  0  0  0  0
   18.0634   -3.3580   47.8697 C   0  0  1  0  0  0  0  0  0  0  0  0
   18.4642   -4.7649   47.3471 C   0  0  2  0  0  0  0  0  0  0  0  0
   19.2834   -4.5629   46.0379 C   0  0  1  0  0  0  0  0  0  0  0  0
   20.5413   -3.6981   46.3785 C   0  0  1  0  0  0  0  0  0  0  0  0
   21.3888   -3.3932   45.1635 C   0  0  0  0  0  0  0  0  0  0  0  0
   19.6761   -5.9271   45.5194 N   0  0  0  0  0  0  0  0  0  0  0  0
   20.0716   -2.3940   46.8613 O   0  0  0  0  0  0  0  0  0  0  0  0
   17.3647   -3.4577   49.1265 O   0  0  0  0  0  0  0  0  0  0  0  0
   17.2575   -5.4920   47.0534 O   0  0  0  0  0  0  0  0  0  0  0  0
   20.7329   -2.5629   44.2674 O   0  0  0  0  0  0  0  0  0  0  0  0
   20.7431    0.6096   55.9698 C   0  0  1  0  0  0  0  0  0  0  0  0
   19.8385    1.3667   57.0068 C   0  0  1  0  0  0  0  0  0  0  0  0
   20.5725    1.3978   58.3955 C   0  0  2  0  0  0  0  0  0  0  0  0
   20.8079   -0.0414   58.8781 C   0  0  1  0  0  0  0  0  0  0  0  0
   21.7282   -0.7961   57.8428 C   0  0  0  0  0  0  0  0  0  0  0  0
   20.9994   -0.8153   56.4418 C   0  0  2  0  0  0  0  0  0  0  0  0
   21.4701    0.0014   60.1714 N   0  0  0  0  0  0  0  0  0  0  0  0
   21.8461   -1.5003   55.4300 N   0  0  0  0  0  0  0  0  0  0  0  0
   19.6121    2.7321   56.5528 O   0  0  0  0  0  0  0  0  0  0  0  0
   19.7597    2.0573   59.3297 O   0  0  0  0  0  0  0  0  0  0  0  0
  1  2  1  0  0  0  0
  1 12  1  1  0  0  0
  1 13  1  0  0  0  0
  2  3  1  0  0  0  0
  2 10  1  1  0  0  0
  4  3  1  1  0  0  0
  4  5  1  0  0  0  0
  4 14  1  0  0  0  0
  5  6  1  0  0  0  0
  5 13  1  6  0  0  0
  6  7  1  0  0  0  0
  6 15  1  6  0  0  0
  7  8  1  0  0  0  0
  7 11  1  6  0  0  0
  8 14  1  0  0  0  0
  8 16  1  1  0  0  0
  9 11  1  0  0  0  0
 17 16  1  1  0  0  0
 17 18  1  0  0  0  0
 17 24  1  0  0  0  0
 18 19  1  0  0  0  0
 18 25  1  1  0  0  0
 19 20  1  0  0  0  0
 19 26  1  6  0  0  0
 20 21  1  0  0  0  0
 20 23  1  1  0  0  0
 21 22  1  6  0  0  0
 21 24  1  0  0  0  0
 22 27  1  0  0  0  0
 28 12  1  6  0  0  0
 28 29  1  0  0  0  0
 28 33  1  0  0  0  0
 29 30  1  0  0  0  0
 29 36  1  6  0  0  0
 30 31  1  0  0  0  0
 30 37  1  1  0  0  0
 31 32  1  0  0  0  0
 31 34  1  1  0  0  0
 32 33  1  0  0  0  0
 33 35  1  6  0  0  0
M  END
>  <CHROM.1>
-149.05434048,75.04707854,-172.93857828,-146.67512267,66.90904538,110.15649950
20.40974087,-1.29107178,51.74692390,1.48784573,-0.57180466,1.10060619

>  <Name>
2oe5_lig

>  <RI>
0

>  <Rbt.Current_Directory>
/home/itssahil/PROJECTS/Mol_Feturizer/New_Systems/rnas/2oe5

>  <Rbt.Executable>
rbdock ($Id: //depot/dev/client3/rdock/2013.1/src/exe/rbdock.cxx#4 $)

>  <Rbt.Library>
libRbt.so (2013.1, Build901 2013/11/27)

>  <Rbt.Parameter_File>
/export/apps/rDock/src/rDock_2013.1_src/data/scripts/dock_solv.prm

>  <Rbt.Receptor>
prm/pocket_docking_2.prm

>  <SCORE>
-18.2917

>  <SCORE.INTER>
-17.9575

>  <SCORE.INTER.CONST>
1

>  <SCORE.INTER.POLAR>
-2.18641

>  <SCORE.INTER.ROT>
6

>  <SCORE.INTER.SOLV>
16.5602

>  <SCORE.INTER.VDW>
-17.8037

>  <SCORE.INTER.norm>
-0.485338

>  <SCORE.INTRA>
-0.562449

>  <SCORE.INTRA.DIHEDRAL>
-0.85039

>  <SCORE.INTRA.DIHEDRAL.0>
16.2083

>  <SCORE.INTRA.POLAR>
0

>  <SCORE.INTRA.POLAR.0>
0

>  <SCORE.INTRA.REPUL>
0

>  <SCORE.INTRA.REPUL.0>
0

>  <SCORE.INTRA.SOLV>
0.125666

>  <SCORE.INTRA.SOLV.lig_0>
-89.8095

>  <SCORE.INTRA.VDW>
-0.200087

>  <SCORE.INTRA.VDW.0>
-3.19502

>  <SCORE.INTRA.norm>
-0.0152013

>  <SCORE.RESTR>
0.228213

>  <SCORE.RESTR.CAVITY>
0.228213

>  <SCORE.RESTR.norm>
0.00616793

>  <SCORE.SYSTEM>
0

>  <SCORE.SYSTEM.CONST>
0

>  <SCORE.SYSTEM.DIHEDRAL>
0

>  <SCORE.SYSTEM.SOLV>
0

>  <SCORE.SYSTEM.norm>
0

>  <SCORE.heavy>
37

>  <SCORE.norm>
-0.494372

>  <RMSD>
0.733

$$$$
2oe5_lig
 OpenBabel11021811463D
libRbt.so/2013.1/901 2013/11/27
 37 40  0  0  0  0  0  0  0  0999 V2000
   20.8123    1.6430   53.5969 C   0  0  1  0  0  0  0  0  0  0  0  0
   19.6629    2.0680   52.6558 C   0  0  1  0  0  0  0  0  0  0  0  0
   19.0681    0.7915   51.9530 C   0  0  0  0  0  0  0  0  0  0  0  0
   20.2508    0.1605   51.1846 C   0  0  1  0  0  0  0  0  0  0  0  0
   21.4275   -0.2667   52.1690 C   0  0  1  0  0  0  0  0  0  0  0  0
   22.6242   -0.9104   51.4169 C   0  0  1  0  0  0  0  0  0  0  0  0
   22.0707   -2.1597   50.6743 C   0  0  1  0  0  0  0  0  0  0  0  0
   20.8821   -1.7001   49.7474 C   0  0  2  0  0  0  0  0  0  0  0  0
   24.1459   -3.7522   50.5316 C   0  0  0  0  0  0  0  0  0  0  0  0
   18.5981    2.7450   53.4313 N   0  0  0  0  0  0  0  0  0  0  0  0
   23.1658   -2.8218   49.8700 N   0  0  0  0  0  0  0  0  0  0  0  0
   20.3518    0.7873   54.6555 O   0  0  0  0  0  0  0  0  0  0  0  0
   21.8810    0.9293   52.8818 O   0  0  0  0  0  0  0  0  0  0  0  0
   19.7971   -1.0343   50.4937 O   0  0  0  0  0  0  0  0  0  0  0  0
   23.1458    0.0614   50.5049 O   0  0  0  0  0  0  0  0  0  0  0  0
   20.3110   -2.8212   49.1021 O   0  0  0  0  0  0  0  0  0  0  0  0
   19.4134   -2.3990   48.0927 C   0  0  2  0  0  0  0  0  0  0  0  0
   18.1977   -3.3176   47.9755 C   0  0  1  0  0  0  0  0  0  0  0  0
   18.6147   -4.7458   47.5289 C   0  0  2  0  0  0  0  0  0  0  0  0
   19.3741   -4.6111   46.1758 C   0  0  1  0  0  0  0  0  0  0  0  0
   20.6210   -3.6954   46.4057 C   0  0  1  0  0  0  0  0  0  0  0  0
   21.4097   -3.4510   45.1385 C   0  0  0  0  0  0  0  0  0  0  0  0
   19.7819   -5.9966   45.7308 N   0  0  0  0  0  0  0  0  0  0  0  0
   20.1364   -2.3740   46.8221 O   0  0  0  0  0  0  0  0  0  0  0  0
   17.5538   -3.3509   49.2647 O   0  0  0  0  0  0  0  0  0  0  0  0
   17.4171   -5.5198   47.3347 O   0  0  0  0  0  0  0  0  0  0  0  0
   20.7390   -2.6109   44.2627 O   0  0  0  0  0  0  0  0  0  0  0  0
   21.1868    0.7889   55.8137 C   0  0  1  0  0  0  0  0  0  0  0  0
   20.5952    1.7604   56.8967 C   0  0  1  0  0  0  0  0  0  0  0  0
   21.5225    1.7349   58.1646 C   0  0  2  0  0  0  0  0  0  0  0  0
   21.5702    0.3075   58.7305 C   0  0  1  0  0  0  0  0  0  0  0  0
   22.1778   -0.6644   57.6469 C   0  0  0  0  0  0  0  0  0  0  0  0
   21.2558   -0.6289   56.3651 C   0  0  2  0  0  0  0  0  0  0  0  0
   22.4155    0.3013   59.9130 N   0  0  0  0  0  0  0  0  0  0  0  0
   21.8076   -1.5174   55.3087 N   0  0  0  0  0  0  0  0  0  0  0  0
   20.5475    3.1153   56.3642 O   0  0  0  0  0  0  0  0  0  0  0  0
   20.9875    2.5876   59.1419 O   0  0  0  0  0  0  0  0  0  0  0  0
  1  2  1  0  0  0  0
  1 12  1  1  0  0  0
  1 13  1  0  0  0  0
  2  3  1  0  0  0  0
  2 10  1  1  0  0  0
  4  3  1  1  0  0  0
  4  5  1  0  0  0  0
  4 14  1  0  0  0  0
  5  6  1  0  0  0  0
  5 13  1  6  0  0  0
  6  7  1  0  0  0  0
  6 15  1  6  0  0  0
  7  8  1  0  0  0  0
  7 11  1  6  0  0  0
  8 14  1  0  0  0  0
  8 16  1  1  0  0  0
  9 11  1  0  0  0  0
 17 16  1  1  0  0  0
 17 18  1  0  0  0  0
 17 24  1  0  0  0  0
 18 19  1  0  0  0  0
 18 25  1  1  0  0  0
 19 20  1  0  0  0  0
 19 26  1  6  0  0  0
 20 21  1  0  0  0  0
 20 23  1  1  0  0  0
 21 22  1  6  0  0  0
 21 24  1  0  0  0  0
 22 27  1  0  0  0  0
 28 12  1  6  0  0  0
 28 29  1  0  0  0  0
 28 33  1  0  0  0  0
 29 30  1  0  0  0  0
 29 36  1  6  0  0  0
 30 31  1  0  0  0  0
 30 37  1  1  0  0  0
 31 32  1  0  0  0  0
 31 34  1  1  0  0  0
 32 33  1  0  0  0  0
 33 35  1  6  0  0  0
M  END
>  <CHROM.1>
-156.44740877,81.29137316,-169.40749143,-143.93348505,71.66630250,98.11680218
20.68170808,-1.09969146,51.68688178,1.42860581,-0.59310643,1.03491358

>  <Name>
2oe5_lig

>  <RI>
0

>  <Rbt.Current_Directory>
/home/itssahil/PROJECTS/Mol_Feturizer/New_Systems/rnas/2oe5

>  <Rbt.Executable>
rbdock ($Id: //depot/dev/client3/rdock/2013.1/src/exe/rbdock.cxx#4 $)

>  <Rbt.Library>
libRbt.so (2013.1, Build901 2013/11/27)

>  <Rbt.Parameter_File>
/export/apps/rDock/src/rDock_2013.1_src/data/scripts/dock_solv.prm

>  <Rbt.Receptor>
prm/pocket_docking_2.prm

>  <SCORE>
-18.7507

>  <SCORE.INTER>
-17.1937

>  <SCORE.INTER.CONST>
1

>  <SCORE.INTER.POLAR>
-2.21851

>  <SCORE.INTER.ROT>
6

>  <SCORE.INTER.SOLV>
16.5659

>  <SCORE.INTER.VDW>
-17.1894

>  <SCORE.INTER.norm>
-0.464693

>  <SCORE.INTRA>
-1.76755

>  <SCORE.INTRA.DIHEDRAL>
-2.59721

>  <SCORE.INTRA.DIHEDRAL.0>
16.2083

>  <SCORE.INTRA.POLAR>
0

>  <SCORE.INTRA.POLAR.0>
0

>  <SCORE.INTRA.REPUL>
0

>  <SCORE.INTRA.REPUL.0>
0

>  <SCORE.INTRA.SOLV>
-0.524083

>  <SCORE.INTRA.SOLV.lig_0>
-89.8095

>  <SCORE.INTRA.VDW>
-0.206905

>  <SCORE.INTRA.VDW.0>
-3.19502

>  <SCORE.INTRA.norm>
-0.0477717

>  <SCORE.RESTR>
0.210457

>  <SCORE.RESTR.CAVITY>
0.210457

>  <SCORE.RESTR.norm>
0.00568802

>  <SCORE.SYSTEM>
0

>  <SCORE.SYSTEM.CONST>
0

>  <SCORE.SYSTEM.DIHEDRAL>
0

>  <SCORE.SYSTEM.SOLV>
0

>  <SCORE.SYSTEM.norm>
0

>  <SCORE.heavy>
37

>  <SCORE.norm>
-0.506777

>  <RMSD>
0.736

$$$$
2oe5_lig
 OpenBabel11021811463D
libRbt.so/2013.1/901 2013/11/27
 37 40  0  0  0  0  0  0  0  0999 V2000
   20.7271    1.3728   53.6395 C   0  0  1  0  0  0  0  0  0  0  0  0
   19.6776    1.8987   52.6349 C   0  0  1  0  0  0  0  0  0  0  0  0
   19.0207    0.6810   51.8847 C   0  0  0  0  0  0  0  0  0  0  0  0
   20.1903   -0.0449   51.1830 C   0  0  1  0  0  0  0  0  0  0  0  0
   21.2642   -0.5756   52.2325 C   0  0  1  0  0  0  0  0  0  0  0  0
   22.4457   -1.3154   51.5477 C   0  0  1  0  0  0  0  0  0  0  0  0
   21.8346   -2.5095   50.7607 C   0  0  1  0  0  0  0  0  0  0  0  0
   20.7482   -1.9458   49.7681 C   0  0  2  0  0  0  0  0  0  0  0  0
   23.9265   -4.0863   50.7653 C   0  0  0  0  0  0  0  0  0  0  0  0
   18.6287    2.6604   53.3513 N   0  0  0  0  0  0  0  0  0  0  0  0
   22.9167   -3.2587   50.0175 N   0  0  0  0  0  0  0  0  0  0  0  0
   20.1319    0.5544   54.6597 O   0  0  0  0  0  0  0  0  0  0  0  0
   21.7731    0.5740   52.9833 O   0  0  0  0  0  0  0  0  0  0  0  0
   19.6799   -1.1933   50.4541 O   0  0  0  0  0  0  0  0  0  0  0  0
   23.1026   -0.3874   50.6787 O   0  0  0  0  0  0  0  0  0  0  0  0
   20.1245   -3.0109   49.0784 O   0  0  0  0  0  0  0  0  0  0  0  0
   19.2692   -2.5058   48.0703 C   0  0  2  0  0  0  0  0  0  0  0  0
   18.0367   -3.3846   47.8605 C   0  0  1  0  0  0  0  0  0  0  0  0
   18.4340   -4.7933   47.3399 C   0  0  2  0  0  0  0  0  0  0  0  0
   19.2386   -4.5960   46.0210 C   0  0  1  0  0  0  0  0  0  0  0  0
   20.4988   -3.7277   46.3439 C   0  0  1  0  0  0  0  0  0  0  0  0
   21.3325   -3.4270   45.1184 C   0  0  0  0  0  0  0  0  0  0  0  0
   19.6278   -5.9619   45.5043 N   0  0  0  0  0  0  0  0  0  0  0  0
   20.0323   -2.4221   46.8259 O   0  0  0  0  0  0  0  0  0  0  0  0
   17.3519   -3.4797   49.1253 O   0  0  0  0  0  0  0  0  0  0  0  0
   17.2254   -5.5235   47.0627 O   0  0  0  0  0  0  0  0  0  0  0  0
   20.6657   -2.6014   44.2259 O   0  0  0  0  0  0  0  0  0  0  0  0
   20.8059    0.6053   55.9174 C   0  0  1  0  0  0  0  0  0  0  0  0
   19.8797    1.2789   56.9923 C   0  0  1  0  0  0  0  0  0  0  0  0
   20.6370    1.3113   58.3685 C   0  0  2  0  0  0  0  0  0  0  0  0
   20.9625   -0.1257   58.8031 C   0  0  1  0  0  0  0  0  0  0  0  0
   21.9043   -0.7959   57.7298 C   0  0  0  0  0  0  0  0  0  0  0  0
   21.1513   -0.8157   56.3416 C   0  0  2  0  0  0  0  0  0  0  0  0
   21.6456   -0.0828   60.0855 N   0  0  0  0  0  0  0  0  0  0  0  0
   22.0162   -1.4213   55.2951 N   0  0  0  0  0  0  0  0  0  0  0  0
   19.5678    2.6418   56.5838 O   0  0  0  0  0  0  0  0  0  0  0  0
   19.8059    1.8956   59.3361 O   0  0  0  0  0  0  0  0  0  0  0  0
  1  2  1  0  0  0  0
  1 12  1  1  0  0  0
  1 13  1  0  0  0  0
  2  3  1  0  0  0  0
  2 10  1  1  0  0  0
  4  3  1  1  0  0  0
  4  5  1  0  0  0  0
  4 14  1  0  0  0  0
  5  6  1  0  0  0  0
  5 13  1  6  0  0  0
  6  7  1  0  0  0  0
  6 15  1  6  0  0  0
  7  8  1  0  0  0  0
  7 11  1  6  0  0  0
  8 14  1  0  0  0  0
  8 16  1  1  0  0  0
  9 11  1  0  0  0  0
 17 16  1  1  0  0  0
 17 18  1  0  0  0  0
 17 24  1  0  0  0  0
 18 19  1  0  0  0  0
 18 25  1  1  0  0  0
 19 20  1  0  0  0  0
 19 26  1  6  0  0  0
 20 21  1  0  0  0  0
 20 23  1  1  0  0  0
 21 22  1  6  0  0  0
 21 24  1  0  0  0  0
 22 27  1  0  0  0  0
 28 12  1  6  0  0  0
 28 29  1  0  0  0  0
 28 33  1  0  0  0  0
 29 30  1  0  0  0  0
 29 36  1  6  0  0  0
 30 31  1  0  0  0  0
 30 37  1  1  0  0  0
 31 32  1  0  0  0  0
 31 34  1  1  0  0  0
 32 33  1  0  0  0  0
 33 35  1  6  0  0  0
M  END
>  <CHROM.1>
-149.36928454,70.45167676,-172.76722993,-146.59949306,66.92963614,113.83777838
20.42963564,-1.31569238,51.70482518,1.47754960,-0.52826956,1.10018098

>  <Name>
2oe5_lig

>  <RI>
0

>  <Rbt.Current_Directory>
/home/itssahil/PROJECTS/Mol_Feturizer/New_Systems/rnas/2oe5

>  <Rbt.Executable>
rbdock ($Id: //depot/dev/client3/rdock/2013.1/src/exe/rbdock.cxx#4 $)

>  <Rbt.Library>
libRbt.so (2013.1, Build901 2013/11/27)

>  <Rbt.Parameter_File>
/export/apps/rDock/src/rDock_2013.1_src/data/scripts/dock_solv.prm

>  <Rbt.Receptor>
prm/pocket_docking_2.prm

>  <SCORE>
-18.4247

>  <SCORE.INTER>
-18.2707

>  <SCORE.INTER.CONST>
1

>  <SCORE.INTER.POLAR>
-2.1702

>  <SCORE.INTER.ROT>
6

>  <SCORE.INTER.SOLV>
16.2404

>  <SCORE.INTER.VDW>
-17.96

>  <SCORE.INTER.norm>
-0.493804

>  <SCORE.INTRA>
-0.396299

>  <SCORE.INTRA.DIHEDRAL>
-0.689544

>  <SCORE.INTRA.DIHEDRAL.0>
16.2083

>  <SCORE.INTRA.POLAR>
0

>  <SCORE.INTRA.POLAR.0>
0

>  <SCORE.INTRA.REPUL>
0

>  <SCORE.INTRA.REPUL.0>
0

>  <SCORE.INTRA.SOLV>
0.249594

>  <SCORE.INTRA.SOLV.lig_0>
-89.8095

>  <SCORE.INTRA.VDW>
-0.176324

>  <SCORE.INTRA.VDW.0>
-3.19502

>  <SCORE.INTRA.norm>
-0.0107108

>  <SCORE.RESTR>
0.242312

>  <SCORE.RESTR.CAVITY>
0.242312

>  <SCORE.RESTR.norm>
0.00654896

>  <SCORE.SYSTEM>
0

>  <SCORE.SYSTEM.CONST>
0

>  <SCORE.SYSTEM.DIHEDRAL>
0

>  <SCORE.SYSTEM.SOLV>
0

>  <SCORE.SYSTEM.norm>
0

>  <SCORE.heavy>
37

>  <SCORE.norm>
-0.497965

>  <RMSD>
0.743

$$$$
2oe5_lig
 OpenBabel11021811463D
libRbt.so/2013.1/901 2013/11/27
 37 40  0  0  0  0  0  0  0  0999 V2000
   20.8157    1.3509   53.6075 C   0  0  1  0  0  0  0  0  0  0  0  0
   19.6564    1.7982   52.6892 C   0  0  1  0  0  0  0  0  0  0  0  0
   19.0946    0.5480   51.9155 C   0  0  0  0  0  0  0  0  0  0  0  0
   20.2933   -0.0092   51.1156 C   0  0  1  0  0  0  0  0  0  0  0  0
   21.4800   -0.4605   52.0771 C   0  0  1  0  0  0  0  0  0  0  0  0
   22.6931   -1.0309   51.2927 C   0  0  1  0  0  0  0  0  0  0  0  0
   22.1719   -2.2508   50.4810 C   0  0  1  0  0  0  0  0  0  0  0  0
   20.9725   -1.7707   49.5786 C   0  0  2  0  0  0  0  0  0  0  0  0
   24.2954   -3.7684   50.2576 C   0  0  0  0  0  0  0  0  0  0  0  0
   18.5744    2.4039   53.4990 N   0  0  0  0  0  0  0  0  0  0  0  0
   23.2839   -2.8393   49.6433 N   0  0  0  0  0  0  0  0  0  0  0  0
   20.3766    0.4263   54.6161 O   0  0  0  0  0  0  0  0  0  0  0  0
   21.9026    0.7053   52.8560 O   0  0  0  0  0  0  0  0  0  0  0  0
   19.8704   -1.1750   50.3586 O   0  0  0  0  0  0  0  0  0  0  0  0
   23.1903    0.0029   50.4370 O   0  0  0  0  0  0  0  0  0  0  0  0
   20.4304   -2.8683   48.8711 O   0  0  0  0  0  0  0  0  0  0  0  0
   19.4547   -2.4211   47.9486 C   0  0  2  0  0  0  0  0  0  0  0  0
   18.1771   -3.2578   48.0033 C   0  0  1  0  0  0  0  0  0  0  0  0
   18.4491   -4.7259   47.5746 C   0  0  2  0  0  0  0  0  0  0  0  0
   19.0600   -4.6907   46.1423 C   0  0  1  0  0  0  0  0  0  0  0  0
   20.3810   -3.8551   46.1962 C   0  0  1  0  0  0  0  0  0  0  0  0
   21.0375   -3.7095   44.8414 C   0  0  0  0  0  0  0  0  0  0  0  0
   19.3258   -6.1155   45.7144 N   0  0  0  0  0  0  0  0  0  0  0  0
   20.0317   -2.4899   46.6068 O   0  0  0  0  0  0  0  0  0  0  0  0
   17.6802   -3.2021   49.3553 O   0  0  0  0  0  0  0  0  0  0  0  0
   17.1901   -5.4224   47.5448 O   0  0  0  0  0  0  0  0  0  0  0  0
   20.4919   -2.6663   44.1089 O   0  0  0  0  0  0  0  0  0  0  0  0
   21.0975    0.5159   55.8452 C   0  0  1  0  0  0  0  0  0  0  0  0
   20.3413    1.4683   56.8392 C   0  0  1  0  0  0  0  0  0  0  0  0
   21.1456    1.5402   58.1869 C   0  0  2  0  0  0  0  0  0  0  0  0
   21.2392    0.1340   58.7982 C   0  0  1  0  0  0  0  0  0  0  0  0
   22.0115   -0.8176   57.8051 C   0  0  0  0  0  0  0  0  0  0  0  0
   21.2130   -0.8794   56.4439 C   0  0  2  0  0  0  0  0  0  0  0  0
   21.9687    0.2172   60.0528 N   0  0  0  0  0  0  0  0  0  0  0  0
   21.9214   -1.7512   55.4702 N   0  0  0  0  0  0  0  0  0  0  0  0
   20.2496    2.8030   56.2632 O   0  0  0  0  0  0  0  0  0  0  0  0
   20.4638    2.3755   59.0845 O   0  0  0  0  0  0  0  0  0  0  0  0
  1  2  1  0  0  0  0
  1 12  1  1  0  0  0
  1 13  1  0  0  0  0
  2  3  1  0  0  0  0
  2 10  1  1  0  0  0
  4  3  1  1  0  0  0
  4  5  1  0  0  0  0
  4 14  1  0  0  0  0
  5  6  1  0  0  0  0
  5 13  1  6  0  0  0
  6  7  1  0  0  0  0
  6 15  1  6  0  0  0
  7  8  1  0  0  0  0
  7 11  1  6  0  0  0
  8 14  1  0  0  0  0
  8 16  1  1  0  0  0
  9 11  1  0  0  0  0
 17 16  1  1  0  0  0
 17 18  1  0  0  0  0
 17 24  1  0  0  0  0
 18 19  1  0  0  0  0
 18 25  1  1  0  0  0
 19 20  1  0  0  0  0
 19 26  1  6  0  0  0
 20 21  1  0  0  0  0
 20 23  1  1  0  0  0
 21 22  1  6  0  0  0
 21 24  1  0  0  0  0
 22 27  1  0  0  0  0
 28 12  1  6  0  0  0
 28 29  1  0  0  0  0
 28 33  1  0  0  0  0
 29 30  1  0  0  0  0
 29 36  1  6  0  0  0
 30 31  1  0  0  0  0
 30 37  1  1  0  0  0
 31 32  1  0  0  0  0
 31 34  1  1  0  0  0
 32 33  1  0  0  0  0
 33 35  1  6  0  0  0
M  END
>  <CHROM.1>
-148.20728624,80.64676393,-173.44226490,-133.40121909,83.70789139,94.14985339
20.58776291,-1.24186468,51.63631687,1.45808352,-0.32612314,1.10268391

>  <Name>
2oe5_lig

>  <RI>
0

>  <Rbt.Current_Directory>
/home/itssahil/PROJECTS/Mol_Feturizer/New_Systems/rnas/2oe5

>  <Rbt.Executable>
rbdock ($Id: //depot/dev/client3/rdock/2013.1/src/exe/rbdock.cxx#4 $)

>  <Rbt.Library>
libRbt.so (2013.1, Build901 2013/11/27)

>  <Rbt.Parameter_File>
/export/apps/rDock/src/rDock_2013.1_src/data/scripts/dock_solv.prm

>  <Rbt.Receptor>
prm/pocket_docking_2.prm

>  <SCORE>
-19.1657

>  <SCORE.INTER>
-19.5633

>  <SCORE.INTER.CONST>
1

>  <SCORE.INTER.POLAR>
-2.341

>  <SCORE.INTER.ROT>
6

>  <SCORE.INTER.SOLV>
17.2098

>  <SCORE.INTER.VDW>
-18.5755

>  <SCORE.INTER.norm>
-0.528739

>  <SCORE.INTRA>
0.163911

>  <SCORE.INTRA.DIHEDRAL>
0.776424

>  <SCORE.INTRA.DIHEDRAL.0>
16.2083

>  <SCORE.INTRA.POLAR>
0

>  <SCORE.INTRA.POLAR.0>
0

>  <SCORE.INTRA.REPUL>
0

>  <SCORE.INTRA.REPUL.0>
0

>  <SCORE.INTRA.SOLV>
-0.686061

>  <SCORE.INTRA.SOLV.lig_0>
-89.8095

>  <SCORE.INTRA.VDW>
0.118729

>  <SCORE.INTRA.VDW.0>
-3.19502

>  <SCORE.INTRA.norm>
0.00443002

>  <SCORE.RESTR>
0.233733

>  <SCORE.RESTR.CAVITY>
0.233733

>  <SCORE.RESTR.norm>
0.00631712

>  <SCORE.SYSTEM>
0

>  <SCORE.SYSTEM.CONST>
0

>  <SCORE.SYSTEM.DIHEDRAL>
0

>  <SCORE.SYSTEM.SOLV>
0

>  <SCORE.SYSTEM.norm>
0

>  <SCORE.heavy>
37

>  <SCORE.norm>
-0.517992

>  <RMSD>
0.745

$$$$
2oe5_lig
 OpenBabel11021811463D
libRbt.so/2013.1/901 2013/11/27
 37 40  0  0  0  0  0  0  0  0999 V2000
   20.7897    1.5917   53.6154 C   0  0  1  0  0  0  0  0  0  0  0  0
   19.6503    2.0672   52.6863 C   0  0  1  0  0  0  0  0  0  0  0  0
   18.9163    0.8134   52.0810 C   0  0  0  0  0  0  0  0  0  0  0  0
   20.0077    0.0317   51.3160 C   0  0  1  0  0  0  0  0  0  0  0  0
   21.1756   -0.4461   52.2877 C   0  0  1  0  0  0  0  0  0  0  0  0
   22.2804   -1.2408   51.5393 C   0  0  1  0  0  0  0  0  0  0  0  0
   21.5885   -2.4737   50.8914 C   0  0  1  0  0  0  0  0  0  0  0  0
   20.4139   -1.9594   49.9755 C   0  0  2  0  0  0  0  0  0  0  0  0
   23.7871   -3.8928   50.7679 C   0  0  0  0  0  0  0  0  0  0  0  0
   18.6807    2.8840   53.4519 N   0  0  0  0  0  0  0  0  0  0  0  0
   22.5886   -3.2803   50.0953 N   0  0  0  0  0  0  0  0  0  0  0  0
   20.2919    0.8450   54.7377 O   0  0  0  0  0  0  0  0  0  0  0  0
   21.7620    0.7415   52.9122 O   0  0  0  0  0  0  0  0  0  0  0  0
   19.4220   -1.1534   50.7133 O   0  0  0  0  0  0  0  0  0  0  0  0
   22.8550   -0.3760   50.5543 O   0  0  0  0  0  0  0  0  0  0  0  0
   19.7197   -3.0576   49.4175 O   0  0  0  0  0  0  0  0  0  0  0  0
   18.9422   -2.6340   48.3134 C   0  0  2  0  0  0  0  0  0  0  0  0
   17.8649   -3.6508   47.9378 C   0  0  1  0  0  0  0  0  0  0  0  0
   18.4967   -4.9861   47.4574 C   0  0  2  0  0  0  0  0  0  0  0  0
   19.4303   -4.6573   46.2548 C   0  0  1  0  0  0  0  0  0  0  0  0
   20.5219   -3.6506   46.7461 C   0  0  1  0  0  0  0  0  0  0  0  0
   21.4595   -3.2181   45.6410 C   0  0  0  0  0  0  0  0  0  0  0  0
   20.0483   -5.9513   45.7778 N   0  0  0  0  0  0  0  0  0  0  0  0
   19.8396   -2.4249   47.1782 O   0  0  0  0  0  0  0  0  0  0  0  0
   17.0434   -3.8622   49.1032 O   0  0  0  0  0  0  0  0  0  0  0  0
   17.4329   -5.8508   47.0195 O   0  0  0  0  0  0  0  0  0  0  0  0
   20.7989   -2.5165   44.6439 O   0  0  0  0  0  0  0  0  0  0  0  0
   21.1588    0.8469   55.8721 C   0  0  1  0  0  0  0  0  0  0  0  0
   20.6371    1.8729   56.9407 C   0  0  1  0  0  0  0  0  0  0  0  0
   21.5984    1.8472   58.1832 C   0  0  2  0  0  0  0  0  0  0  0  0
   21.6057    0.4363   58.7907 C   0  0  1  0  0  0  0  0  0  0  0  0
   22.1434   -0.5908   57.7211 C   0  0  0  0  0  0  0  0  0  0  0  0
   21.1874   -0.5557   56.4644 C   0  0  2  0  0  0  0  0  0  0  0  0
   22.4833    0.4307   59.9495 N   0  0  0  0  0  0  0  0  0  0  0  0
   21.6733   -1.4964   55.4210 N   0  0  0  0  0  0  0  0  0  0  0  0
   20.6279    3.2124   56.3687 O   0  0  0  0  0  0  0  0  0  0  0  0
   21.1256    2.7491   59.1482 O   0  0  0  0  0  0  0  0  0  0  0  0
  1  2  1  0  0  0  0
  1 12  1  1  0  0  0
  1 13  1  0  0  0  0
  2  3  1  0  0  0  0
  2 10  1  1  0  0  0
  4  3  1  1  0  0  0
  4  5  1  0  0  0  0
  4 14  1  0  0  0  0
  5  6  1  0  0  0  0
  5 13  1  6  0  0  0
  6  7  1  0  0  0  0
  6 15  1  6  0  0  0
  7  8  1  0  0  0  0
  7 11  1  6  0  0  0
  8 14  1  0  0  0  0
  8 16  1  1  0  0  0
  9 11  1  0  0  0  0
 17 16  1  1  0  0  0
 17 18  1  0  0  0  0
 17 24  1  0  0  0  0
 18 19  1  0  0  0  0
 18 25  1  1  0  0  0
 19 20  1  0  0  0  0
 19 26  1  6  0  0  0
 20 21  1  0  0  0  0
 20 23  1  1  0  0  0
 21 22  1  6  0  0  0
 21 24  1  0  0  0  0
 22 27  1  0  0  0  0
 28 12  1  6  0  0  0
 28 29  1  0  0  0  0
 28 33  1  0  0  0  0
 29 30  1  0  0  0  0
 29 36  1  6  0  0  0
 30 31  1  0  0  0  0
 30 37  1  1  0  0  0
 31 32  1  0  0  0  0
 31 34  1  1  0  0  0
 32 33  1  0  0  0  0
 33 35  1  6  0  0  0
M  END
>  <CHROM.1>
-155.83335212,60.69851697,-162.82015354,-162.65432926,63.76723639,101.28001247
20.53260936,-1.18232752,51.79549674,1.38541355,-0.72552144,0.96522872

>  <Name>
2oe5_lig

>  <RI>
0

>  <Rbt.Current_Directory>
/home/itssahil/PROJECTS/Mol_Feturizer/New_Systems/rnas/2oe5

>  <Rbt.Executable>
rbdock ($Id: //depot/dev/client3/rdock/2013.1/src/exe/rbdock.cxx#4 $)

>  <Rbt.Library>
libRbt.so (2013.1, Build901 2013/11/27)

>  <Rbt.Parameter_File>
/export/apps/rDock/src/rDock_2013.1_src/data/scripts/dock_solv.prm

>  <Rbt.Receptor>
prm/pocket_docking_2.prm

>  <SCORE>
-16.9158

>  <SCORE.INTER>
-14.2886

>  <SCORE.INTER.CONST>
1

>  <SCORE.INTER.POLAR>
-1.74713

>  <SCORE.INTER.ROT>
6

>  <SCORE.INTER.SOLV>
15.898

>  <SCORE.INTER.VDW>
-16.6013

>  <SCORE.INTER.norm>
-0.386177

>  <SCORE.INTRA>
-2.66762

>  <SCORE.INTRA.DIHEDRAL>
-5.24047

>  <SCORE.INTRA.DIHEDRAL.0>
16.2083

>  <SCORE.INTRA.POLAR>
0

>  <SCORE.INTRA.POLAR.0>
0

>  <SCORE.INTRA.REPUL>
0

>  <SCORE.INTRA.REPUL.0>
0

>  <SCORE.INTRA.SOLV>
-0.0445748

>  <SCORE.INTRA.SOLV.lig_0>
-89.8095

>  <SCORE.INTRA.VDW>
-0.0250955

>  <SCORE.INTRA.VDW.0>
-3.19502

>  <SCORE.INTRA.norm>
-0.0720978

>  <SCORE.RESTR>
0.0403269

>  <SCORE.RESTR.CAVITY>
0.0403269

>  <SCORE.RESTR.norm>
0.00108992

>  <SCORE.SYSTEM>
0

>  <SCORE.SYSTEM.CONST>
0

>  <SCORE.SYSTEM.DIHEDRAL>
0

>  <SCORE.SYSTEM.SOLV>
0

>  <SCORE.SYSTEM.norm>
0

>  <SCORE.heavy>
37

>  <SCORE.norm>
-0.457185

>  <RMSD>
0.748

$$$$
2oe5_lig
 OpenBabel11021811463D
libRbt.so/2013.1/901 2013/11/27
 37 40  0  0  0  0  0  0  0  0999 V2000
   20.8600    1.4529   53.5843 C   0  0  1  0  0  0  0  0  0  0  0  0
   19.7156    1.9208   52.6575 C   0  0  1  0  0  0  0  0  0  0  0  0
   19.0874    0.6709   51.9363 C   0  0  0  0  0  0  0  0  0  0  0  0
   20.2508    0.0261   51.1500 C   0  0  1  0  0  0  0  0  0  0  0  0
   21.4226   -0.4454   52.1199 C   0  0  1  0  0  0  0  0  0  0  0  0
   22.5999   -1.1035   51.3497 C   0  0  1  0  0  0  0  0  0  0  0  0
   22.0133   -2.3265   50.5889 C   0  0  1  0  0  0  0  0  0  0  0  0
   20.8307   -1.8234   49.6771 C   0  0  2  0  0  0  0  0  0  0  0  0
   23.7503   -4.2591   50.2562 C   0  0  0  0  0  0  0  0  0  0  0  0
   18.6712    2.6086   53.4509 N   0  0  0  0  0  0  0  0  0  0  0  0
   23.0883   -2.9997   49.7668 N   0  0  0  0  0  0  0  0  0  0  0  0
   20.3855    0.5897   54.6306 O   0  0  0  0  0  0  0  0  0  0  0  0
   21.9078    0.7272   52.8507 O   0  0  0  0  0  0  0  0  0  0  0  0
   19.7655   -1.1456   50.4413 O   0  0  0  0  0  0  0  0  0  0  0  0
   23.1389   -0.1283   50.4516 O   0  0  0  0  0  0  0  0  0  0  0  0
   20.2300   -2.9194   49.0160 O   0  0  0  0  0  0  0  0  0  0  0  0
   19.3414   -2.4590   48.0153 C   0  0  2  0  0  0  0  0  0  0  0  0
   18.1009   -3.3426   47.8892 C   0  0  1  0  0  0  0  0  0  0  0  0
   18.4777   -4.7753   47.4216 C   0  0  2  0  0  0  0  0  0  0  0  0
   19.2368   -4.6424   46.0681 C   0  0  1  0  0  0  0  0  0  0  0  0
   20.5088   -3.7641   46.3067 C   0  0  1  0  0  0  0  0  0  0  0  0
   21.3003   -3.5236   45.0406 C   0  0  0  0  0  0  0  0  0  0  0  0
   19.6056   -6.0321   45.6027 N   0  0  0  0  0  0  0  0  0  0  0  0
   20.0614   -2.4360   46.7429 O   0  0  0  0  0  0  0  0  0  0  0  0
   17.4599   -3.3764   49.1798 O   0  0  0  0  0  0  0  0  0  0  0  0
   17.2590   -5.5137   47.2204 O   0  0  0  0  0  0  0  0  0  0  0  0
   20.6866   -2.5963   44.2122 O   0  0  0  0  0  0  0  0  0  0  0  0
   21.2009    0.5889   55.8027 C   0  0  1  0  0  0  0  0  0  0  0  0
   20.5661    1.5220   56.8950 C   0  0  1  0  0  0  0  0  0  0  0  0
   21.4727    1.4942   58.1778 C   0  0  2  0  0  0  0  0  0  0  0  0
   21.5486    0.0570   58.7151 C   0  0  1  0  0  0  0  0  0  0  0  0
   22.1995   -0.8760   57.6225 C   0  0  0  0  0  0  0  0  0  0  0  0
   21.2982   -0.8377   56.3261 C   0  0  2  0  0  0  0  0  0  0  0  0
   22.3741    0.0482   59.9116 N   0  0  0  0  0  0  0  0  0  0  0  0
   21.8906   -1.6895   55.2614 N   0  0  0  0  0  0  0  0  0  0  0  0
   20.4915    2.8859   56.3895 O   0  0  0  0  0  0  0  0  0  0  0  0
   20.8993    2.3121   59.1630 O   0  0  0  0  0  0  0  0  0  0  0  0
  1  2  1  0  0  0  0
  1 12  1  1  0  0  0
  1 13  1  0  0  0  0
  2  3  1  0  0  0  0
  2 10  1  1  0  0  0
  4  3  1  1  0  0  0
  4  5  1  0  0  0  0
  4 14  1  0  0  0  0
  5  6  1  0  0  0  0
  5 13  1  6  0  0  0
  6  7  1  0  0  0  0
  6 15  1  6  0  0  0
  7  8  1  0  0  0  0
  7 11  1  6  0  0  0
  8 14  1  0  0  0  0
  8 16  1  1  0  0  0
  9 11  1  0  0  0  0
 17 16  1  1  0  0  0
 17 18  1  0  0  0  0
 17 24  1  0  0  0  0
 18 19  1  0  0  0  0
 18 25  1  1  0  0  0
 19 20  1  0  0  0  0
 19 26  1  6  0  0  0
 20 21  1  0  0  0  0
 20 23  1  1  0  0  0
 21 22  1  6  0  0  0
 21 24  1  0  0  0  0
 22 27  1  0  0  0  0
 28 12  1  6  0  0  0
 28 29  1  0  0  0  0
 28 33  1  0  0  0  0
 29 30  1  0  0  0  0
 29 36  1  6  0  0  0
 30 31  1  0  0  0  0
 30 37  1  1  0  0  0
 31 32  1  0  0  0  0
 31 34  1  1  0  0  0
 32 33  1  0  0  0  0
 33 35  1  6  0  0  0
M  END
>  <CHROM.1>
-154.28961157,101.14851454,-169.14585050,-143.78765253,75.03531501,99.65215971
20.63123345,-1.24928094,51.63105031,1.41504894,-0.63710986,1.03822221

>  <Name>
2oe5_lig

>  <RI>
0

>  <Rbt.Current_Directory>
/home/itssahil/PROJECTS/Mol_Feturizer/New_Systems/rnas/2oe5

>  <Rbt.Executable>
rbdock ($Id: //depot/dev/client3/rdock/2013.1/src/exe/rbdock.cxx#4 $)

>  <Rbt.Library>
libRbt.so (2013.1, Build901 2013/11/27)

>  <Rbt.Parameter_File>
/export/apps/rDock/src/rDock_2013.1_src/data/scripts/dock_solv.prm

>  <Rbt.Receptor>
prm/pocket_docking_2.prm

>  <SCORE>
-19.1251

>  <SCORE.INTER>
-18.3294

>  <SCORE.INTER.CONST>
1

>  <SCORE.INTER.POLAR>
-2.25994

>  <SCORE.INTER.ROT>
6

>  <SCORE.INTER.SOLV>
17.2523

>  <SCORE.INTER.VDW>
-18.0373

>  <SCORE.INTER.norm>
-0.49539

>  <SCORE.INTRA>
-1.05968

>  <SCORE.INTRA.DIHEDRAL>
-1.01113

>  <SCORE.INTRA.DIHEDRAL.0>
16.2083

>  <SCORE.INTRA.POLAR>
0

>  <SCORE.INTRA.POLAR.0>
0

>  <SCORE.INTRA.REPUL>
0

>  <SCORE.INTRA.REPUL.0>
0

>  <SCORE.INTRA.SOLV>
-0.457574

>  <SCORE.INTRA.SOLV.lig_0>
-89.8095

>  <SCORE.INTRA.VDW>
-0.325333

>  <SCORE.INTRA.VDW.0>
-3.19502

>  <SCORE.INTRA.norm>
-0.0286401

>  <SCORE.RESTR>
0.264013

>  <SCORE.RESTR.CAVITY>
0.264013

>  <SCORE.RESTR.norm>
0.00713549

>  <SCORE.SYSTEM>
0

>  <SCORE.SYSTEM.CONST>
0

>  <SCORE.SYSTEM.DIHEDRAL>
0

>  <SCORE.SYSTEM.SOLV>
0

>  <SCORE.SYSTEM.norm>
0

>  <SCORE.heavy>
37

>  <SCORE.norm>
-0.516895

>  <RMSD>
0.748

$$$$
2oe5_lig
 OpenBabel11021811463D
libRbt.so/2013.1/901 2013/11/27
 37 40  0  0  0  0  0  0  0  0999 V2000
   20.6408    1.4577   53.7991 C   0  0  1  0  0  0  0  0  0  0  0  0
   19.6002    1.9716   52.7791 C   0  0  1  0  0  0  0  0  0  0  0  0
   18.9813    0.7476   52.0071 C   0  0  0  0  0  0  0  0  0  0  0  0
   20.1778    0.0503   51.3218 C   0  0  1  0  0  0  0  0  0  0  0  0
   21.2420   -0.4682   52.3871 C   0  0  1  0  0  0  0  0  0  0  0  0
   22.4503   -1.1793   51.7189 C   0  0  1  0  0  0  0  0  0  0  0  0
   21.8774   -2.3784   50.9110 C   0  0  1  0  0  0  0  0  0  0  0  0
   20.7989   -1.8276   49.9027 C   0  0  2  0  0  0  0  0  0  0  0  0
   22.8714   -4.5679   49.8713 C   0  0  0  0  0  0  0  0  0  0  0  0
   18.5234    2.7068   53.4816 N   0  0  0  0  0  0  0  0  0  0  0  0
   22.9876   -3.1004   50.1825 N   0  0  0  0  0  0  0  0  0  0  0  0
   20.0426    0.6195   54.8014 O   0  0  0  0  0  0  0  0  0  0  0  0
   21.7143    0.6848   53.1565 O   0  0  0  0  0  0  0  0  0  0  0  0
   19.7036   -1.1017   50.5743 O   0  0  0  0  0  0  0  0  0  0  0  0
   23.1051   -0.2316   50.8698 O   0  0  0  0  0  0  0  0  0  0  0  0
   20.2091   -2.8989   49.1929 O   0  0  0  0  0  0  0  0  0  0  0  0
   19.3713   -2.4021   48.1662 C   0  0  2  0  0  0  0  0  0  0  0  0
   18.1631   -3.3037   47.9155 C   0  0  1  0  0  0  0  0  0  0  0  0
   18.6030   -4.6993   47.3941 C   0  0  2  0  0  0  0  0  0  0  0  0
   19.4388   -4.4740   46.0993 C   0  0  1  0  0  0  0  0  0  0  0  0
   20.6718   -3.5835   46.4637 C   0  0  1  0  0  0  0  0  0  0  0  0
   21.5320   -3.2551   45.2639 C   0  0  0  0  0  0  0  0  0  0  0  0
   19.8695   -5.8271   45.5820 N   0  0  0  0  0  0  0  0  0  0  0  0
   20.1659   -2.2919   46.9437 O   0  0  0  0  0  0  0  0  0  0  0  0
   17.4465   -3.4238   49.1604 O   0  0  0  0  0  0  0  0  0  0  0  0
   17.4174   -5.4512   47.0779 O   0  0  0  0  0  0  0  0  0  0  0  0
   22.1216   -4.3869   44.7216 O   0  0  0  0  0  0  0  0  0  0  0  0
   20.6973    0.6662   56.0694 C   0  0  1  0  0  0  0  0  0  0  0  0
   19.7759    1.3839   57.1196 C   0  0  1  0  0  0  0  0  0  0  0  0
   20.5113    1.4110   58.5077 C   0  0  2  0  0  0  0  0  0  0  0  0
   20.7831   -0.0295   58.9668 C   0  0  1  0  0  0  0  0  0  0  0  0
   21.7201   -0.7444   57.9184 C   0  0  0  0  0  0  0  0  0  0  0  0
   20.9897   -0.7592   56.5182 C   0  0  2  0  0  0  0  0  0  0  0  0
   21.4462    0.0090   60.2598 N   0  0  0  0  0  0  0  0  0  0  0  0
   21.8514   -1.4067   55.4944 N   0  0  0  0  0  0  0  0  0  0  0  0
   19.5150    2.7503   56.6879 O   0  0  0  0  0  0  0  0  0  0  0  0
   19.6838    2.0350   59.4534 O   0  0  0  0  0  0  0  0  0  0  0  0
  1  2  1  0  0  0  0
  1 12  1  1  0  0  0
  1 13  1  0  0  0  0
  2  3  1  0  0  0  0
  2 10  1  1  0  0  0
  4  3  1  1  0  0  0
  4  5  1  0  0  0  0
  4 14  1  0  0  0  0
  5  6  1  0  0  0  0
  5 13  1  6  0  0  0
  6  7  1  0  0  0  0
  6 15  1  6  0  0  0
  7  8  1  0  0  0  0
  7 11  1  6  0  0  0
  8 14  1  0  0  0  0
  8 16  1  1  0  0  0
  9 11  1  0  0  0  0
 17 16  1  1  0  0  0
 17 18  1  0  0  0  0
 17 24  1  0  0  0  0
 18 19  1  0  0  0  0
 18 25  1  1  0  0  0
 19 20  1  0  0  0  0
 19 26  1  6  0  0  0
 20 21  1  0  0  0  0
 20 23  1  1  0  0  0
 21 22  1  6  0  0  0
 21 24  1  0  0  0  0
 22 27  1  0  0  0  0
 28 12  1  6  0  0  0
 28 29  1  0  0  0  0
 28 33  1  0  0  0  0
 29 30  1  0  0  0  0
 29 36  1  6  0  0  0
 30 31  1  0  0  0  0
 30 37  1  1  0  0  0
 31 32  1  0  0  0  0
 31 34  1  1  0  0  0
 32 33  1  0  0  0  0
 33 35  1  6  0  0  0
M  END
>  <CHROM.1>
-149.77094872,151.73049385,-172.31285451,-146.98010410,-64.65887731,110.81337916
20.44508816,-1.29010211,51.81593360,1.52782330,-0.51729996,1.10596312

>  <Name>
2oe5_lig

>  <RI>
0

>  <Rbt.Current_Directory>
/home/itssahil/PROJECTS/Mol_Feturizer/New_Systems/rnas/2oe5

>  <Rbt.Executable>
rbdock ($Id: //depot/dev/client3/rdock/2013.1/src/exe/rbdock.cxx#4 $)

>  <Rbt.Library>
libRbt.so (2013.1, Build901 2013/11/27)

>  <Rbt.Parameter_File>
/export/apps/rDock/src/rDock_2013.1_src/data/scripts/dock_solv.prm

>  <Rbt.Receptor>
prm/pocket_docking_2.prm

>  <SCORE>
-15.8848

>  <SCORE.INTER>
-15.2139

>  <SCORE.INTER.CONST>
1

>  <SCORE.INTER.POLAR>
-1.63771

>  <SCORE.INTER.ROT>
6

>  <SCORE.INTER.SOLV>
16.6529

>  <SCORE.INTER.VDW>
-17.8345

>  <SCORE.INTER.norm>
-0.411186

>  <SCORE.INTRA>
-0.677155

>  <SCORE.INTRA.DIHEDRAL>
-0.650223

>  <SCORE.INTRA.DIHEDRAL.0>
16.2083

>  <SCORE.INTRA.POLAR>
0

>  <SCORE.INTRA.POLAR.0>
0

>  <SCORE.INTRA.REPUL>
0

>  <SCORE.INTRA.REPUL.0>
0

>  <SCORE.INTRA.SOLV>
0.582028

>  <SCORE.INTRA.SOLV.lig_0>
-89.8095

>  <SCORE.INTRA.VDW>
-0.643057

>  <SCORE.INTRA.VDW.0>
-3.19502

>  <SCORE.INTRA.norm>
-0.0183015

>  <SCORE.RESTR>
0.0062642

>  <SCORE.RESTR.CAVITY>
0.0062642

>  <SCORE.RESTR.norm>
0.000169303

>  <SCORE.SYSTEM>
0

>  <SCORE.SYSTEM.CONST>
0

>  <SCORE.SYSTEM.DIHEDRAL>
0

>  <SCORE.SYSTEM.SOLV>
0

>  <SCORE.SYSTEM.norm>
0

>  <SCORE.heavy>
37

>  <SCORE.norm>
-0.429318

>  <RMSD>
0.751

$$$$
2oe5_lig
 OpenBabel11021811463D
libRbt.so/2013.1/901 2013/11/27
 37 40  0  0  0  0  0  0  0  0999 V2000
   20.7592    1.5983   53.6033 C   0  0  1  0  0  0  0  0  0  0  0  0
   19.6279    2.0653   52.6602 C   0  0  1  0  0  0  0  0  0  0  0  0
   18.9166    0.8062   52.0390 C   0  0  0  0  0  0  0  0  0  0  0  0
   20.0274    0.0401   51.2862 C   0  0  1  0  0  0  0  0  0  0  0  0
   21.1866   -0.4290   52.2723 C   0  0  1  0  0  0  0  0  0  0  0  0
   22.3107   -1.2081   51.5363 C   0  0  1  0  0  0  0  0  0  0  0  0
   21.6419   -2.4457   50.8732 C   0  0  1  0  0  0  0  0  0  0  0  0
   20.4747   -1.9403   49.9429 C   0  0  2  0  0  0  0  0  0  0  0  0
   23.2692   -4.4879   50.6638 C   0  0  0  0  0  0  0  0  0  0  0  0
   18.6385    2.8678   53.4154 N   0  0  0  0  0  0  0  0  0  0  0  0
   22.6621   -3.2374   50.0879 N   0  0  0  0  0  0  0  0  0  0  0  0
   20.2539    0.8410   54.7151 O   0  0  0  0  0  0  0  0  0  0  0  0
   21.7508    0.7621   52.9104 O   0  0  0  0  0  0  0  0  0  0  0  0
   19.4635   -1.1486   50.6700 O   0  0  0  0  0  0  0  0  0  0  0  0
   22.8895   -0.3325   50.5634 O   0  0  0  0  0  0  0  0  0  0  0  0
   19.8008   -3.0435   49.3703 O   0  0  0  0  0  0  0  0  0  0  0  0
   19.0183   -2.6203   48.2696 C   0  0  2  0  0  0  0  0  0  0  0  0
   17.9087   -3.6147   47.9295 C   0  0  1  0  0  0  0  0  0  0  0  0
   18.4976   -4.9754   47.4660 C   0  0  2  0  0  0  0  0  0  0  0  0
   19.4213   -4.6946   46.2438 C   0  0  1  0  0  0  0  0  0  0  0  0
   20.5465   -3.7085   46.6995 C   0  0  1  0  0  0  0  0  0  0  0  0
   21.4785   -3.3224   45.5726 C   0  0  0  0  0  0  0  0  0  0  0  0
   19.9974   -6.0136   45.7830 N   0  0  0  0  0  0  0  0  0  0  0  0
   19.9037   -2.4569   47.1176 O   0  0  0  0  0  0  0  0  0  0  0  0
   17.0996   -3.7817   49.1106 O   0  0  0  0  0  0  0  0  0  0  0  0
   17.4047   -5.8193   47.0605 O   0  0  0  0  0  0  0  0  0  0  0  0
   20.8525   -2.5174   44.6331 O   0  0  0  0  0  0  0  0  0  0  0  0
   21.1209    0.8181   55.8493 C   0  0  1  0  0  0  0  0  0  0  0  0
   20.5718    1.7831   56.9603 C   0  0  1  0  0  0  0  0  0  0  0  0
   21.5339    1.7306   58.2012 C   0  0  2  0  0  0  0  0  0  0  0  0
   21.5798    0.2958   58.7481 C   0  0  1  0  0  0  0  0  0  0  0  0
   22.1449   -0.6697   57.6360 C   0  0  0  0  0  0  0  0  0  0  0  0
   21.1879   -0.6071   56.3812 C   0  0  2  0  0  0  0  0  0  0  0  0
   22.4577    0.2647   59.9062 N   0  0  0  0  0  0  0  0  0  0  0  0
   21.6989   -1.4889   55.2990 N   0  0  0  0  0  0  0  0  0  0  0  0
   20.5259    3.1450   56.4458 O   0  0  0  0  0  0  0  0  0  0  0  0
   21.0370    2.5773   59.2035 O   0  0  0  0  0  0  0  0  0  0  0  0
  1  2  1  0  0  0  0
  1 12  1  1  0  0  0
  1 13  1  0  0  0  0
  2  3  1  0  0  0  0
  2 10  1  1  0  0  0
  4  3  1  1  0  0  0
  4  5  1  0  0  0  0
  4 14  1  0  0  0  0
  5  6  1  0  0  0  0
  5 13  1  6  0  0  0
  6  7  1  0  0  0  0
  6 15  1  6  0  0  0
  7  8  1  0  0  0  0
  7 11  1  6  0  0  0
  8 14  1  0  0  0  0
  8 16  1  1  0  0  0
  9 11  1  0  0  0  0
 17 16  1  1  0  0  0
 17 18  1  0  0  0  0
 17 24  1  0  0  0  0
 18 19  1  0  0  0  0
 18 25  1  1  0  0  0
 19 20  1  0  0  0  0
 19 26  1  6  0  0  0
 20 21  1  0  0  0  0
 20 23  1  1  0  0  0
 21 22  1  6  0  0  0
 21 24  1  0  0  0  0
 22 27  1  0  0  0  0
 28 12  1  6  0  0  0
 28 29  1  0  0  0  0
 28 33  1  0  0  0  0
 29 30  1  0  0  0  0
 29 36  1  6  0  0  0
 30 31  1  0  0  0  0
 30 37  1  1  0  0  0
 31 32  1  0  0  0  0
 31 34  1  1  0  0  0
 32 33  1  0  0  0  0
 33 35  1  6  0  0  0
M  END
>  <CHROM.1>
-157.40404678,100.53552096,-163.71178080,-159.41254217,69.35497906,103.98151957
20.52134698,-1.22086955,51.77326916,1.37582552,-0.82966370,0.94776184

>  <Name>
2oe5_lig

>  <RI>
0

>  <Rbt.Current_Directory>
/home/itssahil/PROJECTS/Mol_Feturizer/New_Systems/rnas/2oe5

>  <Rbt.Executable>
rbdock ($Id: //depot/dev/client3/rdock/2013.1/src/exe/rbdock.cxx#4 $)

>  <Rbt.Library>
libRbt.so (2013.1, Build901 2013/11/27)

>  <Rbt.Parameter_File>
/export/apps/rDock/src/rDock_2013.1_src/data/scripts/dock_solv.prm

>  <Rbt.Receptor>
prm/pocket_docking_2.prm

>  <SCORE>
-16.5884

>  <SCORE.INTER>
-14.2945

>  <SCORE.INTER.CONST>
1

>  <SCORE.INTER.POLAR>
-1.86773

>  <SCORE.INTER.ROT>
6

>  <SCORE.INTER.SOLV>
16.4912

>  <SCORE.INTER.VDW>
-16.401

>  <SCORE.INTER.norm>
-0.386338

>  <SCORE.INTRA>
-2.29835

>  <SCORE.INTRA.DIHEDRAL>
-3.56455

>  <SCORE.INTRA.DIHEDRAL.0>
16.2083

>  <SCORE.INTRA.POLAR>
0

>  <SCORE.INTRA.POLAR.0>
0

>  <SCORE.INTRA.REPUL>
0

>  <SCORE.INTRA.REPUL.0>
0

>  <SCORE.INTRA.SOLV>
-0.0627995

>  <SCORE.INTRA.SOLV.lig_0>
-89.8095

>  <SCORE.INTRA.VDW>
-0.484673

>  <SCORE.INTRA.VDW.0>
-3.19502

>  <SCORE.INTRA.norm>
-0.0621175

>  <SCORE.RESTR>
0.00449819

>  <SCORE.RESTR.CAVITY>
0.00449819

>  <SCORE.RESTR.norm>
0.000121573

>  <SCORE.SYSTEM>
0

>  <SCORE.SYSTEM.CONST>
0

>  <SCORE.SYSTEM.DIHEDRAL>
0

>  <SCORE.SYSTEM.SOLV>
0

>  <SCORE.SYSTEM.norm>
0

>  <SCORE.heavy>
37

>  <SCORE.norm>
-0.448334

>  <RMSD>
0.752

$$$$
2oe5_lig
 OpenBabel11021811463D
libRbt.so/2013.1/901 2013/11/27
 37 40  0  0  0  0  0  0  0  0999 V2000
   20.6681    1.1825   53.6935 C   0  0  1  0  0  0  0  0  0  0  0  0
   19.4834    1.5905   52.7894 C   0  0  1  0  0  0  0  0  0  0  0  0
   19.0142    0.3424   51.9532 C   0  0  0  0  0  0  0  0  0  0  0  0
   20.2523   -0.0899   51.1361 C   0  0  1  0  0  0  0  0  0  0  0  0
   21.4644   -0.5020   52.0834 C   0  0  1  0  0  0  0  0  0  0  0  0
   22.7176   -0.9473   51.2813 C   0  0  1  0  0  0  0  0  0  0  0  0
   22.2869   -2.1605   50.4088 C   0  0  1  0  0  0  0  0  0  0  0  0
   21.0599   -1.7234   49.5219 C   0  0  2  0  0  0  0  0  0  0  0  0
   24.5555   -3.4445   50.1480 C   0  0  0  0  0  0  0  0  0  0  0  0
   18.3583    2.0789   53.6195 N   0  0  0  0  0  0  0  0  0  0  0  0
   23.4409   -2.6283   49.5519 N   0  0  0  0  0  0  0  0  0  0  0  0
   20.2918    0.1820   54.6538 O   0  0  0  0  0  0  0  0  0  0  0  0
   21.8006    0.6519   52.9198 O   0  0  0  0  0  0  0  0  0  0  0  0
   19.9157   -1.2449   50.3216 O   0  0  0  0  0  0  0  0  0  0  0  0
   23.1436    0.1588   50.4793 O   0  0  0  0  0  0  0  0  0  0  0  0
   20.5994   -2.8213   48.7592 O   0  0  0  0  0  0  0  0  0  0  0  0
   19.5563   -2.4122   47.8946 C   0  0  2  0  0  0  0  0  0  0  0  0
   18.2740   -3.2149   48.1114 C   0  0  1  0  0  0  0  0  0  0  0  0
   18.4835   -4.7131   47.7586 C   0  0  2  0  0  0  0  0  0  0  0  0
   18.9704   -4.7833   46.2808 C   0  0  1  0  0  0  0  0  0  0  0  0
   20.3051   -3.9758   46.1684 C   0  0  1  0  0  0  0  0  0  0  0  0
   20.8460   -3.9320   44.7566 C   0  0  0  0  0  0  0  0  0  0  0  0
   19.1746   -6.2382   45.9265 N   0  0  0  0  0  0  0  0  0  0  0  0
   20.0153   -2.5796   46.5165 O   0  0  0  0  0  0  0  0  0  0  0  0
   17.8953   -3.0616   49.4937 O   0  0  0  0  0  0  0  0  0  0  0  0
   17.2150   -5.3816   47.8805 O   0  0  0  0  0  0  0  0  0  0  0  0
   22.0666   -3.2778   44.6878 O   0  0  0  0  0  0  0  0  0  0  0  0
   20.8868    0.3533   55.9404 C   0  0  1  0  0  0  0  0  0  0  0  0
   19.9618    1.2477   56.8413 C   0  0  1  0  0  0  0  0  0  0  0  0
   20.6303    1.4105   58.2537 C   0  0  2  0  0  0  0  0  0  0  0  0
   20.7914    0.0272   58.9020 C   0  0  1  0  0  0  0  0  0  0  0  0
   21.7320   -0.8650   58.0034 C   0  0  0  0  0  0  0  0  0  0  0  0
   21.0698   -1.0174   56.5777 C   0  0  2  0  0  0  0  0  0  0  0  0
   21.3931    0.1932   60.2148 N   0  0  0  0  0  0  0  0  0  0  0  0
   21.9383   -1.8356   55.6910 N   0  0  0  0  0  0  0  0  0  0  0  0
   19.8056    2.5605   56.2300 O   0  0  0  0  0  0  0  0  0  0  0  0
   19.7982    2.1936   59.0678 O   0  0  0  0  0  0  0  0  0  0  0  0
  1  2  1  0  0  0  0
  1 12  1  1  0  0  0
  1 13  1  0  0  0  0
  2  3  1  0  0  0  0
  2 10  1  1  0  0  0
  4  3  1  1  0  0  0
  4  5  1  0  0  0  0
  4 14  1  0  0  0  0
  5  6  1  0  0  0  0
  5 13  1  6  0  0  0
  6  7  1  0  0  0  0
  6 15  1  6  0  0  0
  7  8  1  0  0  0  0
  7 11  1  6  0  0  0
  8 14  1  0  0  0  0
  8 16  1  1  0  0  0
  9 11  1  0  0  0  0
 17 16  1  1  0  0  0
 17 18  1  0  0  0  0
 17 24  1  0  0  0  0
 18 19  1  0  0  0  0
 18 25  1  1  0  0  0
 19 20  1  0  0  0  0
 19 26  1  6  0  0  0
 20 21  1  0  0  0  0
 20 23  1  1  0  0  0
 21 22  1  6  0  0  0
 21 24  1  0  0  0  0
 22 27  1  0  0  0  0
 28 12  1  6  0  0  0
 28 29  1  0  0  0  0
 28 33  1  0  0  0  0
 29 30  1  0  0  0  0
 29 36  1  6  0  0  0
 30 31  1  0  0  0  0
 30 37  1  1  0  0  0
 31 32  1  0  0  0  0
 31 34  1  1  0  0  0
 32 33  1  0  0  0  0
 33 35  1  6  0  0  0
M  END
>  <CHROM.1>
-141.47116828,77.01094441,-176.05937412,-123.05019784,-176.59368374,90.13039537
20.53619115,-1.31773394,51.70199843,-1.51786084,-0.01729064,-1.99475180

>  <Name>
2oe5_lig

>  <RI>
0

>  <Rbt.Current_Directory>
/home/itssahil/PROJECTS/Mol_Feturizer/New_Systems/rnas/2oe5

>  <Rbt.Executable>
rbdock ($Id: //depot/dev/client3/rdock/2013.1/src/exe/rbdock.cxx#4 $)

>  <Rbt.Library>
libRbt.so (2013.1, Build901 2013/11/27)

>  <Rbt.Parameter_File>
/export/apps/rDock/src/rDock_2013.1_src/data/scripts/dock_solv.prm

>  <Rbt.Receptor>
prm/pocket_docking_2.prm

>  <SCORE>
-16.0884

>  <SCORE.INTER>
-15.6807

>  <SCORE.INTER.CONST>
1

>  <SCORE.INTER.POLAR>
-1.31875

>  <SCORE.INTER.ROT>
6

>  <SCORE.INTER.SOLV>
18.1803

>  <SCORE.INTER.VDW>
-19.7181

>  <SCORE.INTER.norm>
-0.423802

>  <SCORE.INTRA>
-0.407736

>  <SCORE.INTRA.DIHEDRAL>
0.0834635

>  <SCORE.INTRA.DIHEDRAL.0>
16.2083

>  <SCORE.INTRA.POLAR>
0

>  <SCORE.INTRA.POLAR.0>
0

>  <SCORE.INTRA.REPUL>
0

>  <SCORE.INTRA.REPUL.0>
0

>  <SCORE.INTRA.SOLV>
-1.02111

>  <SCORE.INTRA.SOLV.lig_0>
-89.8095

>  <SCORE.INTRA.VDW>
0.0610883

>  <SCORE.INTRA.VDW.0>
-3.19502

>  <SCORE.INTRA.norm>
-0.0110199

>  <SCORE.RESTR>
0

>  <SCORE.RESTR.CAVITY>
0

>  <SCORE.RESTR.norm>
0

>  <SCORE.SYSTEM>
0

>  <SCORE.SYSTEM.CONST>
0

>  <SCORE.SYSTEM.DIHEDRAL>
0

>  <SCORE.SYSTEM.SOLV>
0

>  <SCORE.SYSTEM.norm>
0

>  <SCORE.heavy>
37

>  <SCORE.norm>
-0.434821

>  <RMSD>
0.753

$$$$
2oe5_lig
 OpenBabel11021811463D
libRbt.so/2013.1/901 2013/11/27
 37 40  0  0  0  0  0  0  0  0999 V2000
   20.8753    1.2943   53.5817 C   0  0  1  0  0  0  0  0  0  0  0  0
   19.7256    1.7785   52.6701 C   0  0  1  0  0  0  0  0  0  0  0  0
   19.0915    0.5413   51.9323 C   0  0  0  0  0  0  0  0  0  0  0  0
   20.2492   -0.0915   51.1282 C   0  0  1  0  0  0  0  0  0  0  0  0
   21.4267   -0.5801   52.0828 C   0  0  1  0  0  0  0  0  0  0  0  0
   22.5983   -1.2266   51.2944 C   0  0  1  0  0  0  0  0  0  0  0  0
   22.0056   -2.4363   50.5173 C   0  0  1  0  0  0  0  0  0  0  0  0
   20.8178   -1.9171   49.6214 C   0  0  2  0  0  0  0  0  0  0  0  0
   23.6789   -4.4084   50.1002 C   0  0  0  0  0  0  0  0  0  0  0  0
   18.6870    2.4543   53.4813 N   0  0  0  0  0  0  0  0  0  0  0  0
   23.0746   -3.0969   49.6774 N   0  0  0  0  0  0  0  0  0  0  0  0
   20.4066    0.4145   54.6166 O   0  0  0  0  0  0  0  0  0  0  0  0
   21.9177    0.5798   52.8296 O   0  0  0  0  0  0  0  0  0  0  0  0
   19.7582   -1.2509   50.4033 O   0  0  0  0  0  0  0  0  0  0  0  0
   23.1327   -0.2372   50.4090 O   0  0  0  0  0  0  0  0  0  0  0  0
   20.2118   -3.0015   48.9461 O   0  0  0  0  0  0  0  0  0  0  0  0
   19.3096   -2.5239   47.9658 C   0  0  2  0  0  0  0  0  0  0  0  0
   18.0514   -3.3855   47.8657 C   0  0  1  0  0  0  0  0  0  0  0  0
   18.3928   -4.8236   47.3879 C   0  0  2  0  0  0  0  0  0  0  0  0
   19.1242   -4.7015   46.0182 C   0  0  1  0  0  0  0  0  0  0  0  0
   20.4163   -3.8459   46.2301 C   0  0  1  0  0  0  0  0  0  0  0  0
   21.1840   -3.6169   44.9473 C   0  0  0  0  0  0  0  0  0  0  0  0
   19.4585   -6.0966   45.5428 N   0  0  0  0  0  0  0  0  0  0  0  0
   20.0018   -2.5110   46.6780 O   0  0  0  0  0  0  0  0  0  0  0  0
   17.4384   -3.4104   49.1700 O   0  0  0  0  0  0  0  0  0  0  0  0
   17.1573   -5.5403   47.2124 O   0  0  0  0  0  0  0  0  0  0  0  0
   20.6020   -2.6335   44.1618 O   0  0  0  0  0  0  0  0  0  0  0  0
   21.1703    0.4702   55.8217 C   0  0  1  0  0  0  0  0  0  0  0  0
   20.4443    1.3853   56.8717 C   0  0  1  0  0  0  0  0  0  0  0  0
   21.2958    1.4200   58.1917 C   0  0  2  0  0  0  0  0  0  0  0  0
   21.4192   -0.0041   58.7542 C   0  0  1  0  0  0  0  0  0  0  0  0
   22.1611   -0.9184   57.7045 C   0  0  0  0  0  0  0  0  0  0  0  0
   21.3151   -0.9426   56.3711 C   0  0  2  0  0  0  0  0  0  0  0  0
   22.1924    0.0444   59.9842 N   0  0  0  0  0  0  0  0  0  0  0  0
   21.9935   -1.7782   55.3457 N   0  0  0  0  0  0  0  0  0  0  0  0
   20.3245    2.7368   56.3422 O   0  0  0  0  0  0  0  0  0  0  0  0
   20.6414    2.2217   59.1390 O   0  0  0  0  0  0  0  0  0  0  0  0
  1  2  1  0  0  0  0
  1 12  1  1  0  0  0
  1 13  1  0  0  0  0
  2  3  1  0  0  0  0
  2 10  1  1  0  0  0
  4  3  1  1  0  0  0
  4  5  1  0  0  0  0
  4 14  1  0  0  0  0
  5  6  1  0  0  0  0
  5 13  1  6  0  0  0
  6  7  1  0  0  0  0
  6 15  1  6  0  0  0
  7  8  1  0  0  0  0
  7 11  1  6  0  0  0
  8 14  1  0  0  0  0
  8 16  1  1  0  0  0
  9 11  1  0  0  0  0
 17 16  1  1  0  0  0
 17 18  1  0  0  0  0
 17 24  1  0  0  0  0
 18 19  1  0  0  0  0
 18 25  1  1  0  0  0
 19 20  1  0  0  0  0
 19 26  1  6  0  0  0
 20 21  1  0  0  0  0
 20 23  1  1  0  0  0
 21 22  1  6  0  0  0
 21 24  1  0  0  0  0
 22 27  1  0  0  0  0
 28 12  1  6  0  0  0
 28 29  1  0  0  0  0
 28 33  1  0  0  0  0
 29 30  1  0  0  0  0
 29 36  1  6  0  0  0
 30 31  1  0  0  0  0
 30 37  1  1  0  0  0
 31 32  1  0  0  0  0
 31 34  1  1  0  0  0
 32 33  1  0  0  0  0
 33 35  1  6  0  0  0
M  END
>  <CHROM.1>
-149.71221331,104.89546246,-169.59815964,-142.13962842,77.79896393,99.14616173
20.57800382,-1.34454852,51.60608659,1.42803003,-0.55437683,1.06271640

>  <Name>
2oe5_lig

>  <RI>
0

>  <Rbt.Current_Directory>
/home/itssahil/PROJECTS/Mol_Feturizer/New_Systems/rnas/2oe5

>  <Rbt.Executable>
rbdock ($Id: //depot/dev/client3/rdock/2013.1/src/exe/rbdock.cxx#4 $)

>  <Rbt.Library>
libRbt.so (2013.1, Build901 2013/11/27)

>  <Rbt.Parameter_File>
/export/apps/rDock/src/rDock_2013.1_src/data/scripts/dock_solv.prm

>  <Rbt.Receptor>
prm/pocket_docking_2.prm

>  <SCORE>
-19.0299

>  <SCORE.INTER>
-18.9211

>  <SCORE.INTER.CONST>
1

>  <SCORE.INTER.POLAR>
-2.1702

>  <SCORE.INTER.ROT>
6

>  <SCORE.INTER.SOLV>
17.2058

>  <SCORE.INTER.VDW>
-18.7153

>  <SCORE.INTER.norm>
-0.511381

>  <SCORE.INTRA>
-0.351053

>  <SCORE.INTRA.DIHEDRAL>
0.371509

>  <SCORE.INTRA.DIHEDRAL.0>
16.2083

>  <SCORE.INTRA.POLAR>
0

>  <SCORE.INTRA.POLAR.0>
0

>  <SCORE.INTRA.REPUL>
0

>  <SCORE.INTRA.REPUL.0>
0

>  <SCORE.INTRA.SOLV>
-0.435386

>  <SCORE.INTRA.SOLV.lig_0>
-89.8095

>  <SCORE.INTRA.VDW>
-0.319114

>  <SCORE.INTRA.VDW.0>
-3.19502

>  <SCORE.INTRA.norm>
-0.00948791

>  <SCORE.RESTR>
0.242266

>  <SCORE.RESTR.CAVITY>
0.242266

>  <SCORE.RESTR.norm>
0.00654773

>  <SCORE.SYSTEM>
0

>  <SCORE.SYSTEM.CONST>
0

>  <SCORE.SYSTEM.DIHEDRAL>
0

>  <SCORE.SYSTEM.SOLV>
0

>  <SCORE.SYSTEM.norm>
0

>  <SCORE.heavy>
37

>  <SCORE.norm>
-0.514321

>  <RMSD>
0.754

$$$$
2oe5_lig
 OpenBabel11021811463D
libRbt.so/2013.1/901 2013/11/27
 37 40  0  0  0  0  0  0  0  0999 V2000
   20.5926    1.5560   53.8646 C   0  0  1  0  0  0  0  0  0  0  0  0
   19.6416    2.0987   52.7744 C   0  0  1  0  0  0  0  0  0  0  0  0
   18.9491    0.8905   52.0410 C   0  0  0  0  0  0  0  0  0  0  0  0
   20.1062    0.0569   51.4462 C   0  0  1  0  0  0  0  0  0  0  0  0
   21.0785   -0.4898   52.5829 C   0  0  1  0  0  0  0  0  0  0  0  0
   22.2455   -1.3372   52.0065 C   0  0  1  0  0  0  0  0  0  0  0  0
   21.6023   -2.5266   51.2380 C   0  0  1  0  0  0  0  0  0  0  0  0
   20.6164   -1.9433   50.1558 C   0  0  2  0  0  0  0  0  0  0  0  0
   23.4996   -2.8449   49.4598 C   0  0  0  0  0  0  0  0  0  0  0  0
   18.6064    2.9608   53.3896 N   0  0  0  0  0  0  0  0  0  0  0  0
   22.6731   -3.3798   50.5976 N   0  0  0  0  0  0  0  0  0  0  0  0
   19.8848    0.8290   54.8821 O   0  0  0  0  0  0  0  0  0  0  0  0
   21.6190    0.6600   53.3110 O   0  0  0  0  0  0  0  0  0  0  0  0
   19.5630   -1.0906   50.7399 O   0  0  0  0  0  0  0  0  0  0  0  0
   23.0133   -0.4974   51.1385 O   0  0  0  0  0  0  0  0  0  0  0  0
   19.9637   -2.9986   49.4778 O   0  0  0  0  0  0  0  0  0  0  0  0
   19.3245   -2.5097   48.3136 C   0  0  2  0  0  0  0  0  0  0  0  0
   18.1494   -3.3874   47.8845 C   0  0  1  0  0  0  0  0  0  0  0  0
   18.6293   -4.8075   47.4769 C   0  0  2  0  0  0  0  0  0  0  0  0
   19.6762   -4.6393   46.3361 C   0  0  1  0  0  0  0  0  0  0  0  0
   20.8564   -3.7700   46.8818 C   0  0  1  0  0  0  0  0  0  0  0  0
   21.9146   -3.4966   45.8363 C   0  0  0  0  0  0  0  0  0  0  0  0
   20.1477   -6.0165   45.9300 N   0  0  0  0  0  0  0  0  0  0  0  0
   20.3154   -2.4534   47.2399 O   0  0  0  0  0  0  0  0  0  0  0  0
   17.2313   -3.4551   48.9936 O   0  0  0  0  0  0  0  0  0  0  0  0
   17.4919   -5.5381   46.9835 O   0  0  0  0  0  0  0  0  0  0  0  0
   21.3685   -3.0058   44.6601 O   0  0  0  0  0  0  0  0  0  0  0  0
   20.5275    0.8319   56.1570 C   0  0  1  0  0  0  0  0  0  0  0  0
   19.5614    1.4318   57.2403 C   0  0  1  0  0  0  0  0  0  0  0  0
   20.2849    1.4121   58.6348 C   0  0  2  0  0  0  0  0  0  0  0  0
   20.6319   -0.0374   59.0065 C   0  0  1  0  0  0  0  0  0  0  0  0
   21.6136   -0.6338   57.9254 C   0  0  0  0  0  0  0  0  0  0  0  0
   20.8944   -0.6008   56.5197 C   0  0  2  0  0  0  0  0  0  0  0  0
   21.2833   -0.0436   60.3060 N   0  0  0  0  0  0  0  0  0  0  0  0
   21.7970   -1.1356   55.4665 N   0  0  0  0  0  0  0  0  0  0  0  0
   19.2290    2.8064   56.8914 O   0  0  0  0  0  0  0  0  0  0  0  0
   19.4183    1.9303   59.6089 O   0  0  0  0  0  0  0  0  0  0  0  0
  1  2  1  0  0  0  0
  1 12  1  1  0  0  0
  1 13  1  0  0  0  0
  2  3  1  0  0  0  0
  2 10  1  1  0  0  0
  4  3  1  1  0  0  0
  4  5  1  0  0  0  0
  4 14  1  0  0  0  0
  5  6  1  0  0  0  0
  5 13  1  6  0  0  0
  6  7  1  0  0  0  0
  6 15  1  6  0  0  0
  7  8  1  0  0  0  0
  7 11  1  6  0  0  0
  8 14  1  0  0  0  0
  8 16  1  1  0  0  0
  9 11  1  0  0  0  0
 17 16  1  1  0  0  0
 17 18  1  0  0  0  0
 17 24  1  0  0  0  0
 18 19  1  0  0  0  0
 18 25  1  1  0  0  0
 19 20  1  0  0  0  0
 19 26  1  6  0  0  0
 20 21  1  0  0  0  0
 20 23  1  1  0  0  0
 21 22  1  6  0  0  0
 21 24  1  0  0  0  0
 22 27  1  0  0  0  0
 28 12  1  6  0  0  0
 28 29  1  0  0  0  0
 28 33  1  0  0  0  0
 29 30  1  0  0  0  0
 29 36  1  6  0  0  0
 30 31  1  0  0  0  0
 30 37  1  1  0  0  0
 31 32  1  0  0  0  0
 31 34  1  1  0  0  0
 32 33  1  0  0  0  0
 33 35  1  6  0  0  0
M  END
>  <CHROM.1>
-152.90089709,-67.98878142,-166.41772302,-155.04372574,50.68584221,122.33814386
20.36913968,-1.22569265,51.93975968,1.54099485,-0.41580246,1.11438298

>  <Name>
2oe5_lig

>  <RI>
0

>  <Rbt.Current_Directory>
/home/itssahil/PROJECTS/Mol_Feturizer/New_Systems/rnas/2oe5

>  <Rbt.Executable>
rbdock ($Id: //depot/dev/client3/rdock/2013.1/src/exe/rbdock.cxx#4 $)

>  <Rbt.Library>
libRbt.so (2013.1, Build901 2013/11/27)

>  <Rbt.Parameter_File>
/export/apps/rDock/src/rDock_2013.1_src/data/scripts/dock_solv.prm

>  <Rbt.Receptor>
prm/pocket_docking_2.prm

>  <SCORE>
-15.4281

>  <SCORE.INTER>
-15.3537

>  <SCORE.INTER.CONST>
1

>  <SCORE.INTER.POLAR>
-1.43403

>  <SCORE.INTER.ROT>
6

>  <SCORE.INTER.SOLV>
15.6777

>  <SCORE.INTER.VDW>
-18.2816

>  <SCORE.INTER.norm>
-0.414964

>  <SCORE.INTRA>
-0.0744752

>  <SCORE.INTRA.DIHEDRAL>
-2.03539

>  <SCORE.INTRA.DIHEDRAL.0>
16.2083

>  <SCORE.INTRA.POLAR>
0

>  <SCORE.INTRA.POLAR.0>
0

>  <SCORE.INTRA.REPUL>
0

>  <SCORE.INTRA.REPUL.0>
0

>  <SCORE.INTRA.SOLV>
1.10892

>  <SCORE.INTRA.SOLV.lig_0>
-89.8095

>  <SCORE.INTRA.VDW>
0.388761

>  <SCORE.INTRA.VDW.0>
-3.19502

>  <SCORE.INTRA.norm>
-0.00201284

>  <SCORE.RESTR>
0

>  <SCORE.RESTR.CAVITY>
0

>  <SCORE.RESTR.norm>
0

>  <SCORE.SYSTEM>
0

>  <SCORE.SYSTEM.CONST>
0

>  <SCORE.SYSTEM.DIHEDRAL>
0

>  <SCORE.SYSTEM.SOLV>
0

>  <SCORE.SYSTEM.norm>
0

>  <SCORE.heavy>
37

>  <SCORE.norm>
-0.416977

>  <RMSD>
0.761

$$$$
2oe5_lig
 OpenBabel11021811463D
libRbt.so/2013.1/901 2013/11/27
 37 40  0  0  0  0  0  0  0  0999 V2000
   20.7204    1.4151   53.6381 C   0  0  1  0  0  0  0  0  0  0  0  0
   19.5162    1.7885   52.7449 C   0  0  1  0  0  0  0  0  0  0  0  0
   19.0410    0.5134   51.9541 C   0  0  0  0  0  0  0  0  0  0  0  0
   20.2669    0.0660   51.1268 C   0  0  1  0  0  0  0  0  0  0  0  0
   21.4993   -0.3100   52.0629 C   0  0  1  0  0  0  0  0  0  0  0  0
   22.7408   -0.7698   51.2508 C   0  0  1  0  0  0  0  0  0  0  0  0
   22.3031   -2.0108   50.4219 C   0  0  1  0  0  0  0  0  0  0  0  0
   21.0567   -1.6082   49.5458 C   0  0  2  0  0  0  0  0  0  0  0  0
   24.5253   -3.3682   50.1354 C   0  0  0  0  0  0  0  0  0  0  0  0
   18.4030    2.2931   53.5813 N   0  0  0  0  0  0  0  0  0  0  0  0
   23.4445   -2.4954   49.5576 N   0  0  0  0  0  0  0  0  0  0  0  0
   20.3693    0.4404   54.6339 O   0  0  0  0  0  0  0  0  0  0  0  0
   21.8424    0.8700   52.8591 O   0  0  0  0  0  0  0  0  0  0  0  0
   19.9239   -1.1145   50.3526 O   0  0  0  0  0  0  0  0  0  0  0  0
   23.1437    0.3154   50.4092 O   0  0  0  0  0  0  0  0  0  0  0  0
   20.5903   -2.7310   48.8240 O   0  0  0  0  0  0  0  0  0  0  0  0
   19.5473   -2.3490   47.9469 C   0  0  2  0  0  0  0  0  0  0  0  0
   18.2790   -3.1748   48.1587 C   0  0  1  0  0  0  0  0  0  0  0  0
   18.5207   -4.6714   47.8198 C   0  0  2  0  0  0  0  0  0  0  0  0
   19.0221   -4.7436   46.3470 C   0  0  1  0  0  0  0  0  0  0  0  0
   20.3419   -3.9112   46.2400 C   0  0  1  0  0  0  0  0  0  0  0  0
   20.8945   -3.8678   44.8328 C   0  0  0  0  0  0  0  0  0  0  0  0
   19.2577   -6.1970   46.0061 N   0  0  0  0  0  0  0  0  0  0  0  0
   20.0220   -2.5182   46.5744 O   0  0  0  0  0  0  0  0  0  0  0  0
   17.8850   -3.0182   49.5364 O   0  0  0  0  0  0  0  0  0  0  0  0
   17.2643   -5.3635   47.9358 O   0  0  0  0  0  0  0  0  0  0  0  0
   22.0938   -3.1750   44.7665 O   0  0  0  0  0  0  0  0  0  0  0  0
   21.1919    0.4739   55.8005 C   0  0  1  0  0  0  0  0  0  0  0  0
   20.5493    1.4171   56.8795 C   0  0  1  0  0  0  0  0  0  0  0  0
   21.4643    1.4271   58.1567 C   0  0  2  0  0  0  0  0  0  0  0  0
   21.5659    0.0015   58.7199 C   0  0  1  0  0  0  0  0  0  0  0  0
   22.2245   -0.9414   57.6404 C   0  0  0  0  0  0  0  0  0  0  0  0
   21.3146   -0.9411   56.3494 C   0  0  2  0  0  0  0  0  0  0  0  0
   22.3989    0.0276   59.9109 N   0  0  0  0  0  0  0  0  0  0  0  0
   21.9136   -1.8031   55.2968 N   0  0  0  0  0  0  0  0  0  0  0  0
   20.4503    2.7702   56.3495 O   0  0  0  0  0  0  0  0  0  0  0  0
   20.8843    2.2541   59.1304 O   0  0  0  0  0  0  0  0  0  0  0  0
  1  2  1  0  0  0  0
  1 12  1  1  0  0  0
  1 13  1  0  0  0  0
  2  3  1  0  0  0  0
  2 10  1  1  0  0  0
  4  3  1  1  0  0  0
  4  5  1  0  0  0  0
  4 14  1  0  0  0  0
  5  6  1  0  0  0  0
  5 13  1  6  0  0  0
  6  7  1  0  0  0  0
  6 15  1  6  0  0  0
  7  8  1  0  0  0  0
  7 11  1  6  0  0  0
  8 14  1  0  0  0  0
  8 16  1  1  0  0  0
  9 11  1  0  0  0  0
 17 16  1  1  0  0  0
 17 18  1  0  0  0  0
 17 24  1  0  0  0  0
 18 19  1  0  0  0  0
 18 25  1  1  0  0  0
 19 20  1  0  0  0  0
 19 26  1  6  0  0  0
 20 21  1  0  0  0  0
 20 23  1  1  0  0  0
 21 22  1  6  0  0  0
 21 24  1  0  0  0  0
 22 27  1  0  0  0  0
 28 12  1  6  0  0  0
 28 29  1  0  0  0  0
 28 33  1  0  0  0  0
 29 30  1  0  0  0  0
 29 36  1  6  0  0  0
 30 31  1  0  0  0  0
 30 37  1  1  0  0  0
 31 32  1  0  0  0  0
 31 34  1  1  0  0  0
 32 33  1  0  0  0  0
 33 35  1  6  0  0  0
M  END
>  <CHROM.1>
-154.31453855,81.37073157,-174.83202309,-125.24073086,-177.40873619,91.97663873
20.71429029,-1.21793891,51.67687119,1.46370140,-0.10763758,1.12242238

>  <Name>
2oe5_lig

>  <RI>
0

>  <Rbt.Current_Directory>
/home/itssahil/PROJECTS/Mol_Feturizer/New_Systems/rnas/2oe5

>  <Rbt.Executable>
rbdock ($Id: //depot/dev/client3/rdock/2013.1/src/exe/rbdock.cxx#4 $)

>  <Rbt.Library>
libRbt.so (2013.1, Build901 2013/11/27)

>  <Rbt.Parameter_File>
/export/apps/rDock/src/rDock_2013.1_src/data/scripts/dock_solv.prm

>  <Rbt.Receptor>
prm/pocket_docking_2.prm

>  <SCORE>
-16.698

>  <SCORE.INTER>
-15.0561

>  <SCORE.INTER.CONST>
1

>  <SCORE.INTER.POLAR>
-1.45964

>  <SCORE.INTER.ROT>
6

>  <SCORE.INTER.SOLV>
18.7241

>  <SCORE.INTER.VDW>
-19.0133

>  <SCORE.INTER.norm>
-0.40692

>  <SCORE.INTRA>
-1.642

>  <SCORE.INTRA.DIHEDRAL>
-1.83639

>  <SCORE.INTRA.DIHEDRAL.0>
16.2083

>  <SCORE.INTRA.POLAR>
0

>  <SCORE.INTRA.POLAR.0>
0

>  <SCORE.INTRA.REPUL>
0

>  <SCORE.INTRA.REPUL.0>
0

>  <SCORE.INTRA.SOLV>
-1.24478

>  <SCORE.INTRA.SOLV.lig_0>
-89.8095

>  <SCORE.INTRA.VDW>
-0.101413

>  <SCORE.INTRA.VDW.0>
-3.19502

>  <SCORE.INTRA.norm>
-0.0443783

>  <SCORE.RESTR>
0

>  <SCORE.RESTR.CAVITY>
0

>  <SCORE.RESTR.norm>
0

>  <SCORE.SYSTEM>
0

>  <SCORE.SYSTEM.CONST>
0

>  <SCORE.SYSTEM.DIHEDRAL>
0

>  <SCORE.SYSTEM.SOLV>
0

>  <SCORE.SYSTEM.norm>
0

>  <SCORE.heavy>
37

>  <SCORE.norm>
-0.451299

>  <RMSD>
0.764

$$$$
2oe5_lig
 OpenBabel11021811463D
libRbt.so/2013.1/901 2013/11/27
 37 40  0  0  0  0  0  0  0  0999 V2000
   20.6393    1.3461   53.8543 C   0  0  1  0  0  0  0  0  0  0  0  0
   19.5490    1.8509   52.8829 C   0  0  1  0  0  0  0  0  0  0  0  0
   18.9373    0.6260   52.1066 C   0  0  0  0  0  0  0  0  0  0  0  0
   20.1276   -0.0223   51.3647 C   0  0  1  0  0  0  0  0  0  0  0  0
   21.2432   -0.5321   52.3805 C   0  0  1  0  0  0  0  0  0  0  0  0
   22.4463   -1.1942   51.6550 C   0  0  1  0  0  0  0  0  0  0  0  0
   21.8786   -2.3922   50.8418 C   0  0  1  0  0  0  0  0  0  0  0  0
   20.7499   -1.8518   49.8842 C   0  0  2  0  0  0  0  0  0  0  0  0
   22.8858   -4.5253   49.7022 C   0  0  0  0  0  0  0  0  0  0  0  0
   18.4779    2.5402   53.6386 N   0  0  0  0  0  0  0  0  0  0  0  0
   22.9819   -3.0668   50.0592 N   0  0  0  0  0  0  0  0  0  0  0  0
   20.1010    0.4704   54.8585 O   0  0  0  0  0  0  0  0  0  0  0  0
   21.7103    0.6177   53.1577 O   0  0  0  0  0  0  0  0  0  0  0  0
   19.6594   -1.1717   50.6095 O   0  0  0  0  0  0  0  0  0  0  0  0
   23.0437   -0.2106   50.8042 O   0  0  0  0  0  0  0  0  0  0  0  0
   20.1653   -2.9246   49.1724 O   0  0  0  0  0  0  0  0  0  0  0  0
   19.3323   -2.4300   48.1407 C   0  0  2  0  0  0  0  0  0  0  0  0
   18.1251   -3.3320   47.8865 C   0  0  1  0  0  0  0  0  0  0  0  0
   18.5672   -4.7288   47.3702 C   0  0  2  0  0  0  0  0  0  0  0  0
   19.4090   -4.5065   46.0788 C   0  0  1  0  0  0  0  0  0  0  0  0
   20.6404   -3.6153   46.4469 C   0  0  1  0  0  0  0  0  0  0  0  0
   21.5062   -3.2896   45.2503 C   0  0  0  0  0  0  0  0  0  0  0  0
   19.8420   -5.8608   45.5664 N   0  0  0  0  0  0  0  0  0  0  0  0
   20.1325   -2.3226   46.9217 O   0  0  0  0  0  0  0  0  0  0  0  0
   17.4028   -3.4494   49.1283 O   0  0  0  0  0  0  0  0  0  0  0  0
   17.3830   -5.4814   47.0503 O   0  0  0  0  0  0  0  0  0  0  0  0
   22.1025   -4.4220   44.7166 O   0  0  0  0  0  0  0  0  0  0  0  0
   20.6789    0.6402   56.1530 C   0  0  1  0  0  0  0  0  0  0  0  0
   19.7214    1.4967   57.0567 C   0  0  1  0  0  0  0  0  0  0  0  0
   20.3719    1.6582   58.4777 C   0  0  2  0  0  0  0  0  0  0  0  0
   20.5645    0.2710   59.1088 C   0  0  1  0  0  0  0  0  0  0  0  0
   21.5376   -0.5829   58.2076 C   0  0  0  0  0  0  0  0  0  0  0  0
   20.8932   -0.7337   56.7736 C   0  0  2  0  0  0  0  0  0  0  0  0
   21.1490    0.4353   60.4296 N   0  0  0  0  0  0  0  0  0  0  0  0
   21.7921   -1.5157   55.8846 N   0  0  0  0  0  0  0  0  0  0  0  0
   19.5354    2.8131   56.4616 O   0  0  0  0  0  0  0  0  0  0  0  0
   19.5111    2.4073   59.2940 O   0  0  0  0  0  0  0  0  0  0  0  0
  1  2  1  0  0  0  0
  1 12  1  1  0  0  0
  1 13  1  0  0  0  0
  2  3  1  0  0  0  0
  2 10  1  1  0  0  0
  4  3  1  1  0  0  0
  4  5  1  0  0  0  0
  4 14  1  0  0  0  0
  5  6  1  0  0  0  0
  5 13  1  6  0  0  0
  6  7  1  0  0  0  0
  6 15  1  6  0  0  0
  7  8  1  0  0  0  0
  7 11  1  6  0  0  0
  8 14  1  0  0  0  0
  8 16  1  1  0  0  0
  9 11  1  0  0  0  0
 17 16  1  1  0  0  0
 17 18  1  0  0  0  0
 17 24  1  0  0  0  0
 18 19  1  0  0  0  0
 18 25  1  1  0  0  0
 19 20  1  0  0  0  0
 19 26  1  6  0  0  0
 20 21  1  0  0  0  0
 20 23  1  1  0  0  0
 21 22  1  6  0  0  0
 21 24  1  0  0  0  0
 22 27  1  0  0  0  0
 28 12  1  6  0  0  0
 28 29  1  0  0  0  0
 28 33  1  0  0  0  0
 29 30  1  0  0  0  0
 29 36  1  6  0  0  0
 30 31  1  0  0  0  0
 30 37  1  1  0  0  0
 31 32  1  0  0  0  0
 31 34  1  1  0  0  0
 32 33  1  0  0  0  0
 33 35  1  6  0  0  0
M  END
>  <CHROM.1>
-141.65980351,152.67319614,-169.23543782,-146.86678492,-64.90713666,100.68058250
20.39438001,-1.28183256,51.83021191,1.53922505,-0.38613964,1.10803495

>  <Name>
2oe5_lig

>  <RI>
0

>  <Rbt.Current_Directory>
/home/itssahil/PROJECTS/Mol_Feturizer/New_Systems/rnas/2oe5

>  <Rbt.Executable>
rbdock ($Id: //depot/dev/client3/rdock/2013.1/src/exe/rbdock.cxx#4 $)

>  <Rbt.Library>
libRbt.so (2013.1, Build901 2013/11/27)

>  <Rbt.Parameter_File>
/export/apps/rDock/src/rDock_2013.1_src/data/scripts/dock_solv.prm

>  <Rbt.Receptor>
prm/pocket_docking_2.prm

>  <SCORE>
-15.341

>  <SCORE.INTER>
-14.8254

>  <SCORE.INTER.CONST>
1

>  <SCORE.INTER.POLAR>
-1.44334

>  <SCORE.INTER.ROT>
6

>  <SCORE.INTER.SOLV>
16.272

>  <SCORE.INTER.VDW>
-18.0964

>  <SCORE.INTER.norm>
-0.400686

>  <SCORE.INTRA>
-0.515662

>  <SCORE.INTRA.DIHEDRAL>
-0.203515

>  <SCORE.INTRA.DIHEDRAL.0>
16.2083

>  <SCORE.INTRA.POLAR>
0

>  <SCORE.INTRA.POLAR.0>
0

>  <SCORE.INTRA.REPUL>
0

>  <SCORE.INTRA.REPUL.0>
0

>  <SCORE.INTRA.SOLV>
0.344627

>  <SCORE.INTRA.SOLV.lig_0>
-89.8095

>  <SCORE.INTRA.VDW>
-0.586218

>  <SCORE.INTRA.VDW.0>
-3.19502

>  <SCORE.INTRA.norm>
-0.0139368

>  <SCORE.RESTR>
0

>  <SCORE.RESTR.CAVITY>
0

>  <SCORE.RESTR.norm>
0

>  <SCORE.SYSTEM>
0

>  <SCORE.SYSTEM.CONST>
0

>  <SCORE.SYSTEM.DIHEDRAL>
0

>  <SCORE.SYSTEM.SOLV>
0

>  <SCORE.SYSTEM.norm>
0

>  <SCORE.heavy>
37

>  <SCORE.norm>
-0.414623

>  <RMSD>
0.764

$$$$
2oe5_lig
 OpenBabel11021811463D
libRbt.so/2013.1/901 2013/11/27
 37 40  0  0  0  0  0  0  0  0999 V2000
   20.7687    1.7076   53.6435 C   0  0  1  0  0  0  0  0  0  0  0  0
   19.6384    2.1438   52.6846 C   0  0  1  0  0  0  0  0  0  0  0  0
   19.0180    0.8699   51.9994 C   0  0  0  0  0  0  0  0  0  0  0  0
   20.1912    0.1960   51.2532 C   0  0  1  0  0  0  0  0  0  0  0  0
   21.3483   -0.2423   52.2557 C   0  0  1  0  0  0  0  0  0  0  0  0
   22.5351   -0.9291   51.5262 C   0  0  1  0  0  0  0  0  0  0  0  0
   21.9570   -2.1776   50.8011 C   0  0  1  0  0  0  0  0  0  0  0  0
   20.7883   -1.7056   49.8553 C   0  0  2  0  0  0  0  0  0  0  0  0
   22.9343   -4.3500   49.7111 C   0  0  0  0  0  0  0  0  0  0  0  0
   18.5842    2.8610   53.4382 N   0  0  0  0  0  0  0  0  0  0  0  0
   23.0421   -2.8811   50.0188 N   0  0  0  0  0  0  0  0  0  0  0  0
   20.2779    0.8829   54.7130 O   0  0  0  0  0  0  0  0  0  0  0  0
   21.8254    0.9548   52.9511 O   0  0  0  0  0  0  0  0  0  0  0  0
   19.7137   -0.9995   50.5798 O   0  0  0  0  0  0  0  0  0  0  0  0
   23.0886    0.0128   50.6016 O   0  0  0  0  0  0  0  0  0  0  0  0
   20.1949   -2.8236   49.2252 O   0  0  0  0  0  0  0  0  0  0  0  0
   19.3548   -2.3998   48.1681 C   0  0  2  0  0  0  0  0  0  0  0  0
   18.1838   -3.3545   47.9385 C   0  0  1  0  0  0  0  0  0  0  0  0
   18.6816   -4.7529   47.4802 C   0  0  2  0  0  0  0  0  0  0  0  0
   19.5276   -4.5493   46.1884 C   0  0  1  0  0  0  0  0  0  0  0  0
   20.7221   -3.6000   46.5325 C   0  0  1  0  0  0  0  0  0  0  0  0
   21.5874   -3.2887   45.3317 C   0  0  0  0  0  0  0  0  0  0  0  0
   20.0146   -5.9054   45.7324 N   0  0  0  0  0  0  0  0  0  0  0  0
   20.1628   -2.3097   46.9528 O   0  0  0  0  0  0  0  0  0  0  0  0
   17.4539   -3.4508   49.1776 O   0  0  0  0  0  0  0  0  0  0  0  0
   17.5288   -5.5601   47.1794 O   0  0  0  0  0  0  0  0  0  0  0  0
   22.1003   -4.4376   44.7489 O   0  0  0  0  0  0  0  0  0  0  0  0
   21.1487    0.8102   55.8422 C   0  0  1  0  0  0  0  0  0  0  0  0
   20.6132    1.7393   56.9898 C   0  0  1  0  0  0  0  0  0  0  0  0
   21.5792    1.6322   58.2242 C   0  0  2  0  0  0  0  0  0  0  0  0
   21.6130    0.1780   58.7181 C   0  0  1  0  0  0  0  0  0  0  0  0
   22.1645   -0.7517   57.5694 C   0  0  0  0  0  0  0  0  0  0  0  0
   21.2036   -0.6340   56.3215 C   0  0  2  0  0  0  0  0  0  0  0  0
   22.4947    0.0962   59.8709 N   0  0  0  0  0  0  0  0  0  0  0  0
   21.7020   -1.4807   55.2059 N   0  0  0  0  0  0  0  0  0  0  0  0
   20.5789    3.1194   56.5255 O   0  0  0  0  0  0  0  0  0  0  0  0
   21.0943    2.4465   59.2586 O   0  0  0  0  0  0  0  0  0  0  0  0
  1  2  1  0  0  0  0
  1 12  1  1  0  0  0
  1 13  1  0  0  0  0
  2  3  1  0  0  0  0
  2 10  1  1  0  0  0
  4  3  1  1  0  0  0
  4  5  1  0  0  0  0
  4 14  1  0  0  0  0
  5  6  1  0  0  0  0
  5 13  1  6  0  0  0
  6  7  1  0  0  0  0
  6 15  1  6  0  0  0
  7  8  1  0  0  0  0
  7 11  1  6  0  0  0
  8 14  1  0  0  0  0
  8 16  1  1  0  0  0
  9 11  1  0  0  0  0
 17 16  1  1  0  0  0
 17 18  1  0  0  0  0
 17 24  1  0  0  0  0
 18 19  1  0  0  0  0
 18 25  1  1  0  0  0
 19 20  1  0  0  0  0
 19 26  1  6  0  0  0
 20 21  1  0  0  0  0
 20 23  1  1  0  0  0
 21 22  1  6  0  0  0
 21 24  1  0  0  0  0
 22 27  1  0  0  0  0
 28 12  1  6  0  0  0
 28 29  1  0  0  0  0
 28 33  1  0  0  0  0
 29 30  1  0  0  0  0
 29 36  1  6  0  0  0
 30 31  1  0  0  0  0
 30 37  1  1  0  0  0
 31 32  1  0  0  0  0
 31 34  1  1  0  0  0
 32 33  1  0  0  0  0
 33 35  1  6  0  0  0
M  END
>  <CHROM.1>
-160.62445586,154.52931191,-167.25827687,-149.93811353,-57.60370738,102.22296319
20.68134658,-1.17146021,51.72170696,1.44715727,-0.64776577,1.01924935

>  <Name>
2oe5_lig

>  <RI>
0

>  <Rbt.Current_Directory>
/home/itssahil/PROJECTS/Mol_Feturizer/New_Systems/rnas/2oe5

>  <Rbt.Executable>
rbdock ($Id: //depot/dev/client3/rdock/2013.1/src/exe/rbdock.cxx#4 $)

>  <Rbt.Library>
libRbt.so (2013.1, Build901 2013/11/27)

>  <Rbt.Parameter_File>
/export/apps/rDock/src/rDock_2013.1_src/data/scripts/dock_solv.prm

>  <Rbt.Receptor>
prm/pocket_docking_2.prm

>  <SCORE>
-16.7453

>  <SCORE.INTER>
-14.3932

>  <SCORE.INTER.CONST>
1

>  <SCORE.INTER.POLAR>
-1.74714

>  <SCORE.INTER.ROT>
6

>  <SCORE.INTER.SOLV>
17.1871

>  <SCORE.INTER.VDW>
-17.1007

>  <SCORE.INTER.norm>
-0.389004

>  <SCORE.INTRA>
-2.35413

>  <SCORE.INTRA.DIHEDRAL>
-3.83498

>  <SCORE.INTRA.DIHEDRAL.0>
16.2083

>  <SCORE.INTRA.POLAR>
0

>  <SCORE.INTRA.POLAR.0>
0

>  <SCORE.INTRA.REPUL>
0

>  <SCORE.INTRA.REPUL.0>
0

>  <SCORE.INTRA.SOLV>
0.334449

>  <SCORE.INTRA.SOLV.lig_0>
-89.8095

>  <SCORE.INTRA.VDW>
-0.603864

>  <SCORE.INTRA.VDW.0>
-3.19502

>  <SCORE.INTRA.norm>
-0.0636251

>  <SCORE.RESTR>
0.00201454

>  <SCORE.RESTR.CAVITY>
0.00201454

>  <SCORE.RESTR.norm>
5.4447e-05

>  <SCORE.SYSTEM>
0

>  <SCORE.SYSTEM.CONST>
0

>  <SCORE.SYSTEM.DIHEDRAL>
0

>  <SCORE.SYSTEM.SOLV>
0

>  <SCORE.SYSTEM.norm>
0

>  <SCORE.heavy>
37

>  <SCORE.norm>
-0.452575

>  <RMSD>
0.767

$$$$
2oe5_lig
 OpenBabel11021811463D
libRbt.so/2013.1/901 2013/11/27
 37 40  0  0  0  0  0  0  0  0999 V2000
   20.9319    1.3920   53.5297 C   0  0  1  0  0  0  0  0  0  0  0  0
   19.7585    1.8493   52.6345 C   0  0  1  0  0  0  0  0  0  0  0  0
   19.1364    0.5963   51.9134 C   0  0  0  0  0  0  0  0  0  0  0  0
   20.2929   -0.0186   51.0936 C   0  0  1  0  0  0  0  0  0  0  0  0
   21.4948   -0.4795   52.0314 C   0  0  1  0  0  0  0  0  0  0  0  0
   22.6657   -1.1076   51.2272 C   0  0  1  0  0  0  0  0  0  0  0  0
   22.0838   -2.3326   50.4659 C   0  0  1  0  0  0  0  0  0  0  0  0
   20.8719   -1.8409   49.5869 C   0  0  2  0  0  0  0  0  0  0  0  0
   24.1839   -3.8807   50.2298 C   0  0  0  0  0  0  0  0  0  0  0  0
   18.7203    2.5093   53.4592 N   0  0  0  0  0  0  0  0  0  0  0  0
   23.1516   -2.9770   49.6121 N   0  0  0  0  0  0  0  0  0  0  0  0
   20.4969    0.5088   54.5765 O   0  0  0  0  0  0  0  0  0  0  0  0
   21.9755    0.6935   52.7643 O   0  0  0  0  0  0  0  0  0  0  0  0
   19.8126   -1.1910   50.3827 O   0  0  0  0  0  0  0  0  0  0  0  0
   23.1666   -0.1129   50.3283 O   0  0  0  0  0  0  0  0  0  0  0  0
   20.2760   -2.9403   48.9270 O   0  0  0  0  0  0  0  0  0  0  0  0
   19.3808   -2.4848   47.9299 C   0  0  2  0  0  0  0  0  0  0  0  0
   18.1230   -3.3482   47.8406 C   0  0  1  0  0  0  0  0  0  0  0  0
   18.4673   -4.7969   47.3979 C   0  0  2  0  0  0  0  0  0  0  0  0
   19.2082   -4.7059   46.0309 C   0  0  1  0  0  0  0  0  0  0  0  0
   20.4990   -3.8461   46.2323 C   0  0  1  0  0  0  0  0  0  0  0  0
   21.2757   -3.6464   44.9500 C   0  0  0  0  0  0  0  0  0  0  0  0
   19.5452   -6.1115   45.5896 N   0  0  0  0  0  0  0  0  0  0  0  0
   20.0819   -2.5012   46.6469 O   0  0  0  0  0  0  0  0  0  0  0  0
   17.5010   -3.3435   49.1409 O   0  0  0  0  0  0  0  0  0  0  0  0
   17.2327   -5.5172   47.2301 O   0  0  0  0  0  0  0  0  0  0  0  0
   22.5531   -3.1617   45.1862 O   0  0  0  0  0  0  0  0  0  0  0  0
   21.3169    0.5386   55.7450 C   0  0  1  0  0  0  0  0  0  0  0  0
   20.7266    1.5566   56.7853 C   0  0  1  0  0  0  0  0  0  0  0  0
   21.6372    1.5617   58.0657 C   0  0  2  0  0  0  0  0  0  0  0  0
   21.6554    0.1546   58.6817 C   0  0  1  0  0  0  0  0  0  0  0  0
   22.2617   -0.8640   57.6410 C   0  0  0  0  0  0  0  0  0  0  0  0
   21.3568   -0.8597   56.3466 C   0  0  2  0  0  0  0  0  0  0  0  0
   22.4853    0.1773   59.8749 N   0  0  0  0  0  0  0  0  0  0  0  0
   21.9082   -1.7931   55.3294 N   0  0  0  0  0  0  0  0  0  0  0  0
   20.7068    2.8924   56.2051 O   0  0  0  0  0  0  0  0  0  0  0  0
   21.1030    2.4562   59.0052 O   0  0  0  0  0  0  0  0  0  0  0  0
  1  2  1  0  0  0  0
  1 12  1  1  0  0  0
  1 13  1  0  0  0  0
  2  3  1  0  0  0  0
  2 10  1  1  0  0  0
  4  3  1  1  0  0  0
  4  5  1  0  0  0  0
  4 14  1  0  0  0  0
  5  6  1  0  0  0  0
  5 13  1  6  0  0  0
  6  7  1  0  0  0  0
  6 15  1  6  0  0  0
  7  8  1  0  0  0  0
  7 11  1  6  0  0  0
  8 14  1  0  0  0  0
  8 16  1  1  0  0  0
  9 11  1  0  0  0  0
 17 16  1  1  0  0  0
 17 18  1  0  0  0  0
 17 24  1  0  0  0  0
 18 19  1  0  0  0  0
 18 25  1  1  0  0  0
 19 20  1  0  0  0  0
 19 26  1  6  0  0  0
 20 21  1  0  0  0  0
 20 23  1  1  0  0  0
 21 22  1  6  0  0  0
 21 24  1  0  0  0  0
 22 27  1  0  0  0  0
 28 12  1  6  0  0  0
 28 29  1  0  0  0  0
 28 33  1  0  0  0  0
 29 30  1  0  0  0  0
 29 36  1  6  0  0  0
 30 31  1  0  0  0  0
 30 37  1  1  0  0  0
 31 32  1  0  0  0  0
 31 34  1  1  0  0  0
 32 33  1  0  0  0  0
 33 35  1  6  0  0  0
M  END
>  <CHROM.1>
-152.56559218,78.43972351,-167.73618130,-141.80465387,-165.98985408,93.93132147
20.75621635,-1.27336717,51.59945083,1.44541349,-0.28722995,1.08088387

>  <Name>
2oe5_lig

>  <RI>
0

>  <Rbt.Current_Directory>
/home/itssahil/PROJECTS/Mol_Feturizer/New_Systems/rnas/2oe5

>  <Rbt.Executable>
rbdock ($Id: //depot/dev/client3/rdock/2013.1/src/exe/rbdock.cxx#4 $)

>  <Rbt.Library>
libRbt.so (2013.1, Build901 2013/11/27)

>  <Rbt.Parameter_File>
/export/apps/rDock/src/rDock_2013.1_src/data/scripts/dock_solv.prm

>  <Rbt.Receptor>
prm/pocket_docking_4.prm

>  <SCORE>
-17.5653

>  <SCORE.INTER>
-15.6359

>  <SCORE.INTER.CONST>
1

>  <SCORE.INTER.POLAR>
-1.50479

>  <SCORE.INTER.ROT>
6

>  <SCORE.INTER.SOLV>
17.5599

>  <SCORE.INTER.VDW>
-18.8613

>  <SCORE.INTER.norm>
-0.422593

>  <SCORE.INTRA>
-1.9294

>  <SCORE.INTRA.DIHEDRAL>
-1.97396

>  <SCORE.INTRA.DIHEDRAL.0>
16.2083

>  <SCORE.INTRA.POLAR>
0

>  <SCORE.INTRA.POLAR.0>
0

>  <SCORE.INTRA.REPUL>
0

>  <SCORE.INTRA.REPUL.0>
0

>  <SCORE.INTRA.SOLV>
-1.15288

>  <SCORE.INTRA.SOLV.lig_0>
-89.8095

>  <SCORE.INTRA.VDW>
-0.365981

>  <SCORE.INTRA.VDW.0>
-3.19502

>  <SCORE.INTRA.norm>
-0.0521459

>  <SCORE.RESTR>
0

>  <SCORE.RESTR.CAVITY>
0

>  <SCORE.RESTR.norm>
0

>  <SCORE.SYSTEM>
0

>  <SCORE.SYSTEM.CONST>
0

>  <SCORE.SYSTEM.DIHEDRAL>
0

>  <SCORE.SYSTEM.SOLV>
0

>  <SCORE.SYSTEM.norm>
0

>  <SCORE.heavy>
37

>  <SCORE.norm>
-0.474739

>  <RMSD>
0.770

$$$$
2oe5_lig
 OpenBabel11021811463D
libRbt.so/2013.1/901 2013/11/27
 37 40  0  0  0  0  0  0  0  0999 V2000
   20.7541    1.7185   53.6849 C   0  0  1  0  0  0  0  0  0  0  0  0
   19.6367    2.1792   52.7224 C   0  0  1  0  0  0  0  0  0  0  0  0
   18.9652    0.9172   52.0640 C   0  0  0  0  0  0  0  0  0  0  0  0
   20.1085    0.1851   51.3261 C   0  0  1  0  0  0  0  0  0  0  0  0
   21.2528   -0.2780   52.3323 C   0  0  1  0  0  0  0  0  0  0  0  0
   22.4092   -1.0230   51.6112 C   0  0  1  0  0  0  0  0  0  0  0  0
   21.7807   -2.2621   50.9124 C   0  0  1  0  0  0  0  0  0  0  0  0
   20.6264   -1.7639   49.9624 C   0  0  2  0  0  0  0  0  0  0  0  0
   22.7206   -4.5090   49.9477 C   0  0  0  0  0  0  0  0  0  0  0  0
   18.6141    2.9501   53.4663 N   0  0  0  0  0  0  0  0  0  0  0  0
   22.8347   -3.0210   50.1393 N   0  0  0  0  0  0  0  0  0  0  0  0
   20.2374    0.9334   54.7719 O   0  0  0  0  0  0  0  0  0  0  0  0
   21.7782    0.9131   53.0028 O   0  0  0  0  0  0  0  0  0  0  0  0
   19.5828   -1.0039   50.6775 O   0  0  0  0  0  0  0  0  0  0  0  0
   22.9937   -0.1205   50.6667 O   0  0  0  0  0  0  0  0  0  0  0  0
   19.9880   -2.8702   49.3560 O   0  0  0  0  0  0  0  0  0  0  0  0
   19.2098   -2.4417   48.2543 C   0  0  2  0  0  0  0  0  0  0  0  0
   18.0901   -3.4255   47.9167 C   0  0  1  0  0  0  0  0  0  0  0  0
   18.6650   -4.7933   47.4565 C   0  0  2  0  0  0  0  0  0  0  0  0
   19.5914   -4.5250   46.2336 C   0  0  1  0  0  0  0  0  0  0  0  0
   20.7268   -3.5494   46.6868 C   0  0  1  0  0  0  0  0  0  0  0  0
   21.6626   -3.1756   45.5590 C   0  0  0  0  0  0  0  0  0  0  0  0
   20.1540   -5.8510   45.7760 N   0  0  0  0  0  0  0  0  0  0  0  0
   20.0968   -2.2903   47.1019 O   0  0  0  0  0  0  0  0  0  0  0  0
   17.2794   -3.5814   49.0982 O   0  0  0  0  0  0  0  0  0  0  0  0
   17.5635   -5.6270   47.0531 O   0  0  0  0  0  0  0  0  0  0  0  0
   22.1446   -4.2916   44.8921 O   0  0  0  0  0  0  0  0  0  0  0  0
   21.1147    0.8400   55.8945 C   0  0  1  0  0  0  0  0  0  0  0  0
   20.6076    1.7782   57.0475 C   0  0  1  0  0  0  0  0  0  0  0  0
   21.5801    1.6482   58.2746 C   0  0  2  0  0  0  0  0  0  0  0  0
   21.5863    0.1927   58.7659 C   0  0  1  0  0  0  0  0  0  0  0  0
   22.1093   -0.7465   57.6116 C   0  0  0  0  0  0  0  0  0  0  0  0
   21.1421   -0.6060   56.3710 C   0  0  2  0  0  0  0  0  0  0  0  0
   22.4745    0.0898   59.9120 N   0  0  0  0  0  0  0  0  0  0  0  0
   21.6141   -1.4611   55.2502 N   0  0  0  0  0  0  0  0  0  0  0  0
   20.5994    3.1596   56.5859 O   0  0  0  0  0  0  0  0  0  0  0  0
   21.1203    2.4708   59.3139 O   0  0  0  0  0  0  0  0  0  0  0  0
  1  2  1  0  0  0  0
  1 12  1  1  0  0  0
  1 13  1  0  0  0  0
  2  3  1  0  0  0  0
  2 10  1  1  0  0  0
  4  3  1  1  0  0  0
  4  5  1  0  0  0  0
  4 14  1  0  0  0  0
  5  6  1  0  0  0  0
  5 13  1  6  0  0  0
  6  7  1  0  0  0  0
  6 15  1  6  0  0  0
  7  8  1  0  0  0  0
  7 11  1  6  0  0  0
  8 14  1  0  0  0  0
  8 16  1  1  0  0  0
  9 11  1  0  0  0  0
 17 16  1  1  0  0  0
 17 18  1  0  0  0  0
 17 24  1  0  0  0  0
 18 19  1  0  0  0  0
 18 25  1  1  0  0  0
 19 20  1  0  0  0  0
 19 26  1  6  0  0  0
 20 21  1  0  0  0  0
 20 23  1  1  0  0  0
 21 22  1  6  0  0  0
 21 24  1  0  0  0  0
 22 27  1  0  0  0  0
 28 12  1  6  0  0  0
 28 29  1  0  0  0  0
 28 33  1  0  0  0  0
 29 30  1  0  0  0  0
 29 36  1  6  0  0  0
 30 31  1  0  0  0  0
 30 37  1  1  0  0  0
 31 32  1  0  0  0  0
 31 34  1  1  0  0  0
 32 33  1  0  0  0  0
 33 35  1  6  0  0  0
M  END
>  <CHROM.1>
-161.10546217,149.96505652,-164.47714696,-156.81980051,-51.31565826,103.88697684
20.62691233,-1.18017576,51.78890589,1.43565956,-0.71487625,1.00085646

>  <Name>
2oe5_lig

>  <RI>
0

>  <Rbt.Current_Directory>
/home/itssahil/PROJECTS/Mol_Feturizer/New_Systems/rnas/2oe5

>  <Rbt.Executable>
rbdock ($Id: //depot/dev/client3/rdock/2013.1/src/exe/rbdock.cxx#4 $)

>  <Rbt.Library>
libRbt.so (2013.1, Build901 2013/11/27)

>  <Rbt.Parameter_File>
/export/apps/rDock/src/rDock_2013.1_src/data/scripts/dock_solv.prm

>  <Rbt.Receptor>
prm/pocket_docking_2.prm

>  <SCORE>
-16.257

>  <SCORE.INTER>
-13.9151

>  <SCORE.INTER.CONST>
1

>  <SCORE.INTER.POLAR>
-1.6374

>  <SCORE.INTER.ROT>
6

>  <SCORE.INTER.SOLV>
17.0079

>  <SCORE.INTER.VDW>
-17.088

>  <SCORE.INTER.norm>
-0.376083

>  <SCORE.INTRA>
-2.3735

>  <SCORE.INTRA.DIHEDRAL>
-4.20268

>  <SCORE.INTRA.DIHEDRAL.0>
16.2083

>  <SCORE.INTRA.POLAR>
0

>  <SCORE.INTRA.POLAR.0>
0

>  <SCORE.INTRA.REPUL>
0

>  <SCORE.INTRA.REPUL.0>
0

>  <SCORE.INTRA.SOLV>
0.575097

>  <SCORE.INTRA.SOLV.lig_0>
-89.8095

>  <SCORE.INTRA.VDW>
-0.559713

>  <SCORE.INTRA.VDW.0>
-3.19502

>  <SCORE.INTRA.norm>
-0.0641488

>  <SCORE.RESTR>
0.0315929

>  <SCORE.RESTR.CAVITY>
0.0315929

>  <SCORE.RESTR.norm>
0.000853862

>  <SCORE.SYSTEM>
0

>  <SCORE.SYSTEM.CONST>
0

>  <SCORE.SYSTEM.DIHEDRAL>
0

>  <SCORE.SYSTEM.SOLV>
0

>  <SCORE.SYSTEM.norm>
0

>  <SCORE.heavy>
37

>  <SCORE.norm>
-0.439378

>  <RMSD>
0.771

$$$$
2oe5_lig
 OpenBabel11021811463D
libRbt.so/2013.1/901 2013/11/27
 37 40  0  0  0  0  0  0  0  0999 V2000
   20.7832    1.7255   53.6576 C   0  0  1  0  0  0  0  0  0  0  0  0
   19.6460    2.1592   52.7057 C   0  0  1  0  0  0  0  0  0  0  0  0
   19.0251    0.8840   52.0234 C   0  0  0  0  0  0  0  0  0  0  0  0
   20.1956    0.2138   51.2698 C   0  0  1  0  0  0  0  0  0  0  0  0
   21.3599   -0.2220   52.2651 C   0  0  1  0  0  0  0  0  0  0  0  0
   22.5442   -0.9050   51.5280 C   0  0  1  0  0  0  0  0  0  0  0  0
   21.9652   -2.1546   50.8056 C   0  0  1  0  0  0  0  0  0  0  0  0
   20.7896   -1.6852   49.8671 C   0  0  2  0  0  0  0  0  0  0  0  0
   22.9519   -4.3278   49.7255 C   0  0  0  0  0  0  0  0  0  0  0  0
   18.5944    2.8729   53.4660 N   0  0  0  0  0  0  0  0  0  0  0  0
   23.0476   -2.8547   50.0164 N   0  0  0  0  0  0  0  0  0  0  0  0
   20.3011    0.8987   54.7295 O   0  0  0  0  0  0  0  0  0  0  0  0
   21.8378    0.9760   52.9584 O   0  0  0  0  0  0  0  0  0  0  0  0
   19.7175   -0.9826   50.5984 O   0  0  0  0  0  0  0  0  0  0  0  0
   23.0896    0.0390   50.6008 O   0  0  0  0  0  0  0  0  0  0  0  0
   20.1956   -2.8045   49.2398 O   0  0  0  0  0  0  0  0  0  0  0  0
   19.3551   -2.3827   48.1822 C   0  0  2  0  0  0  0  0  0  0  0  0
   18.1894   -3.3431   47.9486 C   0  0  1  0  0  0  0  0  0  0  0  0
   18.6952   -4.7378   47.4883 C   0  0  2  0  0  0  0  0  0  0  0  0
   19.5422   -4.5272   46.1983 C   0  0  1  0  0  0  0  0  0  0  0  0
   20.7312   -3.5725   46.5463 C   0  0  1  0  0  0  0  0  0  0  0  0
   21.5969   -3.2543   45.3477 C   0  0  0  0  0  0  0  0  0  0  0  0
   20.0370   -5.8798   45.7403 N   0  0  0  0  0  0  0  0  0  0  0  0
   20.1646   -2.2860   46.9684 O   0  0  0  0  0  0  0  0  0  0  0  0
   17.4579   -3.4457   49.1863 O   0  0  0  0  0  0  0  0  0  0  0  0
   17.5471   -5.5503   47.1838 O   0  0  0  0  0  0  0  0  0  0  0  0
   22.1254   -4.3985   44.7698 O   0  0  0  0  0  0  0  0  0  0  0  0
   21.1608    0.8581   55.8687 C   0  0  1  0  0  0  0  0  0  0  0  0
   20.6324    1.8438   56.9714 C   0  0  1  0  0  0  0  0  0  0  0  0
   21.5859    1.7715   58.2181 C   0  0  2  0  0  0  0  0  0  0  0  0
   21.5891    0.3390   58.7728 C   0  0  1  0  0  0  0  0  0  0  0  0
   22.1334   -0.6478   57.6691 C   0  0  0  0  0  0  0  0  0  0  0  0
   21.1854   -0.5656   56.4085 C   0  0  2  0  0  0  0  0  0  0  0  0
   22.4594    0.2899   59.9360 N   0  0  0  0  0  0  0  0  0  0  0  0
   21.6779   -1.4670   55.3339 N   0  0  0  0  0  0  0  0  0  0  0  0
   20.6271    3.2037   56.4496 O   0  0  0  0  0  0  0  0  0  0  0  0
   21.1070    2.6370   59.2130 O   0  0  0  0  0  0  0  0  0  0  0  0
  1  2  1  0  0  0  0
  1 12  1  1  0  0  0
  1 13  1  0  0  0  0
  2  3  1  0  0  0  0
  2 10  1  1  0  0  0
  4  3  1  1  0  0  0
  4  5  1  0  0  0  0
  4 14  1  0  0  0  0
  5  6  1  0  0  0  0
  5 13  1  6  0  0  0
  6  7  1  0  0  0  0
  6 15  1  6  0  0  0
  7  8  1  0  0  0  0
  7 11  1  6  0  0  0
  8 14  1  0  0  0  0
  8 16  1  1  0  0  0
  9 11  1  0  0  0  0
 17 16  1  1  0  0  0
 17 18  1  0  0  0  0
 17 24  1  0  0  0  0
 18 19  1  0  0  0  0
 18 25  1  1  0  0  0
 19 20  1  0  0  0  0
 19 26  1  6  0  0  0
 20 21  1  0  0  0  0
 20 23  1  1  0  0  0
 21 22  1  6  0  0  0
 21 24  1  0  0  0  0
 22 27  1  0  0  0  0
 28 12  1  6  0  0  0
 28 29  1  0  0  0  0
 28 33  1  0  0  0  0
 29 30  1  0  0  0  0
 29 36  1  6  0  0  0
 30 31  1  0  0  0  0
 30 37  1  1  0  0  0
 31 32  1  0  0  0  0
 31 34  1  1  0  0  0
 32 33  1  0  0  0  0
 33 35  1  6  0  0  0
M  END
>  <CHROM.1>
-158.93263754,153.63236669,-166.86367256,-150.35670581,-58.08756190,99.14396166
20.68787206,-1.12703414,51.73836767,1.45030672,-0.62720534,1.01783249

>  <Name>
2oe5_lig

>  <RI>
0

>  <Rbt.Current_Directory>
/home/itssahil/PROJECTS/Mol_Feturizer/New_Systems/rnas/2oe5

>  <Rbt.Executable>
rbdock ($Id: //depot/dev/client3/rdock/2013.1/src/exe/rbdock.cxx#4 $)

>  <Rbt.Library>
libRbt.so (2013.1, Build901 2013/11/27)

>  <Rbt.Parameter_File>
/export/apps/rDock/src/rDock_2013.1_src/data/scripts/dock_solv.prm

>  <Rbt.Receptor>
prm/pocket_docking_2.prm

>  <SCORE>
-16.7419

>  <SCORE.INTER>
-14.2081

>  <SCORE.INTER.CONST>
1

>  <SCORE.INTER.POLAR>
-1.73232

>  <SCORE.INTER.ROT>
6

>  <SCORE.INTER.SOLV>
16.8151

>  <SCORE.INTER.VDW>
-16.9027

>  <SCORE.INTER.norm>
-0.384004

>  <SCORE.INTRA>
-2.55251

>  <SCORE.INTRA.DIHEDRAL>
-4.06393

>  <SCORE.INTRA.DIHEDRAL.0>
16.2083

>  <SCORE.INTRA.POLAR>
0

>  <SCORE.INTRA.POLAR.0>
0

>  <SCORE.INTRA.REPUL>
0

>  <SCORE.INTRA.REPUL.0>
0

>  <SCORE.INTRA.SOLV>
0.118702

>  <SCORE.INTRA.SOLV.lig_0>
-89.8095

>  <SCORE.INTRA.VDW>
-0.579889

>  <SCORE.INTRA.VDW.0>
-3.19502

>  <SCORE.INTRA.norm>
-0.0689866

>  <SCORE.RESTR>
0.0187579

>  <SCORE.RESTR.CAVITY>
0.0187579

>  <SCORE.RESTR.norm>
0.00050697

>  <SCORE.SYSTEM>
0

>  <SCORE.SYSTEM.CONST>
0

>  <SCORE.SYSTEM.DIHEDRAL>
0

>  <SCORE.SYSTEM.SOLV>
0

>  <SCORE.SYSTEM.norm>
0

>  <SCORE.heavy>
37

>  <SCORE.norm>
-0.452483

>  <RMSD>
0.773

$$$$
2oe5_lig
 OpenBabel11021811463D
libRbt.so/2013.1/901 2013/11/27
 37 40  0  0  0  0  0  0  0  0999 V2000
   20.8109    1.5919   53.5957 C   0  0  1  0  0  0  0  0  0  0  0  0
   19.6314    1.9965   52.6834 C   0  0  1  0  0  0  0  0  0  0  0  0
   19.0679    0.7151   51.9640 C   0  0  0  0  0  0  0  0  0  0  0  0
   20.2575    0.1409   51.1625 C   0  0  1  0  0  0  0  0  0  0  0  0
   21.4652   -0.2659   52.1177 C   0  0  1  0  0  0  0  0  0  0  0  0
   22.6695   -0.8528   51.3320 C   0  0  1  0  0  0  0  0  0  0  0  0
   22.1456   -2.1048   50.5727 C   0  0  1  0  0  0  0  0  0  0  0  0
   20.9260   -1.6672   49.6759 C   0  0  2  0  0  0  0  0  0  0  0  0
   24.3153   -3.5595   50.3746 C   0  0  0  0  0  0  0  0  0  0  0  0
   18.5582    2.6206   53.4910 N   0  0  0  0  0  0  0  0  0  0  0  0
   23.2482   -2.7124   49.7362 N   0  0  0  0  0  0  0  0  0  0  0  0
   20.3984    0.6993   54.6437 O   0  0  0  0  0  0  0  0  0  0  0  0
   21.8904    0.9300   52.8478 O   0  0  0  0  0  0  0  0  0  0  0  0
   19.8323   -1.0543   50.4544 O   0  0  0  0  0  0  0  0  0  0  0  0
   23.1418    0.1548   50.4319 O   0  0  0  0  0  0  0  0  0  0  0  0
   20.3818   -2.7937   49.0169 O   0  0  0  0  0  0  0  0  0  0  0  0
   19.4461   -2.3822   48.0381 C   0  0  2  0  0  0  0  0  0  0  0  0
   18.2106   -3.2810   48.0020 C   0  0  1  0  0  0  0  0  0  0  0  0
   18.5818   -4.7282   47.5767 C   0  0  2  0  0  0  0  0  0  0  0  0
   19.2802   -4.6440   46.1871 C   0  0  1  0  0  0  0  0  0  0  0  0
   20.5521   -3.7458   46.3344 C   0  0  1  0  0  0  0  0  0  0  0  0
   21.2857   -3.5503   45.0263 C   0  0  0  0  0  0  0  0  0  0  0  0
   19.6431   -6.0484   45.7626 N   0  0  0  0  0  0  0  0  0  0  0  0
   20.1101   -2.4049   46.7357 O   0  0  0  0  0  0  0  0  0  0  0  0
   17.6263   -3.2676   49.3196 O   0  0  0  0  0  0  0  0  0  0  0  0
   17.3632   -5.4847   47.4587 O   0  0  0  0  0  0  0  0  0  0  0  0
   20.6782   -2.5932   44.2277 O   0  0  0  0  0  0  0  0  0  0  0  0
   21.1637    0.8132   55.8437 C   0  0  1  0  0  0  0  0  0  0  0  0
   20.5527    1.9312   56.7621 C   0  0  1  0  0  0  0  0  0  0  0  0
   21.4025    2.0284   58.0800 C   0  0  2  0  0  0  0  0  0  0  0  0
   21.3550    0.6806   58.8155 C   0  0  1  0  0  0  0  0  0  0  0  0
   21.9821   -0.4385   57.8975 C   0  0  0  0  0  0  0  0  0  0  0  0
   21.1388   -0.5275   56.5651 C   0  0  2  0  0  0  0  0  0  0  0  0
   22.1289    0.7894   60.0413 N   0  0  0  0  0  0  0  0  0  0  0  0
   21.7121   -1.5585   55.6605 N   0  0  0  0  0  0  0  0  0  0  0  0
   20.5951    3.2112   56.0683 O   0  0  0  0  0  0  0  0  0  0  0  0
   20.8490    3.0134   58.9116 O   0  0  0  0  0  0  0  0  0  0  0  0
  1  2  1  0  0  0  0
  1 12  1  1  0  0  0
  1 13  1  0  0  0  0
  2  3  1  0  0  0  0
  2 10  1  1  0  0  0
  4  3  1  1  0  0  0
  4  5  1  0  0  0  0
  4 14  1  0  0  0  0
  5  6  1  0  0  0  0
  5 13  1  6  0  0  0
  6  7  1  0  0  0  0
  6 15  1  6  0  0  0
  7  8  1  0  0  0  0
  7 11  1  6  0  0  0
  8 14  1  0  0  0  0
  8 16  1  1  0  0  0
  9 11  1  0  0  0  0
 17 16  1  1  0  0  0
 17 18  1  0  0  0  0
 17 24  1  0  0  0  0
 18 19  1  0  0  0  0
 18 25  1  1  0  0  0
 19 20  1  0  0  0  0
 19 26  1  6  0  0  0
 20 21  1  0  0  0  0
 20 23  1  1  0  0  0
 21 22  1  6  0  0  0
 21 24  1  0  0  0  0
 22 27  1  0  0  0  0
 28 12  1  6  0  0  0
 28 29  1  0  0  0  0
 28 33  1  0  0  0  0
 29 30  1  0  0  0  0
 29 36  1  6  0  0  0
 30 31  1  0  0  0  0
 30 37  1  1  0  0  0
 31 32  1  0  0  0  0
 31 34  1  1  0  0  0
 32 33  1  0  0  0  0
 33 35  1  6  0  0  0
M  END
>  <CHROM.1>
-149.81269052,77.84090097,-169.80020096,-139.43526106,79.26474560,87.11901184
20.65295833,-1.03942369,51.67015710,1.45373728,-0.37272075,1.06102725

>  <Name>
2oe5_lig

>  <RI>
0

>  <Rbt.Current_Directory>
/home/itssahil/PROJECTS/Mol_Feturizer/New_Systems/rnas/2oe5

>  <Rbt.Executable>
rbdock ($Id: //depot/dev/client3/rdock/2013.1/src/exe/rbdock.cxx#4 $)

>  <Rbt.Library>
libRbt.so (2013.1, Build901 2013/11/27)

>  <Rbt.Parameter_File>
/export/apps/rDock/src/rDock_2013.1_src/data/scripts/dock_solv.prm

>  <Rbt.Receptor>
prm/pocket_docking_2.prm

>  <SCORE>
-19.0859

>  <SCORE.INTER>
-17.9985

>  <SCORE.INTER.CONST>
1

>  <SCORE.INTER.POLAR>
-2.36478

>  <SCORE.INTER.ROT>
6

>  <SCORE.INTER.SOLV>
16.1401

>  <SCORE.INTER.VDW>
-17.0964

>  <SCORE.INTER.norm>
-0.486445

>  <SCORE.INTRA>
-1.3282

>  <SCORE.INTRA.DIHEDRAL>
-2.02872

>  <SCORE.INTRA.DIHEDRAL.0>
16.2083

>  <SCORE.INTRA.POLAR>
0

>  <SCORE.INTRA.POLAR.0>
0

>  <SCORE.INTRA.REPUL>
0

>  <SCORE.INTRA.REPUL.0>
0

>  <SCORE.INTRA.SOLV>
-1.0118

>  <SCORE.INTRA.SOLV.lig_0>
-89.8095

>  <SCORE.INTRA.VDW>
0.192065

>  <SCORE.INTRA.VDW.0>
-3.19502

>  <SCORE.INTRA.norm>
-0.0358973

>  <SCORE.RESTR>
0.240776

>  <SCORE.RESTR.CAVITY>
0.240776

>  <SCORE.RESTR.norm>
0.00650747

>  <SCORE.SYSTEM>
0

>  <SCORE.SYSTEM.CONST>
0

>  <SCORE.SYSTEM.DIHEDRAL>
0

>  <SCORE.SYSTEM.SOLV>
0

>  <SCORE.SYSTEM.norm>
0

>  <SCORE.heavy>
37

>  <SCORE.norm>
-0.515835

>  <RMSD>
0.782

$$$$
2oe5_lig
 OpenBabel11021811463D
libRbt.so/2013.1/901 2013/11/27
 37 40  0  0  0  0  0  0  0  0999 V2000
   20.7862    1.1699   53.6606 C   0  0  1  0  0  0  0  0  0  0  0  0
   19.6512    1.6605   52.7342 C   0  0  1  0  0  0  0  0  0  0  0  0
   19.0642    0.4360   51.9385 C   0  0  0  0  0  0  0  0  0  0  0  0
   20.2566   -0.1451   51.1461 C   0  0  1  0  0  0  0  0  0  0  0  0
   21.4183   -0.6410   52.1161 C   0  0  1  0  0  0  0  0  0  0  0  0
   22.6245   -1.2358   51.3393 C   0  0  1  0  0  0  0  0  0  0  0  0
   22.0794   -2.4308   50.5064 C   0  0  1  0  0  0  0  0  0  0  0  0
   20.9051   -1.9064   49.5958 C   0  0  2  0  0  0  0  0  0  0  0  0
   24.1707   -3.9939   50.2930 C   0  0  0  0  0  0  0  0  0  0  0  0
   18.5766    2.2867   53.5384 N   0  0  0  0  0  0  0  0  0  0  0  0
   23.1847   -3.0402   49.6749 N   0  0  0  0  0  0  0  0  0  0  0  0
   20.3091    0.2460   54.6524 O   0  0  0  0  0  0  0  0  0  0  0  0
   21.8637    0.5031   52.9143 O   0  0  0  0  0  0  0  0  0  0  0  0
   19.8106   -1.2893   50.3699 O   0  0  0  0  0  0  0  0  0  0  0  0
   23.1609   -0.2063   50.5023 O   0  0  0  0  0  0  0  0  0  0  0  0
   20.3412   -2.9799   48.8685 O   0  0  0  0  0  0  0  0  0  0  0  0
   19.4548   -2.4883   47.8806 C   0  0  2  0  0  0  0  0  0  0  0  0
   18.1730   -3.3152   47.7875 C   0  0  1  0  0  0  0  0  0  0  0  0
   18.4746   -4.7678   47.3271 C   0  0  2  0  0  0  0  0  0  0  0  0
   19.2119   -4.6823   45.9579 C   0  0  1  0  0  0  0  0  0  0  0  0
   20.5272   -3.8612   46.1629 C   0  0  1  0  0  0  0  0  0  0  0  0
   21.3036   -3.6688   44.8793 C   0  0  0  0  0  0  0  0  0  0  0  0
   19.5075   -6.0917   45.4994 N   0  0  0  0  0  0  0  0  0  0  0  0
   20.1497   -2.5100   46.5943 O   0  0  0  0  0  0  0  0  0  0  0  0
   17.5569   -3.3077   49.0906 O   0  0  0  0  0  0  0  0  0  0  0  0
   17.2196   -5.4514   47.1571 O   0  0  0  0  0  0  0  0  0  0  0  0
   22.5758   -3.1685   45.1114 O   0  0  0  0  0  0  0  0  0  0  0  0
   20.8152    0.4853   55.9659 C   0  0  1  0  0  0  0  0  0  0  0  0
   19.8610    1.4680   56.7346 C   0  0  1  0  0  0  0  0  0  0  0  0
   20.4309    1.7050   58.1794 C   0  0  2  0  0  0  0  0  0  0  0  0
   20.4934    0.3645   58.9270 C   0  0  1  0  0  0  0  0  0  0  0  0
   21.4631   -0.6164   58.1617 C   0  0  0  0  0  0  0  0  0  0  0  0
   20.9007   -0.8441   56.7035 C   0  0  2  0  0  0  0  0  0  0  0  0
   21.0041    0.6001   60.2675 N   0  0  0  0  0  0  0  0  0  0  0  0
   21.8004   -1.7480   55.9397 N   0  0  0  0  0  0  0  0  0  0  0  0
   19.7982    2.7405   56.0288 O   0  0  0  0  0  0  0  0  0  0  0  0
   19.5716    2.5679   58.8760 O   0  0  0  0  0  0  0  0  0  0  0  0
  1  2  1  0  0  0  0
  1 12  1  1  0  0  0
  1 13  1  0  0  0  0
  2  3  1  0  0  0  0
  2 10  1  1  0  0  0
  4  3  1  1  0  0  0
  4  5  1  0  0  0  0
  4 14  1  0  0  0  0
  5  6  1  0  0  0  0
  5 13  1  6  0  0  0
  6  7  1  0  0  0  0
  6 15  1  6  0  0  0
  7  8  1  0  0  0  0
  7 11  1  6  0  0  0
  8 14  1  0  0  0  0
  8 16  1  1  0  0  0
  9 11  1  0  0  0  0
 17 16  1  1  0  0  0
 17 18  1  0  0  0  0
 17 24  1  0  0  0  0
 18 19  1  0  0  0  0
 18 25  1  1  0  0  0
 19 20  1  0  0  0  0
 19 26  1  6  0  0  0
 20 21  1  0  0  0  0
 20 23  1  1  0  0  0
 21 22  1  6  0  0  0
 21 24  1  0  0  0  0
 22 27  1  0  0  0  0
 28 12  1  6  0  0  0
 28 29  1  0  0  0  0
 28 33  1  0  0  0  0
 29 30  1  0  0  0  0
 29 36  1  6  0  0  0
 30 31  1  0  0  0  0
 30 37  1  1  0  0  0
 31 32  1  0  0  0  0
 31 34  1  1  0  0  0
 32 33  1  0  0  0  0
 33 35  1  6  0  0  0
M  END
>  <CHROM.1>
-135.70427683,80.02486463,-169.63681793,-138.02824001,-168.56383360,89.87557987
20.49974665,-1.30626367,51.66249063,-1.53548328,0.12431071,-2.01914478

>  <Name>
2oe5_lig

>  <RI>
0

>  <Rbt.Current_Directory>
/home/itssahil/PROJECTS/Mol_Feturizer/New_Systems/rnas/2oe5

>  <Rbt.Executable>
rbdock ($Id: //depot/dev/client3/rdock/2013.1/src/exe/rbdock.cxx#4 $)

>  <Rbt.Library>
libRbt.so (2013.1, Build901 2013/11/27)

>  <Rbt.Parameter_File>
/export/apps/rDock/src/rDock_2013.1_src/data/scripts/dock_solv.prm

>  <Rbt.Receptor>
prm/pocket_docking_3.prm

>  <SCORE>
-16.4625

>  <SCORE.INTER>
-16.0441

>  <SCORE.INTER.CONST>
1

>  <SCORE.INTER.POLAR>
-1.33881

>  <SCORE.INTER.ROT>
6

>  <SCORE.INTER.SOLV>
16.8108

>  <SCORE.INTER.VDW>
-19.437

>  <SCORE.INTER.norm>
-0.433625

>  <SCORE.INTRA>
-0.418398

>  <SCORE.INTRA.DIHEDRAL>
0.4022

>  <SCORE.INTRA.DIHEDRAL.0>
16.2083

>  <SCORE.INTRA.POLAR>
0

>  <SCORE.INTRA.POLAR.0>
0

>  <SCORE.INTRA.REPUL>
0

>  <SCORE.INTRA.REPUL.0>
0

>  <SCORE.INTRA.SOLV>
-0.972738

>  <SCORE.INTRA.SOLV.lig_0>
-89.8095

>  <SCORE.INTRA.VDW>
-0.133129

>  <SCORE.INTRA.VDW.0>
-3.19502

>  <SCORE.INTRA.norm>
-0.0113081

>  <SCORE.RESTR>
0

>  <SCORE.RESTR.CAVITY>
0

>  <SCORE.RESTR.norm>
0

>  <SCORE.SYSTEM>
0

>  <SCORE.SYSTEM.CONST>
0

>  <SCORE.SYSTEM.DIHEDRAL>
0

>  <SCORE.SYSTEM.SOLV>
0

>  <SCORE.SYSTEM.norm>
0

>  <SCORE.heavy>
37

>  <SCORE.norm>
-0.444933

>  <RMSD>
0.793

$$$$
2oe5_lig
 OpenBabel11021811463D
libRbt.so/2013.1/901 2013/11/27
 37 40  0  0  0  0  0  0  0  0999 V2000
   20.8565    1.4517   53.5842 C   0  0  1  0  0  0  0  0  0  0  0  0
   19.6956    1.9045   52.6706 C   0  0  1  0  0  0  0  0  0  0  0  0
   19.0774    0.6467   51.9543 C   0  0  0  0  0  0  0  0  0  0  0  0
   20.2413    0.0197   51.1545 C   0  0  1  0  0  0  0  0  0  0  0  0
   21.4302   -0.4363   52.1109 C   0  0  1  0  0  0  0  0  0  0  0  0
   22.6082   -1.0765   51.3269 C   0  0  1  0  0  0  0  0  0  0  0  0
   22.0309   -2.3067   50.5707 C   0  0  1  0  0  0  0  0  0  0  0  0
   20.8314   -1.8193   49.6725 C   0  0  2  0  0  0  0  0  0  0  0  0
   23.0492   -4.4364   49.4347 C   0  0  0  0  0  0  0  0  0  0  0  0
   18.6501    2.5763   53.4764 N   0  0  0  0  0  0  0  0  0  0  0  0
   23.1064   -2.9634   49.7359 N   0  0  0  0  0  0  0  0  0  0  0  0
   20.4058    0.5804   54.6342 O   0  0  0  0  0  0  0  0  0  0  0  0
   21.9065    0.7420   52.8381 O   0  0  0  0  0  0  0  0  0  0  0  0
   19.7651   -1.1578   50.4493 O   0  0  0  0  0  0  0  0  0  0  0  0
   23.1235   -0.0925   50.4245 O   0  0  0  0  0  0  0  0  0  0  0  0
   20.2393   -2.9229   49.0163 O   0  0  0  0  0  0  0  0  0  0  0  0
   19.3416   -2.4738   48.0185 C   0  0  2  0  0  0  0  0  0  0  0  0
   18.1066   -3.3667   47.9042 C   0  0  1  0  0  0  0  0  0  0  0  0
   18.4907   -4.7990   47.4417 C   0  0  2  0  0  0  0  0  0  0  0  0
   19.2408   -4.6677   46.0831 C   0  0  1  0  0  0  0  0  0  0  0  0
   20.5080   -3.7794   46.3097 C   0  0  1  0  0  0  0  0  0  0  0  0
   21.2905   -3.5399   45.0377 C   0  0  0  0  0  0  0  0  0  0  0  0
   19.6167   -6.0572   45.6226 N   0  0  0  0  0  0  0  0  0  0  0  0
   20.0539   -2.4522   46.7418 O   0  0  0  0  0  0  0  0  0  0  0  0
   17.4735   -3.3983   49.1987 O   0  0  0  0  0  0  0  0  0  0  0  0
   17.2760   -5.5469   47.2514 O   0  0  0  0  0  0  0  0  0  0  0  0
   20.6487   -2.6469   44.1932 O   0  0  0  0  0  0  0  0  0  0  0  0
   21.2366    0.5859   55.7955 C   0  0  1  0  0  0  0  0  0  0  0  0
   20.6442    1.5657   56.8707 C   0  0  1  0  0  0  0  0  0  0  0  0
   21.5668    1.5444   58.1422 C   0  0  2  0  0  0  0  0  0  0  0  0
   21.6076    0.1202   58.7164 C   0  0  1  0  0  0  0  0  0  0  0  0
   22.2160   -0.8601   57.6407 C   0  0  0  0  0  0  0  0  0  0  0  0
   21.2988   -0.8288   56.3553 C   0  0  2  0  0  0  0  0  0  0  0  0
   22.4486    0.1180   59.9021 N   0  0  0  0  0  0  0  0  0  0  0  0
   21.8515   -1.7253   55.3061 N   0  0  0  0  0  0  0  0  0  0  0  0
   20.6030    2.9176   56.3302 O   0  0  0  0  0  0  0  0  0  0  0  0
   21.0311    2.4045   59.1125 O   0  0  0  0  0  0  0  0  0  0  0  0
  1  2  1  0  0  0  0
  1 12  1  1  0  0  0
  1 13  1  0  0  0  0
  2  3  1  0  0  0  0
  2 10  1  1  0  0  0
  4  3  1  1  0  0  0
  4  5  1  0  0  0  0
  4 14  1  0  0  0  0
  5  6  1  0  0  0  0
  5 13  1  6  0  0  0
  6  7  1  0  0  0  0
  6 15  1  6  0  0  0
  7  8  1  0  0  0  0
  7 11  1  6  0  0  0
  8 14  1  0  0  0  0
  8 16  1  1  0  0  0
  9 11  1  0  0  0  0
 17 16  1  1  0  0  0
 17 18  1  0  0  0  0
 17 24  1  0  0  0  0
 18 19  1  0  0  0  0
 18 25  1  1  0  0  0
 19 20  1  0  0  0  0
 19 26  1  6  0  0  0
 20 21  1  0  0  0  0
 20 23  1  1  0  0  0
 21 22  1  6  0  0  0
 21 24  1  0  0  0  0
 22 27  1  0  0  0  0
 28 12  1  6  0  0  0
 28 29  1  0  0  0  0
 28 33  1  0  0  0  0
 29 30  1  0  0  0  0
 29 36  1  6  0  0  0
 30 31  1  0  0  0  0
 30 37  1  1  0  0  0
 31 32  1  0  0  0  0
 31 34  1  1  0  0  0
 32 33  1  0  0  0  0
 33 35  1  6  0  0  0
M  END
>  <CHROM.1>
-154.50735066,151.43105047,-168.66518868,-143.51444807,73.51011759,96.76972553
20.62677210,-1.25144894,51.60600153,1.40272251,-0.70209558,1.01552424

>  <Name>
2oe5_lig

>  <RI>
0

>  <Rbt.Current_Directory>
/home/itssahil/PROJECTS/Mol_Feturizer/New_Systems/rnas/2oe5

>  <Rbt.Executable>
rbdock ($Id: //depot/dev/client3/rdock/2013.1/src/exe/rbdock.cxx#4 $)

>  <Rbt.Library>
libRbt.so (2013.1, Build901 2013/11/27)

>  <Rbt.Parameter_File>
/export/apps/rDock/src/rDock_2013.1_src/data/scripts/dock_solv.prm

>  <Rbt.Receptor>
prm/pocket_docking_2.prm

>  <SCORE>
-18.9795

>  <SCORE.INTER>
-17.4324

>  <SCORE.INTER.CONST>
1

>  <SCORE.INTER.POLAR>
-2.11638

>  <SCORE.INTER.ROT>
6

>  <SCORE.INTER.SOLV>
17.3423

>  <SCORE.INTER.VDW>
-17.9477

>  <SCORE.INTER.norm>
-0.471145

>  <SCORE.INTRA>
-1.76388

>  <SCORE.INTRA.DIHEDRAL>
-1.96282

>  <SCORE.INTRA.DIHEDRAL.0>
16.2083

>  <SCORE.INTRA.POLAR>
0

>  <SCORE.INTRA.POLAR.0>
0

>  <SCORE.INTRA.REPUL>
0

>  <SCORE.INTRA.REPUL.0>
0

>  <SCORE.INTRA.SOLV>
-0.543432

>  <SCORE.INTRA.SOLV.lig_0>
-89.8095

>  <SCORE.INTRA.VDW>
-0.510756

>  <SCORE.INTRA.VDW.0>
-3.19502

>  <SCORE.INTRA.norm>
-0.0476725

>  <SCORE.RESTR>
0.216789

>  <SCORE.RESTR.CAVITY>
0.216789

>  <SCORE.RESTR.norm>
0.00585915

>  <SCORE.SYSTEM>
0

>  <SCORE.SYSTEM.CONST>
0

>  <SCORE.SYSTEM.DIHEDRAL>
0

>  <SCORE.SYSTEM.SOLV>
0

>  <SCORE.SYSTEM.norm>
0

>  <SCORE.heavy>
37

>  <SCORE.norm>
-0.512958

>  <RMSD>
0.811

$$$$
2oe5_lig
 OpenBabel11021811463D
libRbt.so/2013.1/901 2013/11/27
 37 40  0  0  0  0  0  0  0  0999 V2000
   20.7586    1.8059   53.6239 C   0  0  1  0  0  0  0  0  0  0  0  0
   19.5912    2.1773   52.6822 C   0  0  1  0  0  0  0  0  0  0  0  0
   19.0285    0.8693   52.0116 C   0  0  0  0  0  0  0  0  0  0  0  0
   20.2237    0.2557   51.2484 C   0  0  1  0  0  0  0  0  0  0  0  0
   21.4187   -0.1162   52.2332 C   0  0  1  0  0  0  0  0  0  0  0  0
   22.6284   -0.7417   51.4864 C   0  0  1  0  0  0  0  0  0  0  0  0
   22.1060   -2.0223   50.7751 C   0  0  1  0  0  0  0  0  0  0  0  0
   20.8985   -1.6172   49.8472 C   0  0  2  0  0  0  0  0  0  0  0  0
   23.1920   -4.1482   49.6964 C   0  0  0  0  0  0  0  0  0  0  0  0
   18.5126    2.8404   53.4507 N   0  0  0  0  0  0  0  0  0  0  0  0
   23.2143   -2.6702   49.9774 N   0  0  0  0  0  0  0  0  0  0  0  0
   20.3299    0.9607   54.7040 O   0  0  0  0  0  0  0  0  0  0  0  0
   21.8425    1.1076   52.9166 O   0  0  0  0  0  0  0  0  0  0  0  0
   19.7998   -0.9664   50.5869 O   0  0  0  0  0  0  0  0  0  0  0  0
   23.1158    0.2244   50.5498 O   0  0  0  0  0  0  0  0  0  0  0  0
   20.3555   -2.7679   49.2306 O   0  0  0  0  0  0  0  0  0  0  0  0
   19.5083   -2.3947   48.1601 C   0  0  2  0  0  0  0  0  0  0  0  0
   18.3120   -3.3341   48.0118 C   0  0  1  0  0  0  0  0  0  0  0  0
   18.7698   -4.7712   47.6403 C   0  0  2  0  0  0  0  0  0  0  0  0
   19.5991   -4.6740   46.3255 C   0  0  1  0  0  0  0  0  0  0  0  0
   20.8206   -3.7331   46.5880 C   0  0  1  0  0  0  0  0  0  0  0  0
   21.6731   -3.5229   45.3565 C   0  0  0  0  0  0  0  0  0  0  0  0
   20.0472   -6.0686   45.9535 N   0  0  0  0  0  0  0  0  0  0  0  0
   20.2981   -2.4047   46.9297 O   0  0  0  0  0  0  0  0  0  0  0  0
   17.6003   -3.3305   49.2653 O   0  0  0  0  0  0  0  0  0  0  0  0
   17.5940   -5.5685   47.4108 O   0  0  0  0  0  0  0  0  0  0  0  0
   20.9346   -3.0313   44.2909 O   0  0  0  0  0  0  0  0  0  0  0  0
   21.1756    1.0069   55.8536 C   0  0  1  0  0  0  0  0  0  0  0  0
   20.6892    2.1381   56.8287 C   0  0  1  0  0  0  0  0  0  0  0  0
   21.6257    2.1603   58.0900 C   0  0  2  0  0  0  0  0  0  0  0  0
   21.5486    0.8024   58.8040 C   0  0  1  0  0  0  0  0  0  0  0  0
   22.0508   -0.3307   57.8283 C   0  0  0  0  0  0  0  0  0  0  0  0
   21.1204   -0.3450   56.5522 C   0  0  2  0  0  0  0  0  0  0  0  0
   22.4041    0.8425   59.9786 N   0  0  0  0  0  0  0  0  0  0  0  0
   21.5750   -1.3874   55.5948 N   0  0  0  0  0  0  0  0  0  0  0  0
   20.7601    3.4277   56.1555 O   0  0  0  0  0  0  0  0  0  0  0  0
   21.1835    3.1573   58.9725 O   0  0  0  0  0  0  0  0  0  0  0  0
  1  2  1  0  0  0  0
  1 12  1  1  0  0  0
  1 13  1  0  0  0  0
  2  3  1  0  0  0  0
  2 10  1  1  0  0  0
  4  3  1  1  0  0  0
  4  5  1  0  0  0  0
  4 14  1  0  0  0  0
  5  6  1  0  0  0  0
  5 13  1  6  0  0  0
  6  7  1  0  0  0  0
  6 15  1  6  0  0  0
  7  8  1  0  0  0  0
  7 11  1  6  0  0  0
  8 14  1  0  0  0  0
  8 16  1  1  0  0  0
  9 11  1  0  0  0  0
 17 16  1  1  0  0  0
 17 18  1  0  0  0  0
 17 24  1  0  0  0  0
 18 19  1  0  0  0  0
 18 25  1  1  0  0  0
 19 20  1  0  0  0  0
 19 26  1  6  0  0  0
 20 21  1  0  0  0  0
 20 23  1  1  0  0  0
 21 22  1  6  0  0  0
 21 24  1  0  0  0  0
 22 27  1  0  0  0  0
 28 12  1  6  0  0  0
 28 29  1  0  0  0  0
 28 33  1  0  0  0  0
 29 30  1  0  0  0  0
 29 36  1  6  0  0  0
 30 31  1  0  0  0  0
 30 37  1  1  0  0  0
 31 32  1  0  0  0  0
 31 34  1  1  0  0  0
 32 33  1  0  0  0  0
 33 35  1  6  0  0  0
M  END
>  <CHROM.1>
-156.71505329,153.47771881,-165.50244728,-145.10316130,56.09779610,89.75445754
20.70307542,-0.98391480,51.72824220,1.43659388,-0.70428127,0.98729541

>  <Name>
2oe5_lig

>  <RI>
0

>  <Rbt.Current_Directory>
/home/itssahil/PROJECTS/Mol_Feturizer/New_Systems/rnas/2oe5

>  <Rbt.Executable>
rbdock ($Id: //depot/dev/client3/rdock/2013.1/src/exe/rbdock.cxx#4 $)

>  <Rbt.Library>
libRbt.so (2013.1, Build901 2013/11/27)

>  <Rbt.Parameter_File>
/export/apps/rDock/src/rDock_2013.1_src/data/scripts/dock_solv.prm

>  <Rbt.Receptor>
prm/pocket_docking_2.prm

>  <SCORE>
-17.2355

>  <SCORE.INTER>
-14.2659

>  <SCORE.INTER.CONST>
1

>  <SCORE.INTER.POLAR>
-1.67184

>  <SCORE.INTER.ROT>
6

>  <SCORE.INTER.SOLV>
15.6978

>  <SCORE.INTER.VDW>
-16.7704

>  <SCORE.INTER.norm>
-0.385566

>  <SCORE.INTRA>
-2.96958

>  <SCORE.INTRA.DIHEDRAL>
-4.19134

>  <SCORE.INTRA.DIHEDRAL.0>
16.2083

>  <SCORE.INTRA.POLAR>
0

>  <SCORE.INTRA.POLAR.0>
0

>  <SCORE.INTRA.REPUL>
0

>  <SCORE.INTRA.REPUL.0>
0

>  <SCORE.INTRA.SOLV>
-0.697405

>  <SCORE.INTRA.SOLV.lig_0>
-89.8095

>  <SCORE.INTRA.VDW>
-0.525212

>  <SCORE.INTRA.VDW.0>
-3.19502

>  <SCORE.INTRA.norm>
-0.0802591

>  <SCORE.RESTR>
0

>  <SCORE.RESTR.CAVITY>
0

>  <SCORE.RESTR.norm>
0

>  <SCORE.SYSTEM>
0

>  <SCORE.SYSTEM.CONST>
0

>  <SCORE.SYSTEM.DIHEDRAL>
0

>  <SCORE.SYSTEM.SOLV>
0

>  <SCORE.SYSTEM.norm>
0

>  <SCORE.heavy>
37

>  <SCORE.norm>
-0.465825

>  <RMSD>
0.819

$$$$
2oe5_lig
 OpenBabel11021811463D
libRbt.so/2013.1/901 2013/11/27
 37 40  0  0  0  0  0  0  0  0999 V2000
   20.8247    1.5871   53.5788 C   0  0  1  0  0  0  0  0  0  0  0  0
   19.6415    1.9943   52.6724 C   0  0  1  0  0  0  0  0  0  0  0  0
   19.0691    0.7135   51.9588 C   0  0  0  0  0  0  0  0  0  0  0  0
   20.2520    0.1332   51.1518 C   0  0  1  0  0  0  0  0  0  0  0  0
   21.4636   -0.2761   52.1009 C   0  0  1  0  0  0  0  0  0  0  0  0
   22.6613   -0.8690   51.3096 C   0  0  1  0  0  0  0  0  0  0  0  0
   22.1284   -2.1207   50.5559 C   0  0  1  0  0  0  0  0  0  0  0  0
   20.9054   -1.6804   49.6651 C   0  0  2  0  0  0  0  0  0  0  0  0
   24.4129   -3.3885   50.3641 C   0  0  0  0  0  0  0  0  0  0  0  0
   18.5751    2.6240   53.4847 N   0  0  0  0  0  0  0  0  0  0  0  0
   23.2240   -2.7341   49.7144 N   0  0  0  0  0  0  0  0  0  0  0  0
   20.4148    0.6983   54.6309 O   0  0  0  0  0  0  0  0  0  0  0  0
   21.8974    0.9197   52.8261 O   0  0  0  0  0  0  0  0  0  0  0  0
   19.8184   -1.0619   50.4485 O   0  0  0  0  0  0  0  0  0  0  0  0
   23.1321    0.1349   50.4048 O   0  0  0  0  0  0  0  0  0  0  0  0
   20.3533   -2.8062   49.0116 O   0  0  0  0  0  0  0  0  0  0  0  0
   19.4274   -2.3926   48.0244 C   0  0  2  0  0  0  0  0  0  0  0  0
   18.1956   -3.2955   47.9691 C   0  0  1  0  0  0  0  0  0  0  0  0
   18.5768   -4.7390   47.5401 C   0  0  2  0  0  0  0  0  0  0  0  0
   19.2908   -4.6446   46.1591 C   0  0  1  0  0  0  0  0  0  0  0  0
   20.5577   -3.7427   46.3260 C   0  0  1  0  0  0  0  0  0  0  0  0
   21.3055   -3.5373   45.0275 C   0  0  0  0  0  0  0  0  0  0  0  0
   19.6636   -6.0453   45.7311 N   0  0  0  0  0  0  0  0  0  0  0  0
   20.1064   -2.4056   46.7296 O   0  0  0  0  0  0  0  0  0  0  0  0
   17.5962   -3.2915   49.2800 O   0  0  0  0  0  0  0  0  0  0  0  0
   17.3624   -5.4991   47.4040 O   0  0  0  0  0  0  0  0  0  0  0  0
   20.6802   -2.6092   44.2088 O   0  0  0  0  0  0  0  0  0  0  0  0
   21.1799    0.8199   55.8303 C   0  0  1  0  0  0  0  0  0  0  0  0
   20.6442    2.0236   56.6852 C   0  0  1  0  0  0  0  0  0  0  0  0
   21.4918    2.1286   58.0039 C   0  0  2  0  0  0  0  0  0  0  0  0
   21.3459    0.8270   58.8066 C   0  0  1  0  0  0  0  0  0  0  0  0
   21.8975   -0.3788   57.9523 C   0  0  0  0  0  0  0  0  0  0  0  0
   21.0571   -0.4770   56.6187 C   0  0  2  0  0  0  0  0  0  0  0  0
   22.1190    0.9442   60.0320 N   0  0  0  0  0  0  0  0  0  0  0  0
   21.5612   -1.5907   55.7728 N   0  0  0  0  0  0  0  0  0  0  0  0
   20.7800    3.2601   55.9276 O   0  0  0  0  0  0  0  0  0  0  0  0
   21.0045    3.1913   58.7794 O   0  0  0  0  0  0  0  0  0  0  0  0
  1  2  1  0  0  0  0
  1 12  1  1  0  0  0
  1 13  1  0  0  0  0
  2  3  1  0  0  0  0
  2 10  1  1  0  0  0
  4  3  1  1  0  0  0
  4  5  1  0  0  0  0
  4 14  1  0  0  0  0
  5  6  1  0  0  0  0
  5 13  1  6  0  0  0
  6  7  1  0  0  0  0
  6 15  1  6  0  0  0
  7  8  1  0  0  0  0
  7 11  1  6  0  0  0
  8 14  1  0  0  0  0
  8 16  1  1  0  0  0
  9 11  1  0  0  0  0
 17 16  1  1  0  0  0
 17 18  1  0  0  0  0
 17 24  1  0  0  0  0
 18 19  1  0  0  0  0
 18 25  1  1  0  0  0
 19 20  1  0  0  0  0
 19 26  1  6  0  0  0
 20 21  1  0  0  0  0
 20 23  1  1  0  0  0
 21 22  1  6  0  0  0
 21 24  1  0  0  0  0
 22 27  1  0  0  0  0
 28 12  1  6  0  0  0
 28 29  1  0  0  0  0
 28 33  1  0  0  0  0
 29 30  1  0  0  0  0
 29 36  1  6  0  0  0
 30 31  1  0  0  0  0
 30 37  1  1  0  0  0
 31 32  1  0  0  0  0
 31 34  1  1  0  0  0
 32 33  1  0  0  0  0
 33 35  1  6  0  0  0
M  END
>  <CHROM.1>
-149.30045292,67.63192853,-168.98544692,-140.57920042,77.33265319,82.14076068
20.65998482,-1.01881270,51.64958070,1.45325025,-0.28791480,1.06403199

>  <Name>
2oe5_lig

>  <RI>
0

>  <Rbt.Current_Directory>
/home/itssahil/PROJECTS/Mol_Feturizer/New_Systems/rnas/2oe5

>  <Rbt.Executable>
rbdock ($Id: //depot/dev/client3/rdock/2013.1/src/exe/rbdock.cxx#4 $)

>  <Rbt.Library>
libRbt.so (2013.1, Build901 2013/11/27)

>  <Rbt.Parameter_File>
/export/apps/rDock/src/rDock_2013.1_src/data/scripts/dock_solv.prm

>  <Rbt.Receptor>
prm/pocket_docking_2.prm

>  <SCORE>
-19.2131

>  <SCORE.INTER>
-17.6401

>  <SCORE.INTER.CONST>
1

>  <SCORE.INTER.POLAR>
-2.31874

>  <SCORE.INTER.ROT>
6

>  <SCORE.INTER.SOLV>
16.312

>  <SCORE.INTER.VDW>
-17.0683

>  <SCORE.INTER.norm>
-0.476759

>  <SCORE.INTRA>
-1.80498

>  <SCORE.INTRA.DIHEDRAL>
-3.35035

>  <SCORE.INTRA.DIHEDRAL.0>
16.2083

>  <SCORE.INTRA.POLAR>
0

>  <SCORE.INTRA.POLAR.0>
0

>  <SCORE.INTRA.REPUL>
0

>  <SCORE.INTRA.REPUL.0>
0

>  <SCORE.INTRA.SOLV>
-1.18386

>  <SCORE.INTRA.SOLV.lig_0>
-89.8095

>  <SCORE.INTRA.VDW>
0.462122

>  <SCORE.INTRA.VDW.0>
-3.19502

>  <SCORE.INTRA.norm>
-0.0487833

>  <SCORE.RESTR>
0.231973

>  <SCORE.RESTR.CAVITY>
0.231973

>  <SCORE.RESTR.norm>
0.00626954

>  <SCORE.SYSTEM>
0

>  <SCORE.SYSTEM.CONST>
0

>  <SCORE.SYSTEM.DIHEDRAL>
0

>  <SCORE.SYSTEM.SOLV>
0

>  <SCORE.SYSTEM.norm>
0

>  <SCORE.heavy>
37

>  <SCORE.norm>
-0.519273

>  <RMSD>
0.820

$$$$
2oe5_lig
 OpenBabel11021811463D
libRbt.so/2013.1/901 2013/11/27
 37 40  0  0  0  0  0  0  0  0999 V2000
   20.8119    1.7890   53.5902 C   0  0  1  0  0  0  0  0  0  0  0  0
   19.6223    2.1827   52.6863 C   0  0  1  0  0  0  0  0  0  0  0  0
   19.0164    0.8862   52.0313 C   0  0  0  0  0  0  0  0  0  0  0  0
   20.1763    0.2537   51.2299 C   0  0  1  0  0  0  0  0  0  0  0  0
   21.3948   -0.1410   52.1762 C   0  0  1  0  0  0  0  0  0  0  0  0
   22.5695   -0.7857   51.3909 C   0  0  1  0  0  0  0  0  0  0  0  0
   22.0030   -2.0554   50.6940 C   0  0  1  0  0  0  0  0  0  0  0  0
   20.7743   -1.6273   49.8050 C   0  0  2  0  0  0  0  0  0  0  0  0
   24.3314   -3.2406   50.5036 C   0  0  0  0  0  0  0  0  0  0  0  0
   18.5800    2.8626   53.4893 N   0  0  0  0  0  0  0  0  0  0  0  0
   23.0744   -2.7206   49.8609 N   0  0  0  0  0  0  0  0  0  0  0  0
   20.4026    0.9488   54.6818 O   0  0  0  0  0  0  0  0  0  0  0  0
   21.8610    1.0737   52.8482 O   0  0  0  0  0  0  0  0  0  0  0  0
   19.7107   -0.9593   50.5798 O   0  0  0  0  0  0  0  0  0  0  0  0
   23.0441    0.1740   50.4412 O   0  0  0  0  0  0  0  0  0  0  0  0
   20.1924   -2.7670   49.2037 O   0  0  0  0  0  0  0  0  0  0  0  0
   19.3364   -2.3778   48.1459 C   0  0  2  0  0  0  0  0  0  0  0  0
   18.1785   -3.3551   47.9466 C   0  0  1  0  0  0  0  0  0  0  0  0
   18.6939   -4.7547   47.5123 C   0  0  2  0  0  0  0  0  0  0  0  0
   19.5251   -4.5646   46.2089 C   0  0  1  0  0  0  0  0  0  0  0  0
   20.7076   -3.5901   46.5225 C   0  0  1  0  0  0  0  0  0  0  0  0
   21.5572   -3.2902   45.3077 C   0  0  0  0  0  0  0  0  0  0  0  0
   20.0291   -5.9220   45.7761 N   0  0  0  0  0  0  0  0  0  0  0  0
   20.1320   -2.3002   46.9216 O   0  0  0  0  0  0  0  0  0  0  0  0
   17.4612   -3.4372   49.1942 O   0  0  0  0  0  0  0  0  0  0  0  0
   17.5512   -5.5855   47.2386 O   0  0  0  0  0  0  0  0  0  0  0  0
   22.0935   -4.4415   44.7515 O   0  0  0  0  0  0  0  0  0  0  0  0
   21.2392    1.0399   55.8353 C   0  0  1  0  0  0  0  0  0  0  0  0
   20.7374    2.1996   56.7682 C   0  0  1  0  0  0  0  0  0  0  0  0
   21.6641    2.2712   58.0349 C   0  0  2  0  0  0  0  0  0  0  0  0
   21.5912    0.9376   58.7937 C   0  0  1  0  0  0  0  0  0  0  0  0
   22.1089   -0.2240   57.8604 C   0  0  0  0  0  0  0  0  0  0  0  0
   21.1884   -0.2881   56.5786 C   0  0  2  0  0  0  0  0  0  0  0  0
   22.4375    1.0235   59.9724 N   0  0  0  0  0  0  0  0  0  0  0  0
   21.6577   -1.3587   55.6603 N   0  0  0  0  0  0  0  0  0  0  0  0
   20.8041    3.4664   56.0524 O   0  0  0  0  0  0  0  0  0  0  0  0
   21.2081    3.2941   58.8800 O   0  0  0  0  0  0  0  0  0  0  0  0
  1  2  1  0  0  0  0
  1 12  1  1  0  0  0
  1 13  1  0  0  0  0
  2  3  1  0  0  0  0
  2 10  1  1  0  0  0
  4  3  1  1  0  0  0
  4  5  1  0  0  0  0
  4 14  1  0  0  0  0
  5  6  1  0  0  0  0
  5 13  1  6  0  0  0
  6  7  1  0  0  0  0
  6 15  1  6  0  0  0
  7  8  1  0  0  0  0
  7 11  1  6  0  0  0
  8 14  1  0  0  0  0
  8 16  1  1  0  0  0
  9 11  1  0  0  0  0
 17 16  1  1  0  0  0
 17 18  1  0  0  0  0
 17 24  1  0  0  0  0
 18 19  1  0  0  0  0
 18 25  1  1  0  0  0
 19 20  1  0  0  0  0
 19 26  1  6  0  0  0
 20 21  1  0  0  0  0
 20 23  1  1  0  0  0
 21 22  1  6  0  0  0
 21 24  1  0  0  0  0
 22 27  1  0  0  0  0
 28 12  1  6  0  0  0
 28 29  1  0  0  0  0
 28 33  1  0  0  0  0
 29 30  1  0  0  0  0
 29 36  1  6  0  0  0
 30 31  1  0  0  0  0
 30 37  1  1  0  0  0
 31 32  1  0  0  0  0
 31 34  1  1  0  0  0
 32 33  1  0  0  0  0
 33 35  1  6  0  0  0
M  END
>  <CHROM.1>
-153.06727826,61.04444770,-164.50395391,-149.96781808,-58.19788192,88.08669400
20.73986583,-0.96722543,51.71889775,1.46006039,-0.35442035,1.02465971

>  <Name>
2oe5_lig

>  <RI>
0

>  <Rbt.Current_Directory>
/home/itssahil/PROJECTS/Mol_Feturizer/New_Systems/rnas/2oe5

>  <Rbt.Executable>
rbdock ($Id: //depot/dev/client3/rdock/2013.1/src/exe/rbdock.cxx#4 $)

>  <Rbt.Library>
libRbt.so (2013.1, Build901 2013/11/27)

>  <Rbt.Parameter_File>
/export/apps/rDock/src/rDock_2013.1_src/data/scripts/dock_solv.prm

>  <Rbt.Receptor>
prm/pocket_docking_2.prm

>  <SCORE>
-16.7842

>  <SCORE.INTER>
-14.3929

>  <SCORE.INTER.CONST>
1

>  <SCORE.INTER.POLAR>
-1.75158

>  <SCORE.INTER.ROT>
6

>  <SCORE.INTER.SOLV>
15.3529

>  <SCORE.INTER.VDW>
-16.4743

>  <SCORE.INTER.norm>
-0.388997

>  <SCORE.INTRA>
-2.39131

>  <SCORE.INTRA.DIHEDRAL>
-5.16131

>  <SCORE.INTRA.DIHEDRAL.0>
16.2083

>  <SCORE.INTRA.POLAR>
0

>  <SCORE.INTRA.POLAR.0>
0

>  <SCORE.INTRA.REPUL>
0

>  <SCORE.INTRA.REPUL.0>
0

>  <SCORE.INTRA.SOLV>
-0.286088

>  <SCORE.INTRA.SOLV.lig_0>
-89.8095

>  <SCORE.INTRA.VDW>
0.332385

>  <SCORE.INTRA.VDW.0>
-3.19502

>  <SCORE.INTRA.norm>
-0.0646301

>  <SCORE.RESTR>
0

>  <SCORE.RESTR.CAVITY>
0

>  <SCORE.RESTR.norm>
0

>  <SCORE.SYSTEM>
0

>  <SCORE.SYSTEM.CONST>
0

>  <SCORE.SYSTEM.DIHEDRAL>
0

>  <SCORE.SYSTEM.SOLV>
0

>  <SCORE.SYSTEM.norm>
0

>  <SCORE.heavy>
37

>  <SCORE.norm>
-0.453627

>  <RMSD>
0.823

$$$$
2oe5_lig
 OpenBabel11021811463D
libRbt.so/2013.1/901 2013/11/27
 37 40  0  0  0  0  0  0  0  0999 V2000
   20.7717    1.0625   53.6445 C   0  0  1  0  0  0  0  0  0  0  0  0
   19.6186    1.5530   52.7406 C   0  0  1  0  0  0  0  0  0  0  0  0
   19.0569    0.3392   51.9108 C   0  0  0  0  0  0  0  0  0  0  0  0
   20.2580   -0.1870   51.0936 C   0  0  1  0  0  0  0  0  0  0  0  0
   21.4382   -0.6833   52.0408 C   0  0  1  0  0  0  0  0  0  0  0  0
   22.6535   -1.2235   51.2387 C   0  0  1  0  0  0  0  0  0  0  0  0
   22.1327   -2.4054   50.3724 C   0  0  1  0  0  0  0  0  0  0  0  0
   20.9396   -1.8828   49.4855 C   0  0  2  0  0  0  0  0  0  0  0  0
   24.1931   -3.9939   50.0655 C   0  0  0  0  0  0  0  0  0  0  0  0
   18.5343    2.1268   53.5703 N   0  0  0  0  0  0  0  0  0  0  0  0
   23.2472   -2.9610   49.5158 N   0  0  0  0  0  0  0  0  0  0  0  0
   20.3243    0.0968   54.6100 O   0  0  0  0  0  0  0  0  0  0  0  0
   21.8604    0.4463   52.8715 O   0  0  0  0  0  0  0  0  0  0  0  0
   19.8354   -1.3175   50.2850 O   0  0  0  0  0  0  0  0  0  0  0  0
   23.1585   -0.1555   50.4309 O   0  0  0  0  0  0  0  0  0  0  0  0
   20.3977   -2.9470   48.7286 O   0  0  0  0  0  0  0  0  0  0  0  0
   19.4002   -2.4626   47.8492 C   0  0  2  0  0  0  0  0  0  0  0  0
   18.0987   -3.2570   47.9535 C   0  0  1  0  0  0  0  0  0  0  0  0
   18.3038   -4.7309   47.5077 C   0  0  2  0  0  0  0  0  0  0  0  0
   18.8558   -4.7079   46.0514 C   0  0  1  0  0  0  0  0  0  0  0  0
   20.2050   -3.9167   46.0539 C   0  0  1  0  0  0  0  0  0  0  0  0
   20.8094   -3.7855   44.6737 C   0  0  0  0  0  0  0  0  0  0  0  0
   19.0562   -6.1384   45.6069 N   0  0  0  0  0  0  0  0  0  0  0  0
   19.9185   -2.5430   46.4844 O   0  0  0  0  0  0  0  0  0  0  0  0
   17.6603   -3.1923   49.3250 O   0  0  0  0  0  0  0  0  0  0  0  0
   17.0222   -5.3851   47.5272 O   0  0  0  0  0  0  0  0  0  0  0  0
   22.0827   -3.2380   44.7139 O   0  0  0  0  0  0  0  0  0  0  0  0
   20.8441    0.3000   55.9243 C   0  0  1  0  0  0  0  0  0  0  0  0
   19.8340    1.1539   56.7714 C   0  0  1  0  0  0  0  0  0  0  0  0
   20.4210    1.3524   58.2152 C   0  0  2  0  0  0  0  0  0  0  0  0
   20.6119   -0.0197   58.8790 C   0  0  1  0  0  0  0  0  0  0  0  0
   21.6374   -0.8707   58.0349 C   0  0  0  0  0  0  0  0  0  0  0  0
   21.0569   -1.0586   56.5782 C   0  0  2  0  0  0  0  0  0  0  0  0
   21.1372    0.1786   60.2198 N   0  0  0  0  0  0  0  0  0  0  0  0
   22.0064   -1.8390   55.7419 N   0  0  0  0  0  0  0  0  0  0  0  0
   19.6494    2.4559   56.1452 O   0  0  0  0  0  0  0  0  0  0  0  0
   19.5132    2.0992   58.9811 O   0  0  0  0  0  0  0  0  0  0  0  0
  1  2  1  0  0  0  0
  1 12  1  1  0  0  0
  1 13  1  0  0  0  0
  2  3  1  0  0  0  0
  2 10  1  1  0  0  0
  4  3  1  1  0  0  0
  4  5  1  0  0  0  0
  4 14  1  0  0  0  0
  5  6  1  0  0  0  0
  5 13  1  6  0  0  0
  6  7  1  0  0  0  0
  6 15  1  6  0  0  0
  7  8  1  0  0  0  0
  7 11  1  6  0  0  0
  8 14  1  0  0  0  0
  8 16  1  1  0  0  0
  9 11  1  0  0  0  0
 17 16  1  1  0  0  0
 17 18  1  0  0  0  0
 17 24  1  0  0  0  0
 18 19  1  0  0  0  0
 18 25  1  1  0  0  0
 19 20  1  0  0  0  0
 19 26  1  6  0  0  0
 20 21  1  0  0  0  0
 20 23  1  1  0  0  0
 21 22  1  6  0  0  0
 21 24  1  0  0  0  0
 22 27  1  0  0  0  0
 28 12  1  6  0  0  0
 28 29  1  0  0  0  0
 28 33  1  0  0  0  0
 29 30  1  0  0  0  0
 29 36  1  6  0  0  0
 30 31  1  0  0  0  0
 30 37  1  1  0  0  0
 31 32  1  0  0  0  0
 31 34  1  1  0  0  0
 32 33  1  0  0  0  0
 33 35  1  6  0  0  0
M  END
>  <CHROM.1>
-136.31311580,85.06230133,-175.16839216,-129.30527013,-172.15608228,93.87972378
20.44527317,-1.40194816,51.62927159,-1.51564523,0.06081772,-1.99255192

>  <Name>
2oe5_lig

>  <RI>
0

>  <Rbt.Current_Directory>
/home/itssahil/PROJECTS/Mol_Feturizer/New_Systems/rnas/2oe5

>  <Rbt.Executable>
rbdock ($Id: //depot/dev/client3/rdock/2013.1/src/exe/rbdock.cxx#4 $)

>  <Rbt.Library>
libRbt.so (2013.1, Build901 2013/11/27)

>  <Rbt.Parameter_File>
/export/apps/rDock/src/rDock_2013.1_src/data/scripts/dock_solv.prm

>  <Rbt.Receptor>
prm/pocket_docking_2.prm

>  <SCORE>
-16.0345

>  <SCORE.INTER>
-16.3012

>  <SCORE.INTER.CONST>
1

>  <SCORE.INTER.POLAR>
-1.38177

>  <SCORE.INTER.ROT>
6

>  <SCORE.INTER.SOLV>
17.4949

>  <SCORE.INTER.VDW>
-19.6932

>  <SCORE.INTER.norm>
-0.440572

>  <SCORE.INTRA>
0.266686

>  <SCORE.INTRA.DIHEDRAL>
1.64667

>  <SCORE.INTRA.DIHEDRAL.0>
16.2083

>  <SCORE.INTRA.POLAR>
0

>  <SCORE.INTRA.POLAR.0>
0

>  <SCORE.INTRA.REPUL>
0

>  <SCORE.INTRA.REPUL.0>
0

>  <SCORE.INTRA.SOLV>
-0.862149

>  <SCORE.INTRA.SOLV.lig_0>
-89.8095

>  <SCORE.INTRA.VDW>
-0.125574

>  <SCORE.INTRA.VDW.0>
-3.19502

>  <SCORE.INTRA.norm>
0.00720772

>  <SCORE.RESTR>
0

>  <SCORE.RESTR.CAVITY>
0

>  <SCORE.RESTR.norm>
0

>  <SCORE.SYSTEM>
0

>  <SCORE.SYSTEM.CONST>
0

>  <SCORE.SYSTEM.DIHEDRAL>
0

>  <SCORE.SYSTEM.SOLV>
0

>  <SCORE.SYSTEM.norm>
0

>  <SCORE.heavy>
37

>  <SCORE.norm>
-0.433364

>  <RMSD>
0.836

$$$$
2oe5_lig
 OpenBabel11021811463D
libRbt.so/2013.1/901 2013/11/27
 37 40  0  0  0  0  0  0  0  0999 V2000
   20.8090    1.7326   53.5807 C   0  0  1  0  0  0  0  0  0  0  0  0
   19.6115    2.1087   52.6797 C   0  0  1  0  0  0  0  0  0  0  0  0
   19.0504    0.8088   51.9922 C   0  0  0  0  0  0  0  0  0  0  0  0
   20.2336    0.2324   51.1827 C   0  0  1  0  0  0  0  0  0  0  0  0
   21.4600   -0.1448   52.1261 C   0  0  1  0  0  0  0  0  0  0  0  0
   22.6582   -0.7334   51.3324 C   0  0  1  0  0  0  0  0  0  0  0  0
   22.1359   -2.0042   50.6038 C   0  0  1  0  0  0  0  0  0  0  0  0
   20.8981   -1.5954   49.7184 C   0  0  2  0  0  0  0  0  0  0  0  0
   24.3867   -3.3303   50.4087 C   0  0  0  0  0  0  0  0  0  0  0  0
   18.5442    2.7363   53.4925 N   0  0  0  0  0  0  0  0  0  0  0  0
   23.2318   -2.6155   49.7613 N   0  0  0  0  0  0  0  0  0  0  0  0
   20.4221    0.8550   54.6506 O   0  0  0  0  0  0  0  0  0  0  0  0
   21.8838    1.0684   52.8280 O   0  0  0  0  0  0  0  0  0  0  0  0
   19.8102   -0.9797   50.5027 O   0  0  0  0  0  0  0  0  0  0  0  0
   23.1060    0.2626   50.4073 O   0  0  0  0  0  0  0  0  0  0  0  0
   20.3558   -2.7390   49.0882 O   0  0  0  0  0  0  0  0  0  0  0  0
   19.4456   -2.3533   48.0754 C   0  0  2  0  0  0  0  0  0  0  0  0
   18.2357   -3.2836   47.9971 C   0  0  1  0  0  0  0  0  0  0  0  0
   18.6590   -4.7214   47.5889 C   0  0  2  0  0  0  0  0  0  0  0  0
   19.4045   -4.6213   46.2251 C   0  0  1  0  0  0  0  0  0  0  0  0
   20.6468   -3.6904   46.4158 C   0  0  1  0  0  0  0  0  0  0  0  0
   21.4217   -3.4780   45.1345 C   0  0  0  0  0  0  0  0  0  0  0  0
   19.8184   -6.0165   45.8173 N   0  0  0  0  0  0  0  0  0  0  0  0
   20.1564   -2.3607   46.7977 O   0  0  0  0  0  0  0  0  0  0  0  0
   17.6042   -3.2833   49.2929 O   0  0  0  0  0  0  0  0  0  0  0  0
   17.4653   -5.5092   47.4291 O   0  0  0  0  0  0  0  0  0  0  0  0
   20.7624   -2.6235   44.2640 O   0  0  0  0  0  0  0  0  0  0  0  0
   21.2402    0.9580   55.8163 C   0  0  1  0  0  0  0  0  0  0  0  0
   20.7647    2.1687   56.6966 C   0  0  1  0  0  0  0  0  0  0  0  0
   21.6701    2.2532   57.9778 C   0  0  2  0  0  0  0  0  0  0  0  0
   21.5340    0.9520   58.7827 C   0  0  1  0  0  0  0  0  0  0  0  0
   22.0254   -0.2612   57.9024 C   0  0  0  0  0  0  0  0  0  0  0  0
   21.1266   -0.3390   56.6060 C   0  0  2  0  0  0  0  0  0  0  0  0
   22.3612    1.0504   59.9740 N   0  0  0  0  0  0  0  0  0  0  0  0
   21.5727   -1.4591   55.7363 N   0  0  0  0  0  0  0  0  0  0  0  0
   20.8914    3.4050   55.9370 O   0  0  0  0  0  0  0  0  0  0  0  0
   21.2370    3.3224   58.7763 O   0  0  0  0  0  0  0  0  0  0  0  0
  1  2  1  0  0  0  0
  1 12  1  1  0  0  0
  1 13  1  0  0  0  0
  2  3  1  0  0  0  0
  2 10  1  1  0  0  0
  4  3  1  1  0  0  0
  4  5  1  0  0  0  0
  4 14  1  0  0  0  0
  5  6  1  0  0  0  0
  5 13  1  6  0  0  0
  6  7  1  0  0  0  0
  6 15  1  6  0  0  0
  7  8  1  0  0  0  0
  7 11  1  6  0  0  0
  8 14  1  0  0  0  0
  8 16  1  1  0  0  0
  9 11  1  0  0  0  0
 17 16  1  1  0  0  0
 17 18  1  0  0  0  0
 17 24  1  0  0  0  0
 18 19  1  0  0  0  0
 18 25  1  1  0  0  0
 19 20  1  0  0  0  0
 19 26  1  6  0  0  0
 20 21  1  0  0  0  0
 20 23  1  1  0  0  0
 21 22  1  6  0  0  0
 21 24  1  0  0  0  0
 22 27  1  0  0  0  0
 28 12  1  6  0  0  0
 28 29  1  0  0  0  0
 28 33  1  0  0  0  0
 29 30  1  0  0  0  0
 29 36  1  6  0  0  0
 30 31  1  0  0  0  0
 30 37  1  1  0  0  0
 31 32  1  0  0  0  0
 31 34  1  1  0  0  0
 32 33  1  0  0  0  0
 33 35  1  6  0  0  0
M  END
>  <CHROM.1>
-152.34247637,72.08190409,-167.16890275,-142.39155221,74.21588213,82.56285589
20.71437168,-0.92873556,51.67447376,1.44426803,-0.36498551,1.03986986

>  <Name>
2oe5_lig

>  <RI>
0

>  <Rbt.Current_Directory>
/home/itssahil/PROJECTS/Mol_Feturizer/New_Systems/rnas/2oe5

>  <Rbt.Executable>
rbdock ($Id: //depot/dev/client3/rdock/2013.1/src/exe/rbdock.cxx#4 $)

>  <Rbt.Library>
libRbt.so (2013.1, Build901 2013/11/27)

>  <Rbt.Parameter_File>
/export/apps/rDock/src/rDock_2013.1_src/data/scripts/dock_solv.prm

>  <Rbt.Receptor>
prm/pocket_docking_2.prm

>  <SCORE>
-18.7932

>  <SCORE.INTER>
-16.5741

>  <SCORE.INTER.CONST>
1

>  <SCORE.INTER.POLAR>
-2.22111

>  <SCORE.INTER.ROT>
6

>  <SCORE.INTER.SOLV>
15.8512

>  <SCORE.INTER.VDW>
-16.5294

>  <SCORE.INTER.norm>
-0.447949

>  <SCORE.INTRA>
-2.39126

>  <SCORE.INTRA.DIHEDRAL>
-4.19485

>  <SCORE.INTRA.DIHEDRAL.0>
16.2083

>  <SCORE.INTRA.POLAR>
0

>  <SCORE.INTRA.POLAR.0>
0

>  <SCORE.INTRA.REPUL>
0

>  <SCORE.INTRA.REPUL.0>
0

>  <SCORE.INTRA.SOLV>
-1.21748

>  <SCORE.INTRA.SOLV.lig_0>
-89.8095

>  <SCORE.INTRA.VDW>
0.314899

>  <SCORE.INTRA.VDW.0>
-3.19502

>  <SCORE.INTRA.norm>
-0.0646288

>  <SCORE.RESTR>
0.17219

>  <SCORE.RESTR.CAVITY>
0.17219

>  <SCORE.RESTR.norm>
0.00465378

>  <SCORE.SYSTEM>
0

>  <SCORE.SYSTEM.CONST>
0

>  <SCORE.SYSTEM.DIHEDRAL>
0

>  <SCORE.SYSTEM.SOLV>
0

>  <SCORE.SYSTEM.norm>
0

>  <SCORE.heavy>
37

>  <SCORE.norm>
-0.507924

>  <RMSD>
0.864

$$$$
2oe5_lig
 OpenBabel11021811463D
libRbt.so/2013.1/901 2013/11/27
 37 40  0  0  0  0  0  0  0  0999 V2000
   20.8134    1.0561   53.9175 C   0  0  1  0  0  0  0  0  0  0  0  0
   19.6954    1.4584   52.9297 C   0  0  1  0  0  0  0  0  0  0  0  0
   18.9857    0.1607   52.3919 C   0  0  0  0  0  0  0  0  0  0  0  0
   20.1017   -0.6617   51.7094 C   0  0  1  0  0  0  0  0  0  0  0  0
   21.2471   -1.0632   52.7406 C   0  0  1  0  0  0  0  0  0  0  0  0
   22.3761   -1.8972   52.0759 C   0  0  1  0  0  0  0  0  0  0  0  0
   21.7094   -3.1767   51.4953 C   0  0  1  0  0  0  0  0  0  0  0  0
   20.5556   -2.7350   50.5171 C   0  0  2  0  0  0  0  0  0  0  0  0
   23.2073   -3.6585   49.4008 C   0  0  0  0  0  0  0  0  0  0  0  0
   18.7009    2.3168   53.6135 N   0  0  0  0  0  0  0  0  0  0  0  0
   22.7352   -4.0266   50.7811 N   0  0  0  0  0  0  0  0  0  0  0  0
   20.2915    0.3824   55.0745 O   0  0  0  0  0  0  0  0  0  0  0  0
   21.8092    0.1686   53.2983 O   0  0  0  0  0  0  0  0  0  0  0  0
   19.5396   -1.8894   51.1734 O   0  0  0  0  0  0  0  0  0  0  0  0
   22.9704   -1.0959   51.0497 O   0  0  0  0  0  0  0  0  0  0  0  0
   19.8834   -3.8740   50.0170 O   0  0  0  0  0  0  0  0  0  0  0  0
   18.8768   -3.4843   49.1016 C   0  0  2  0  0  0  0  0  0  0  0  0
   17.8891   -4.6133   48.8096 C   0  0  1  0  0  0  0  0  0  0  0  0
   18.5921   -5.8055   48.1043 C   0  0  2  0  0  0  0  0  0  0  0  0
   19.2507   -5.2583   46.8032 C   0  0  1  0  0  0  0  0  0  0  0  0
   20.2740   -4.1459   47.2054 C   0  0  1  0  0  0  0  0  0  0  0  0
   20.9403   -3.5030   46.0095 C   0  0  0  0  0  0  0  0  0  0  0  0
   19.9356   -6.4119   46.1074 N   0  0  0  0  0  0  0  0  0  0  0  0
   19.5272   -3.0655   47.8609 O   0  0  0  0  0  0  0  0  0  0  0  0
   17.3183   -5.0259   50.0673 O   0  0  0  0  0  0  0  0  0  0  0  0
   17.5873   -6.7778   47.7638 O   0  0  0  0  0  0  0  0  0  0  0  0
   21.6910   -2.3934   46.3670 O   0  0  0  0  0  0  0  0  0  0  0  0
   21.1063    0.5067   56.2405 C   0  0  1  0  0  0  0  0  0  0  0  0
   20.5162    1.6111   57.1886 C   0  0  1  0  0  0  0  0  0  0  0  0
   21.4209    1.7198   58.4685 C   0  0  2  0  0  0  0  0  0  0  0  0
   21.4294    0.3694   59.2007 C   0  0  1  0  0  0  0  0  0  0  0  0
   22.0355   -0.7358   58.2523 C   0  0  0  0  0  0  0  0  0  0  0  0
   21.1366   -0.8362   56.9576 C   0  0  2  0  0  0  0  0  0  0  0  0
   22.2539    0.4886   60.3919 N   0  0  0  0  0  0  0  0  0  0  0  0
   21.6881   -1.8544   56.0253 N   0  0  0  0  0  0  0  0  0  0  0  0
   20.5056    2.8935   56.4981 O   0  0  0  0  0  0  0  0  0  0  0  0
   20.8867    2.6925   59.3269 O   0  0  0  0  0  0  0  0  0  0  0  0
  1  2  1  0  0  0  0
  1 12  1  1  0  0  0
  1 13  1  0  0  0  0
  2  3  1  0  0  0  0
  2 10  1  1  0  0  0
  4  3  1  1  0  0  0
  4  5  1  0  0  0  0
  4 14  1  0  0  0  0
  5  6  1  0  0  0  0
  5 13  1  6  0  0  0
  6  7  1  0  0  0  0
  6 15  1  6  0  0  0
  7  8  1  0  0  0  0
  7 11  1  6  0  0  0
  8 14  1  0  0  0  0
  8 16  1  1  0  0  0
  9 11  1  0  0  0  0
 17 16  1  1  0  0  0
 17 18  1  0  0  0  0
 17 24  1  0  0  0  0
 18 19  1  0  0  0  0
 18 25  1  1  0  0  0
 19 20  1  0  0  0  0
 19 26  1  6  0  0  0
 20 21  1  0  0  0  0
 20 23  1  1  0  0  0
 21 22  1  6  0  0  0
 21 24  1  0  0  0  0
 22 27  1  0  0  0  0
 28 12  1  6  0  0  0
 28 29  1  0  0  0  0
 28 33  1  0  0  0  0
 29 30  1  0  0  0  0
 29 36  1  6  0  0  0
 30 31  1  0  0  0  0
 30 37  1  1  0  0  0
 31 32  1  0  0  0  0
 31 34  1  1  0  0  0
 32 33  1  0  0  0  0
 33 35  1  6  0  0  0
M  END
>  <CHROM.1>
-153.78578958,-77.80852351,-177.94857820,-165.05507328,171.12434406,100.32293071
20.52117508,-1.68509994,52.25585741,-1.31904047,-1.04315102,-1.88151516

>  <Name>
2oe5_lig

>  <RI>
0

>  <Rbt.Current_Directory>
/home/itssahil/PROJECTS/Mol_Feturizer/New_Systems/rnas/2oe5

>  <Rbt.Executable>
rbdock ($Id: //depot/dev/client3/rdock/2013.1/src/exe/rbdock.cxx#4 $)

>  <Rbt.Library>
libRbt.so (2013.1, Build901 2013/11/27)

>  <Rbt.Parameter_File>
/export/apps/rDock/src/rDock_2013.1_src/data/scripts/dock_solv.prm

>  <Rbt.Receptor>
prm/pocket_docking_2.prm

>  <SCORE>
-8.96556

>  <SCORE.INTER>
-6.31801

>  <SCORE.INTER.CONST>
1

>  <SCORE.INTER.POLAR>
0

>  <SCORE.INTER.ROT>
6

>  <SCORE.INTER.SOLV>
16.1065

>  <SCORE.INTER.VDW>
-17.1808

>  <SCORE.INTER.norm>
-0.170757

>  <SCORE.INTRA>
-2.65419

>  <SCORE.INTRA.DIHEDRAL>
-6.21147

>  <SCORE.INTRA.DIHEDRAL.0>
16.2083

>  <SCORE.INTRA.POLAR>
0

>  <SCORE.INTRA.POLAR.0>
0

>  <SCORE.INTRA.REPUL>
0

>  <SCORE.INTRA.REPUL.0>
0

>  <SCORE.INTRA.SOLV>
-0.50034

>  <SCORE.INTRA.SOLV.lig_0>
-89.8095

>  <SCORE.INTRA.VDW>
0.701711

>  <SCORE.INTRA.VDW.0>
-3.19502

>  <SCORE.INTRA.norm>
-0.0717349

>  <SCORE.RESTR>
0.00663769

>  <SCORE.RESTR.CAVITY>
0.00663769

>  <SCORE.RESTR.norm>
0.000179397

>  <SCORE.SYSTEM>
0

>  <SCORE.SYSTEM.CONST>
0

>  <SCORE.SYSTEM.DIHEDRAL>
0

>  <SCORE.SYSTEM.SOLV>
0

>  <SCORE.SYSTEM.norm>
0

>  <SCORE.heavy>
37

>  <SCORE.norm>
-0.242313

>  <RMSD>
0.874

$$$$
2oe5_lig
 OpenBabel11021811463D
libRbt.so/2013.1/901 2013/11/27
 37 40  0  0  0  0  0  0  0  0999 V2000
   20.7715    1.0551   53.6252 C   0  0  1  0  0  0  0  0  0  0  0  0
   19.8316    1.6573   52.5569 C   0  0  1  0  0  0  0  0  0  0  0  0
   19.0260    0.4981   51.8609 C   0  0  0  0  0  0  0  0  0  0  0  0
   20.0967   -0.4288   51.2429 C   0  0  1  0  0  0  0  0  0  0  0  0
   21.0590   -1.0362   52.3571 C   0  0  1  0  0  0  0  0  0  0  0  0
   22.1390   -1.9774   51.7572 C   0  0  1  0  0  0  0  0  0  0  0  0
   21.3830   -3.1221   51.0245 C   0  0  1  0  0  0  0  0  0  0  0  0
   20.4117   -2.4766   49.9648 C   0  0  2  0  0  0  0  0  0  0  0  0
   23.3211   -3.5590   49.3169 C   0  0  0  0  0  0  0  0  0  0  0  0
   18.8851    2.6035   53.1913 N   0  0  0  0  0  0  0  0  0  0  0  0
   22.3648   -4.0624   50.3638 N   0  0  0  0  0  0  0  0  0  0  0  0
   20.0419    0.3961   54.6732 O   0  0  0  0  0  0  0  0  0  0  0  0
   21.7084    0.0765   53.0530 O   0  0  0  0  0  0  0  0  0  0  0  0
   19.4454   -1.5387   50.5687 O   0  0  0  0  0  0  0  0  0  0  0  0
   22.9417   -1.2090   50.8554 O   0  0  0  0  0  0  0  0  0  0  0  0
   19.6592   -3.4858   49.3209 O   0  0  0  0  0  0  0  0  0  0  0  0
   18.9367   -2.9382   48.2342 C   0  0  2  0  0  0  0  0  0  0  0  0
   17.7098   -3.7745   47.8724 C   0  0  1  0  0  0  0  0  0  0  0  0
   18.1209   -5.1865   47.3721 C   0  0  2  0  0  0  0  0  0  0  0  0
   19.0728   -4.9938   46.1544 C   0  0  1  0  0  0  0  0  0  0  0  0
   20.3142   -4.1707   46.6315 C   0  0  1  0  0  0  0  0  0  0  0  0
   21.2876   -3.8771   45.5118 C   0  0  0  0  0  0  0  0  0  0  0  0
   19.4766   -6.3629   45.6579 N   0  0  0  0  0  0  0  0  0  0  0  0
   19.8357   -2.8589   47.0838 O   0  0  0  0  0  0  0  0  0  0  0  0
   16.8861   -3.8680   49.0515 O   0  0  0  0  0  0  0  0  0  0  0  0
   16.9296   -5.8740   46.9487 O   0  0  0  0  0  0  0  0  0  0  0  0
   22.5046   -3.4146   45.9890 O   0  0  0  0  0  0  0  0  0  0  0  0
   20.6437    0.5064   55.9632 C   0  0  1  0  0  0  0  0  0  0  0  0
   19.6282    1.1524   56.9723 C   0  0  1  0  0  0  0  0  0  0  0  0
   20.3076    1.2508   58.3855 C   0  0  2  0  0  0  0  0  0  0  0  0
   20.6811   -0.1587   58.8688 C   0  0  1  0  0  0  0  0  0  0  0  0
   21.7119   -0.8006   57.8621 C   0  0  0  0  0  0  0  0  0  0  0  0
   21.0368   -0.8864   56.4368 C   0  0  2  0  0  0  0  0  0  0  0  0
   21.2911   -0.0555   60.1843 N   0  0  0  0  0  0  0  0  0  0  0  0
   21.9862   -1.4672   55.4513 N   0  0  0  0  0  0  0  0  0  0  0  0
   19.2706    2.4892   56.5176 O   0  0  0  0  0  0  0  0  0  0  0  0
   19.3973    1.8105   59.2946 O   0  0  0  0  0  0  0  0  0  0  0  0
  1  2  1  0  0  0  0
  1 12  1  1  0  0  0
  1 13  1  0  0  0  0
  2  3  1  0  0  0  0
  2 10  1  1  0  0  0
  4  3  1  1  0  0  0
  4  5  1  0  0  0  0
  4 14  1  0  0  0  0
  5  6  1  0  0  0  0
  5 13  1  6  0  0  0
  6  7  1  0  0  0  0
  6 15  1  6  0  0  0
  7  8  1  0  0  0  0
  7 11  1  6  0  0  0
  8 14  1  0  0  0  0
  8 16  1  1  0  0  0
  9 11  1  0  0  0  0
 17 16  1  1  0  0  0
 17 18  1  0  0  0  0
 17 24  1  0  0  0  0
 18 19  1  0  0  0  0
 18 25  1  1  0  0  0
 19 20  1  0  0  0  0
 19 26  1  6  0  0  0
 20 21  1  0  0  0  0
 20 23  1  1  0  0  0
 21 22  1  6  0  0  0
 21 24  1  0  0  0  0
 22 27  1  0  0  0  0
 28 12  1  6  0  0  0
 28 29  1  0  0  0  0
 28 33  1  0  0  0  0
 29 30  1  0  0  0  0
 29 36  1  6  0  0  0
 30 31  1  0  0  0  0
 30 37  1  1  0  0  0
 31 32  1  0  0  0  0
 31 34  1  1  0  0  0
 32 33  1  0  0  0  0
 33 35  1  6  0  0  0
M  END
>  <CHROM.1>
-145.56370421,-59.91930928,-171.18854638,-156.22031779,-166.74786021,123.13998764
20.26744816,-1.63020149,51.80365920,-1.50198802,0.18937658,-2.05083628

>  <Name>
2oe5_lig

>  <RI>
0

>  <Rbt.Current_Directory>
/home/itssahil/PROJECTS/Mol_Feturizer/New_Systems/rnas/2oe5

>  <Rbt.Executable>
rbdock ($Id: //depot/dev/client3/rdock/2013.1/src/exe/rbdock.cxx#4 $)

>  <Rbt.Library>
libRbt.so (2013.1, Build901 2013/11/27)

>  <Rbt.Parameter_File>
/export/apps/rDock/src/rDock_2013.1_src/data/scripts/dock_solv.prm

>  <Rbt.Receptor>
prm/pocket_docking_2.prm

>  <SCORE>
-12.3134

>  <SCORE.INTER>
-12.547

>  <SCORE.INTER.CONST>
1

>  <SCORE.INTER.POLAR>
-0.996169

>  <SCORE.INTER.ROT>
6

>  <SCORE.INTER.SOLV>
15.2385

>  <SCORE.INTER.VDW>
-17.7236

>  <SCORE.INTER.norm>
-0.339109

>  <SCORE.INTRA>
0.230899

>  <SCORE.INTRA.DIHEDRAL>
-1.17508

>  <SCORE.INTRA.DIHEDRAL.0>
16.2083

>  <SCORE.INTRA.POLAR>
0

>  <SCORE.INTRA.POLAR.0>
0

>  <SCORE.INTRA.REPUL>
0

>  <SCORE.INTRA.REPUL.0>
0

>  <SCORE.INTRA.SOLV>
0.340159

>  <SCORE.INTRA.SOLV.lig_0>
-89.8095

>  <SCORE.INTRA.VDW>
0.648361

>  <SCORE.INTRA.VDW.0>
-3.19502

>  <SCORE.INTRA.norm>
0.00624051

>  <SCORE.RESTR>
0.00274229

>  <SCORE.RESTR.CAVITY>
0.00274229

>  <SCORE.RESTR.norm>
7.41161e-05

>  <SCORE.SYSTEM>
0

>  <SCORE.SYSTEM.CONST>
0

>  <SCORE.SYSTEM.DIHEDRAL>
0

>  <SCORE.SYSTEM.SOLV>
0

>  <SCORE.SYSTEM.norm>
0

>  <SCORE.heavy>
37

>  <SCORE.norm>
-0.332794

>  <RMSD>
0.907

$$$$
2oe5_lig
 OpenBabel11021811463D
libRbt.so/2013.1/901 2013/11/27
 37 40  0  0  0  0  0  0  0  0999 V2000
   20.8323    1.4507   53.8492 C   0  0  1  0  0  0  0  0  0  0  0  0
   19.8242    1.8979   52.7670 C   0  0  1  0  0  0  0  0  0  0  0  0
   19.0417    0.6403   52.2347 C   0  0  0  0  0  0  0  0  0  0  0  0
   20.1252   -0.3056   51.6702 C   0  0  1  0  0  0  0  0  0  0  0  0
   21.1577   -0.7521   52.7976 C   0  0  1  0  0  0  0  0  0  0  0  0
   22.2520   -1.7099   52.2523 C   0  0  1  0  0  0  0  0  0  0  0  0
   21.5168   -2.9550   51.6797 C   0  0  1  0  0  0  0  0  0  0  0  0
   20.4758   -2.4652   50.6028 C   0  0  2  0  0  0  0  0  0  0  0  0
   23.2139   -3.5944   49.7893 C   0  0  0  0  0  0  0  0  0  0  0  0
   18.8644    2.8695   53.3401 N   0  0  0  0  0  0  0  0  0  0  0  0
   22.5104   -3.9223   51.0782 N   0  0  0  0  0  0  0  0  0  0  0  0
   20.1754    0.8805   54.9930 O   0  0  0  0  0  0  0  0  0  0  0  0
   21.7864    0.4532   53.3418 O   0  0  0  0  0  0  0  0  0  0  0  0
   19.4955   -1.5059   51.1474 O   0  0  0  0  0  0  0  0  0  0  0  0
   22.9830   -1.0124   51.2387 O   0  0  0  0  0  0  0  0  0  0  0  0
   19.7420   -3.5661   50.1041 O   0  0  0  0  0  0  0  0  0  0  0  0
   19.0346   -3.1930   48.9365 C   0  0  2  0  0  0  0  0  0  0  0  0
   18.0135   -4.2486   48.5140 C   0  0  1  0  0  0  0  0  0  0  0  0
   18.7123   -5.5779   48.1168 C   0  0  2  0  0  0  0  0  0  0  0  0
   19.7205   -5.2545   46.9745 C   0  0  1  0  0  0  0  0  0  0  0  0
   20.7478   -4.2055   47.5135 C   0  0  1  0  0  0  0  0  0  0  0  0
   21.7504   -3.7758   46.4658 C   0  0  0  0  0  0  0  0  0  0  0  0
   20.4042   -6.5427   46.5784 N   0  0  0  0  0  0  0  0  0  0  0  0
   20.0051   -2.9885   47.8621 O   0  0  0  0  0  0  0  0  0  0  0  0
   17.1166   -4.4525   49.6239 O   0  0  0  0  0  0  0  0  0  0  0  0
   17.7052   -6.4828   47.6290 O   0  0  0  0  0  0  0  0  0  0  0  0
   21.9904   -2.4107   46.5051 O   0  0  0  0  0  0  0  0  0  0  0  0
   20.9317    0.9599   56.2015 C   0  0  1  0  0  0  0  0  0  0  0  0
   20.5080    2.2361   57.0132 C   0  0  1  0  0  0  0  0  0  0  0  0
   21.3431    2.2942   58.3428 C   0  0  2  0  0  0  0  0  0  0  0  0
   21.0550    1.0381   59.1789 C   0  0  1  0  0  0  0  0  0  0  0  0
   21.4942   -0.2417   58.3681 C   0  0  0  0  0  0  0  0  0  0  0  0
   20.6672   -0.2942   57.0236 C   0  0  2  0  0  0  0  0  0  0  0  0
   21.8185    1.1131   60.4136 N   0  0  0  0  0  0  0  0  0  0  0  0
   21.0684   -1.4774   56.2179 N   0  0  0  0  0  0  0  0  0  0  0  0
   20.7789    3.4298   56.2238 O   0  0  0  0  0  0  0  0  0  0  0  0
   20.9546    3.4229   59.0799 O   0  0  0  0  0  0  0  0  0  0  0  0
  1  2  1  0  0  0  0
  1 12  1  1  0  0  0
  1 13  1  0  0  0  0
  2  3  1  0  0  0  0
  2 10  1  1  0  0  0
  4  3  1  1  0  0  0
  4  5  1  0  0  0  0
  4 14  1  0  0  0  0
  5  6  1  0  0  0  0
  5 13  1  6  0  0  0
  6  7  1  0  0  0  0
  6 15  1  6  0  0  0
  7  8  1  0  0  0  0
  7 11  1  6  0  0  0
  8 14  1  0  0  0  0
  8 16  1  1  0  0  0
  9 11  1  0  0  0  0
 17 16  1  1  0  0  0
 17 18  1  0  0  0  0
 17 24  1  0  0  0  0
 18 19  1  0  0  0  0
 18 25  1  1  0  0  0
 19 20  1  0  0  0  0
 19 26  1  6  0  0  0
 20 21  1  0  0  0  0
 20 23  1  1  0  0  0
 21 22  1  6  0  0  0
 21 24  1  0  0  0  0
 22 27  1  0  0  0  0
 28 12  1  6  0  0  0
 28 29  1  0  0  0  0
 28 33  1  0  0  0  0
 29 30  1  0  0  0  0
 29 36  1  6  0  0  0
 30 31  1  0  0  0  0
 30 37  1  1  0  0  0
 31 32  1  0  0  0  0
 31 34  1  1  0  0  0
 32 33  1  0  0  0  0
 33 35  1  6  0  0  0
M  END
>  <CHROM.1>
-155.37252345,-71.41539437,-166.58812085,-168.57560460,138.33933672,94.88859950
20.53298708,-1.36351251,52.27342933,1.22518091,-1.30086050,0.66224577

>  <Name>
2oe5_lig

>  <RI>
0

>  <Rbt.Current_Directory>
/home/itssahil/PROJECTS/Mol_Feturizer/New_Systems/rnas/2oe5

>  <Rbt.Executable>
rbdock ($Id: //depot/dev/client3/rdock/2013.1/src/exe/rbdock.cxx#4 $)

>  <Rbt.Library>
libRbt.so (2013.1, Build901 2013/11/27)

>  <Rbt.Parameter_File>
/export/apps/rDock/src/rDock_2013.1_src/data/scripts/dock_solv.prm

>  <Rbt.Receptor>
prm/pocket_docking_2.prm

>  <SCORE>
-8.02372

>  <SCORE.INTER>
-7.21884

>  <SCORE.INTER.CONST>
1

>  <SCORE.INTER.POLAR>
-0.453146

>  <SCORE.INTER.ROT>
6

>  <SCORE.INTER.SOLV>
14.2426

>  <SCORE.INTER.VDW>
-15.6496

>  <SCORE.INTER.norm>
-0.195104

>  <SCORE.INTRA>
-0.825081

>  <SCORE.INTRA.DIHEDRAL>
-3.32068

>  <SCORE.INTRA.DIHEDRAL.0>
16.2083

>  <SCORE.INTRA.POLAR>
0

>  <SCORE.INTRA.POLAR.0>
0

>  <SCORE.INTRA.REPUL>
0

>  <SCORE.INTRA.REPUL.0>
0

>  <SCORE.INTRA.SOLV>
-0.530206

>  <SCORE.INTRA.SOLV.lig_0>
-89.8095

>  <SCORE.INTRA.VDW>
1.10036

>  <SCORE.INTRA.VDW.0>
-3.19502

>  <SCORE.INTRA.norm>
-0.0222995

>  <SCORE.RESTR>
0.020206

>  <SCORE.RESTR.CAVITY>
0.020206

>  <SCORE.RESTR.norm>
0.000546107

>  <SCORE.SYSTEM>
0

>  <SCORE.SYSTEM.CONST>
0

>  <SCORE.SYSTEM.DIHEDRAL>
0

>  <SCORE.SYSTEM.SOLV>
0

>  <SCORE.SYSTEM.norm>
0

>  <SCORE.heavy>
37

>  <SCORE.norm>
-0.216857

>  <RMSD>
0.932

$$$$
2oe5_lig
 OpenBabel11021811463D
libRbt.so/2013.1/901 2013/11/27
 37 40  0  0  0  0  0  0  0  0999 V2000
   20.7065    1.7971   53.6020 C   0  0  1  0  0  0  0  0  0  0  0  0
   19.5936    2.1922   52.6056 C   0  0  1  0  0  0  0  0  0  0  0  0
   18.9181    0.8889   52.0378 C   0  0  0  0  0  0  0  0  0  0  0  0
   20.0599    0.1008   51.3577 C   0  0  1  0  0  0  0  0  0  0  0  0
   21.1996   -0.2936   52.3978 C   0  0  1  0  0  0  0  0  0  0  0  0
   22.3545   -1.0935   51.7355 C   0  0  1  0  0  0  0  0  0  0  0  0
   21.7222   -2.3770   51.1258 C   0  0  1  0  0  0  0  0  0  0  0  0
   20.5725   -1.9434   50.1392 C   0  0  2  0  0  0  0  0  0  0  0  0
   22.4968   -4.6170   50.0100 C   0  0  0  0  0  0  0  0  0  0  0  0
   18.5725    3.0189   53.2892 N   0  0  0  0  0  0  0  0  0  0  0  0
   22.7747   -3.1941   50.4123 N   0  0  0  0  0  0  0  0  0  0  0  0
   20.1834    1.0944   54.7411 O   0  0  0  0  0  0  0  0  0  0  0  0
   21.7287    0.9403   52.9824 O   0  0  0  0  0  0  0  0  0  0  0  0
   19.5306   -1.1295   50.7948 O   0  0  0  0  0  0  0  0  0  0  0  0
   22.9454   -0.2639   50.7302 O   0  0  0  0  0  0  0  0  0  0  0  0
   19.9308   -3.0878   49.6121 O   0  0  0  0  0  0  0  0  0  0  0  0
   19.0538   -2.7173   48.5650 C   0  0  2  0  0  0  0  0  0  0  0  0
   18.0152   -3.7982   48.2676 C   0  0  1  0  0  0  0  0  0  0  0  0
   18.6902   -5.0964   47.7457 C   0  0  2  0  0  0  0  0  0  0  0  0
   19.5157   -4.7195   46.4799 C   0  0  1  0  0  0  0  0  0  0  0  0
   20.5772   -3.6471   46.8917 C   0  0  1  0  0  0  0  0  0  0  0  0
   21.4074   -3.1659   45.7226 C   0  0  0  0  0  0  0  0  0  0  0  0
   20.1746   -5.9772   45.9623 N   0  0  0  0  0  0  0  0  0  0  0  0
   19.8552   -2.4616   47.3691 O   0  0  0  0  0  0  0  0  0  0  0  0
   17.2916   -4.0515   49.4883 O   0  0  0  0  0  0  0  0  0  0  0  0
   17.6516   -6.0250   47.3851 O   0  0  0  0  0  0  0  0  0  0  0  0
   20.6587   -2.4182   44.8264 O   0  0  0  0  0  0  0  0  0  0  0  0
   21.0282    1.1350   55.8915 C   0  0  1  0  0  0  0  0  0  0  0  0
   20.6177    2.3390   56.8128 C   0  0  1  0  0  0  0  0  0  0  0  0
   21.5513    2.3546   58.0764 C   0  0  2  0  0  0  0  0  0  0  0  0
   21.3811    1.0384   58.8499 C   0  0  1  0  0  0  0  0  0  0  0  0
   21.8073   -0.1687   57.9282 C   0  0  0  0  0  0  0  0  0  0  0  0
   20.8804   -0.1774   56.6495 C   0  0  2  0  0  0  0  0  0  0  0  0
   22.2352    1.0732   60.0257 N   0  0  0  0  0  0  0  0  0  0  0  0
   21.2652   -1.2901   55.7418 N   0  0  0  0  0  0  0  0  0  0  0  0
   20.7769    3.5894   56.0830 O   0  0  0  0  0  0  0  0  0  0  0  0
   21.1760    3.4177   58.9113 O   0  0  0  0  0  0  0  0  0  0  0  0
  1  2  1  0  0  0  0
  1 12  1  1  0  0  0
  1 13  1  0  0  0  0
  2  3  1  0  0  0  0
  2 10  1  1  0  0  0
  4  3  1  1  0  0  0
  4  5  1  0  0  0  0
  4 14  1  0  0  0  0
  5  6  1  0  0  0  0
  5 13  1  6  0  0  0
  6  7  1  0  0  0  0
  6 15  1  6  0  0  0
  7  8  1  0  0  0  0
  7 11  1  6  0  0  0
  8 14  1  0  0  0  0
  8 16  1  1  0  0  0
  9 11  1  0  0  0  0
 17 16  1  1  0  0  0
 17 18  1  0  0  0  0
 17 24  1  0  0  0  0
 18 19  1  0  0  0  0
 18 25  1  1  0  0  0
 19 20  1  0  0  0  0
 19 26  1  6  0  0  0
 20 21  1  0  0  0  0
 20 23  1  1  0  0  0
 21 22  1  6  0  0  0
 21 24  1  0  0  0  0
 22 27  1  0  0  0  0
 28 12  1  6  0  0  0
 28 29  1  0  0  0  0
 28 33  1  0  0  0  0
 29 30  1  0  0  0  0
 29 36  1  6  0  0  0
 30 31  1  0  0  0  0
 30 37  1  1  0  0  0
 31 32  1  0  0  0  0
 31 34  1  1  0  0  0
 32 33  1  0  0  0  0
 33 35  1  6  0  0  0
M  END
>  <CHROM.1>
-158.14444921,166.05873652,-170.30626264,-161.29330501,68.59056658,93.08214846
20.50214406,-1.05502520,51.88206337,1.28117936,-1.14570288,0.77165047

>  <Name>
2oe5_lig

>  <RI>
0

>  <Rbt.Current_Directory>
/home/itssahil/PROJECTS/Mol_Feturizer/New_Systems/rnas/2oe5

>  <Rbt.Executable>
rbdock ($Id: //depot/dev/client3/rdock/2013.1/src/exe/rbdock.cxx#4 $)

>  <Rbt.Library>
libRbt.so (2013.1, Build901 2013/11/27)

>  <Rbt.Parameter_File>
/export/apps/rDock/src/rDock_2013.1_src/data/scripts/dock_solv.prm

>  <Rbt.Receptor>
prm/pocket_docking_2.prm

>  <SCORE>
-15.0678

>  <SCORE.INTER>
-11.0246

>  <SCORE.INTER.CONST>
1

>  <SCORE.INTER.POLAR>
-1.52564

>  <SCORE.INTER.ROT>
6

>  <SCORE.INTER.SOLV>
14.9075

>  <SCORE.INTER.VDW>
-14.8334

>  <SCORE.INTER.norm>
-0.297961

>  <SCORE.INTRA>
-4.17288

>  <SCORE.INTRA.DIHEDRAL>
-7.4021

>  <SCORE.INTRA.DIHEDRAL.0>
16.2083

>  <SCORE.INTRA.POLAR>
0

>  <SCORE.INTRA.POLAR.0>
0

>  <SCORE.INTRA.REPUL>
0

>  <SCORE.INTRA.REPUL.0>
0

>  <SCORE.INTRA.SOLV>
-0.694841

>  <SCORE.INTRA.SOLV.lig_0>
-89.8095

>  <SCORE.INTRA.VDW>
-0.124408

>  <SCORE.INTRA.VDW.0>
-3.19502

>  <SCORE.INTRA.norm>
-0.11278

>  <SCORE.RESTR>
0.129662

>  <SCORE.RESTR.CAVITY>
0.129662

>  <SCORE.RESTR.norm>
0.00350438

>  <SCORE.SYSTEM>
0

>  <SCORE.SYSTEM.CONST>
0

>  <SCORE.SYSTEM.DIHEDRAL>
0

>  <SCORE.SYSTEM.SOLV>
0

>  <SCORE.SYSTEM.norm>
0

>  <SCORE.heavy>
37

>  <SCORE.norm>
-0.407237

>  <RMSD>
0.933

$$$$
2oe5_lig
 OpenBabel11021811463D
libRbt.so/2013.1/901 2013/11/27
 37 40  0  0  0  0  0  0  0  0999 V2000
   20.6955    1.8617   54.0451 C   0  0  1  0  0  0  0  0  0  0  0  0
   19.6943    2.3075   52.9560 C   0  0  1  0  0  0  0  0  0  0  0  0
   19.1164    1.0362   52.2300 C   0  0  0  0  0  0  0  0  0  0  0  0
   20.3450    0.3126   51.6348 C   0  0  1  0  0  0  0  0  0  0  0  0
   21.3679   -0.1351   52.7703 C   0  0  1  0  0  0  0  0  0  0  0  0
   22.6077   -0.8714   52.1934 C   0  0  1  0  0  0  0  0  0  0  0  0
   22.0771   -2.1195   51.4321 C   0  0  1  0  0  0  0  0  0  0  0  0
   21.0373   -1.6365   50.3510 C   0  0  2  0  0  0  0  0  0  0  0  0
   23.7857   -2.4253   49.4700 C   0  0  0  0  0  0  0  0  0  0  0  0
   18.5843    3.0711   53.5711 N   0  0  0  0  0  0  0  0  0  0  0  0
   23.2215   -2.8710   50.7917 N   0  0  0  0  0  0  0  0  0  0  0  0
   20.0624    1.0758   55.0681 O   0  0  0  0  0  0  0  0  0  0  0  0
   21.7999    1.0638   53.4917 O   0  0  0  0  0  0  0  0  0  0  0  0
   19.9101   -0.8841   50.9351 O   0  0  0  0  0  0  0  0  0  0  0  0
   23.2904    0.0330   51.3193 O   0  0  0  0  0  0  0  0  0  0  0  0
   20.4849   -2.7516   49.6797 O   0  0  0  0  0  0  0  0  0  0  0  0
   19.7559   -2.3259   48.5437 C   0  0  2  0  0  0  0  0  0  0  0  0
   18.5555   -3.2260   48.2534 C   0  0  1  0  0  0  0  0  0  0  0  0
   19.0094   -4.6655   47.8862 C   0  0  2  0  0  0  0  0  0  0  0  0
   19.9649   -4.5577   46.6610 C   0  0  1  0  0  0  0  0  0  0  0  0
   21.1794   -3.6598   47.0674 C   0  0  1  0  0  0  0  0  0  0  0  0
   22.1529   -3.4419   45.9306 C   0  0  0  0  0  0  0  0  0  0  0  0
   20.4104   -5.9544   46.2936 N   0  0  0  0  0  0  0  0  0  0  0  0
   20.6612   -2.3263   47.3956 O   0  0  0  0  0  0  0  0  0  0  0  0
   17.7255   -3.2350   49.4319 O   0  0  0  0  0  0  0  0  0  0  0  0
   17.8409   -5.4221   47.5212 O   0  0  0  0  0  0  0  0  0  0  0  0
   21.5060   -3.1241   44.7460 O   0  0  0  0  0  0  0  0  0  0  0  0
   20.7395    1.0973   56.3250 C   0  0  1  0  0  0  0  0  0  0  0  0
   20.4856    2.4702   57.0444 C   0  0  1  0  0  0  0  0  0  0  0  0
   21.2285    2.4645   58.4288 C   0  0  2  0  0  0  0  0  0  0  0  0
   20.6769    1.3234   59.2967 C   0  0  1  0  0  0  0  0  0  0  0  0
   20.9454   -0.0557   58.5795 C   0  0  0  0  0  0  0  0  0  0  0  0
   20.2123   -0.0467   57.1806 C   0  0  2  0  0  0  0  0  0  0  0  0
   21.3586    1.3409   60.5805 N   0  0  0  0  0  0  0  0  0  0  0  0
   20.4595   -1.3240   56.4613 N   0  0  0  0  0  0  0  0  0  0  0  0
   21.0066    3.5555   56.2246 O   0  0  0  0  0  0  0  0  0  0  0  0
   20.9891    3.6822   59.0832 O   0  0  0  0  0  0  0  0  0  0  0  0
  1  2  1  0  0  0  0
  1 12  1  1  0  0  0
  1 13  1  0  0  0  0
  2  3  1  0  0  0  0
  2 10  1  1  0  0  0
  4  3  1  1  0  0  0
  4  5  1  0  0  0  0
  4 14  1  0  0  0  0
  5  6  1  0  0  0  0
  5 13  1  6  0  0  0
  6  7  1  0  0  0  0
  6 15  1  6  0  0  0
  7  8  1  0  0  0  0
  7 11  1  6  0  0  0
  8 14  1  0  0  0  0
  8 16  1  1  0  0  0
  9 11  1  0  0  0  0
 17 16  1  1  0  0  0
 17 18  1  0  0  0  0
 17 24  1  0  0  0  0
 18 19  1  0  0  0  0
 18 25  1  1  0  0  0
 19 20  1  0  0  0  0
 19 26  1  6  0  0  0
 20 21  1  0  0  0  0
 20 23  1  1  0  0  0
 21 22  1  6  0  0  0
 21 24  1  0  0  0  0
 22 27  1  0  0  0  0
 28 12  1  6  0  0  0
 28 29  1  0  0  0  0
 28 33  1  0  0  0  0
 29 30  1  0  0  0  0
 29 36  1  6  0  0  0
 30 31  1  0  0  0  0
 30 37  1  1  0  0  0
 31 32  1  0  0  0  0
 31 34  1  1  0  0  0
 32 33  1  0  0  0  0
 33 35  1  6  0  0  0
M  END
>  <CHROM.1>
-155.55916857,-81.96452027,-168.64071201,-147.28660052,45.62475787,75.15372791
20.67559453,-0.82594621,52.13647662,-1.53652492,-0.35435847,-2.06266624

>  <Name>
2oe5_lig

>  <RI>
0

>  <Rbt.Current_Directory>
/home/itssahil/PROJECTS/Mol_Feturizer/New_Systems/rnas/2oe5

>  <Rbt.Executable>
rbdock ($Id: //depot/dev/client3/rdock/2013.1/src/exe/rbdock.cxx#4 $)

>  <Rbt.Library>
libRbt.so (2013.1, Build901 2013/11/27)

>  <Rbt.Parameter_File>
/export/apps/rDock/src/rDock_2013.1_src/data/scripts/dock_solv.prm

>  <Rbt.Receptor>
prm/pocket_docking_2.prm

>  <SCORE>
-13.1563

>  <SCORE.INTER>
-10.7113

>  <SCORE.INTER.CONST>
1

>  <SCORE.INTER.POLAR>
-1.30983

>  <SCORE.INTER.ROT>
6

>  <SCORE.INTER.SOLV>
15.9108

>  <SCORE.INTER.VDW>
-15.6784

>  <SCORE.INTER.norm>
-0.289494

>  <SCORE.INTRA>
-2.55544

>  <SCORE.INTRA.DIHEDRAL>
-6.70998

>  <SCORE.INTRA.DIHEDRAL.0>
16.2083

>  <SCORE.INTRA.POLAR>
0

>  <SCORE.INTRA.POLAR.0>
0

>  <SCORE.INTRA.REPUL>
0

>  <SCORE.INTRA.REPUL.0>
0

>  <SCORE.INTRA.SOLV>
-1.0599

>  <SCORE.INTRA.SOLV.lig_0>
-89.8095

>  <SCORE.INTRA.VDW>
1.3295

>  <SCORE.INTRA.VDW.0>
-3.19502

>  <SCORE.INTRA.norm>
-0.069066

>  <SCORE.RESTR>
0.110395

>  <SCORE.RESTR.CAVITY>
0.110395

>  <SCORE.RESTR.norm>
0.00298364

>  <SCORE.SYSTEM>
0

>  <SCORE.SYSTEM.CONST>
0

>  <SCORE.SYSTEM.DIHEDRAL>
0

>  <SCORE.SYSTEM.SOLV>
0

>  <SCORE.SYSTEM.norm>
0

>  <SCORE.heavy>
37

>  <SCORE.norm>
-0.355577

>  <RMSD>
0.968

$$$$
2oe5_lig
 OpenBabel11021811463D
libRbt.so/2013.1/901 2013/11/27
 37 40  0  0  0  0  0  0  0  0999 V2000
   20.8939    1.4505   53.6453 C   0  0  1  0  0  0  0  0  0  0  0  0
   19.7011    1.8864   52.7652 C   0  0  1  0  0  0  0  0  0  0  0  0
   19.1048    0.6250   52.0368 C   0  0  0  0  0  0  0  0  0  0  0  0
   20.2692    0.0484   51.2007 C   0  0  1  0  0  0  0  0  0  0  0  0
   21.4910   -0.3908   52.1230 C   0  0  1  0  0  0  0  0  0  0  0  0
   22.6703   -0.9804   51.3021 C   0  0  1  0  0  0  0  0  0  0  0  0
   22.1132   -2.2123   50.5335 C   0  0  1  0  0  0  0  0  0  0  0  0
   20.8811   -1.7432   49.6703 C   0  0  2  0  0  0  0  0  0  0  0  0
   23.2614   -4.3101   49.4641 C   0  0  0  0  0  0  0  0  0  0  0  0
   18.6538    2.5112   53.6057 N   0  0  0  0  0  0  0  0  0  0  0  0
   23.1893   -2.8205   49.6637 N   0  0  0  0  0  0  0  0  0  0  0  0
   20.4913    0.5461   54.6868 O   0  0  0  0  0  0  0  0  0  0  0  0
   21.9481    0.7869   52.8636 O   0  0  0  0  0  0  0  0  0  0  0  0
   19.8127   -1.1289   50.4821 O   0  0  0  0  0  0  0  0  0  0  0  0
   23.1373    0.0357   50.4091 O   0  0  0  0  0  0  0  0  0  0  0  0
   20.3076   -2.8510   49.0045 O   0  0  0  0  0  0  0  0  0  0  0  0
   19.3965   -2.4086   48.0160 C   0  0  2  0  0  0  0  0  0  0  0  0
   18.1602   -3.3024   47.9243 C   0  0  1  0  0  0  0  0  0  0  0  0
   18.5383   -4.7377   47.4662 C   0  0  2  0  0  0  0  0  0  0  0  0
   19.2700   -4.6154   46.0967 C   0  0  1  0  0  0  0  0  0  0  0  0
   20.5400   -3.7255   46.3003 C   0  0  1  0  0  0  0  0  0  0  0  0
   21.3052   -3.4944   45.0164 C   0  0  0  0  0  0  0  0  0  0  0  0
   19.6398   -6.0080   45.6405 N   0  0  0  0  0  0  0  0  0  0  0  0
   20.0915   -2.3955   46.7297 O   0  0  0  0  0  0  0  0  0  0  0  0
   17.5446   -3.3254   49.2274 O   0  0  0  0  0  0  0  0  0  0  0  0
   17.3213   -5.4870   47.2973 O   0  0  0  0  0  0  0  0  0  0  0  0
   20.6420   -2.6229   44.1659 O   0  0  0  0  0  0  0  0  0  0  0  0
   21.0884    0.8129   55.9560 C   0  0  1  0  0  0  0  0  0  0  0  0
   20.5147    2.1512   56.5448 C   0  0  1  0  0  0  0  0  0  0  0  0
   21.1758    2.4161   57.9453 C   0  0  2  0  0  0  0  0  0  0  0  0
   20.8393    1.2553   58.8935 C   0  0  1  0  0  0  0  0  0  0  0  0
   21.4284   -0.0857   58.3080 C   0  0  0  0  0  0  0  0  0  0  0  0
   20.7769   -0.3463   56.8930 C   0  0  2  0  0  0  0  0  0  0  0  0
   21.4404    1.5213   60.1900 N   0  0  0  0  0  0  0  0  0  0  0  0
   21.3237   -1.5930   56.2958 N   0  0  0  0  0  0  0  0  0  0  0  0
   20.8309    3.2549   55.6484 O   0  0  0  0  0  0  0  0  0  0  0  0
   20.6523    3.6013   58.4832 O   0  0  0  0  0  0  0  0  0  0  0  0
  1  2  1  0  0  0  0
  1 12  1  1  0  0  0
  1 13  1  0  0  0  0
  2  3  1  0  0  0  0
  2 10  1  1  0  0  0
  4  3  1  1  0  0  0
  4  5  1  0  0  0  0
  4 14  1  0  0  0  0
  5  6  1  0  0  0  0
  5 13  1  6  0  0  0
  6  7  1  0  0  0  0
  6 15  1  6  0  0  0
  7  8  1  0  0  0  0
  7 11  1  6  0  0  0
  8 14  1  0  0  0  0
  8 16  1  1  0  0  0
  9 11  1  0  0  0  0
 17 16  1  1  0  0  0
 17 18  1  0  0  0  0
 17 24  1  0  0  0  0
 18 19  1  0  0  0  0
 18 25  1  1  0  0  0
 19 20  1  0  0  0  0
 19 26  1  6  0  0  0
 20 21  1  0  0  0  0
 20 23  1  1  0  0  0
 21 22  1  6  0  0  0
 21 24  1  0  0  0  0
 22 27  1  0  0  0  0
 28 12  1  6  0  0  0
 28 29  1  0  0  0  0
 28 33  1  0  0  0  0
 29 30  1  0  0  0  0
 29 36  1  6  0  0  0
 30 31  1  0  0  0  0
 30 37  1  1  0  0  0
 31 32  1  0  0  0  0
 31 34  1  1  0  0  0
 32 33  1  0  0  0  0
 33 35  1  6  0  0  0
M  END
>  <CHROM.1>
-137.44617677,144.31356581,-167.47264210,-141.91871307,72.59452100,69.43370926
20.54739944,-1.02414181,51.63970430,-1.48346522,-0.07418695,-2.05012270

>  <Name>
2oe5_lig

>  <RI>
0

>  <Rbt.Current_Directory>
/home/itssahil/PROJECTS/Mol_Feturizer/New_Systems/rnas/2oe5

>  <Rbt.Executable>
rbdock ($Id: //depot/dev/client3/rdock/2013.1/src/exe/rbdock.cxx#4 $)

>  <Rbt.Library>
libRbt.so (2013.1, Build901 2013/11/27)

>  <Rbt.Parameter_File>
/export/apps/rDock/src/rDock_2013.1_src/data/scripts/dock_solv.prm

>  <Rbt.Receptor>
prm/pocket_docking_2.prm

>  <SCORE>
-16.9066

>  <SCORE.INTER>
-15.6643

>  <SCORE.INTER.CONST>
1

>  <SCORE.INTER.POLAR>
-2.06048

>  <SCORE.INTER.ROT>
6

>  <SCORE.INTER.SOLV>
15.8747

>  <SCORE.INTER.VDW>
-16.4661

>  <SCORE.INTER.norm>
-0.423358

>  <SCORE.INTRA>
-1.48398

>  <SCORE.INTRA.DIHEDRAL>
-2.8271

>  <SCORE.INTRA.DIHEDRAL.0>
16.2083

>  <SCORE.INTRA.POLAR>
0

>  <SCORE.INTRA.POLAR.0>
0

>  <SCORE.INTRA.REPUL>
0

>  <SCORE.INTRA.REPUL.0>
0

>  <SCORE.INTRA.SOLV>
-1.12916

>  <SCORE.INTRA.SOLV.lig_0>
-89.8095

>  <SCORE.INTRA.VDW>
0.494148

>  <SCORE.INTRA.VDW.0>
-3.19502

>  <SCORE.INTRA.norm>
-0.0401075

>  <SCORE.RESTR>
0.241586

>  <SCORE.RESTR.CAVITY>
0.241586

>  <SCORE.RESTR.norm>
0.00652935

>  <SCORE.SYSTEM>
0

>  <SCORE.SYSTEM.CONST>
0

>  <SCORE.SYSTEM.DIHEDRAL>
0

>  <SCORE.SYSTEM.SOLV>
0

>  <SCORE.SYSTEM.norm>
0

>  <SCORE.heavy>
37

>  <SCORE.norm>
-0.456936

>  <RMSD>
0.970

$$$$
2oe5_lig
 OpenBabel11021811463D
libRbt.so/2013.1/901 2013/11/27
 37 40  0  0  0  0  0  0  0  0999 V2000
   20.8212    1.8514   53.6052 C   0  0  1  0  0  0  0  0  0  0  0  0
   19.5328    2.1226   52.7965 C   0  0  1  0  0  0  0  0  0  0  0  0
   19.0275    0.7759   52.1576 C   0  0  0  0  0  0  0  0  0  0  0  0
   20.1886    0.2881   51.2625 C   0  0  1  0  0  0  0  0  0  0  0  0
   21.5089    0.0185   52.1113 C   0  0  1  0  0  0  0  0  0  0  0  0
   22.6872   -0.4801   51.2309 C   0  0  1  0  0  0  0  0  0  0  0  0
   22.2149   -1.7952   50.5481 C   0  0  1  0  0  0  0  0  0  0  0  0
   20.8852   -1.4943   49.7578 C   0  0  2  0  0  0  0  0  0  0  0  0
   24.3061   -3.3156   50.1261 C   0  0  0  0  0  0  0  0  0  0  0  0
   18.4831    2.6707   53.6860 N   0  0  0  0  0  0  0  0  0  0  0  0
   23.2896   -2.3250   49.6268 N   0  0  0  0  0  0  0  0  0  0  0  0
   20.5875    0.9556   54.7042 O   0  0  0  0  0  0  0  0  0  0  0  0
   21.8859    1.2680   52.7753 O   0  0  0  0  0  0  0  0  0  0  0  0
   19.8136   -0.9601   50.6204 O   0  0  0  0  0  0  0  0  0  0  0  0
   22.9828    0.5398   50.2713 O   0  0  0  0  0  0  0  0  0  0  0  0
   20.3903   -2.6833   49.1742 O   0  0  0  0  0  0  0  0  0  0  0  0
   19.5092   -2.3752   48.1103 C   0  0  2  0  0  0  0  0  0  0  0  0
   18.3349   -3.3498   48.0282 C   0  0  1  0  0  0  0  0  0  0  0  0
   18.8216   -4.7887   47.7033 C   0  0  2  0  0  0  0  0  0  0  0  0
   19.6177   -4.7238   46.3662 C   0  0  1  0  0  0  0  0  0  0  0  0
   20.8198   -3.7425   46.5617 C   0  0  1  0  0  0  0  0  0  0  0  0
   21.6381   -3.5608   45.3028 C   0  0  0  0  0  0  0  0  0  0  0  0
   20.0935   -6.1206   46.0395 N   0  0  0  0  0  0  0  0  0  0  0  0
   20.2707   -2.4150   46.8627 O   0  0  0  0  0  0  0  0  0  0  0  0
   17.6522   -3.3135   49.2972 O   0  0  0  0  0  0  0  0  0  0  0  0
   17.6621   -5.6241   47.5340 O   0  0  0  0  0  0  0  0  0  0  0  0
   20.8815   -3.0463   44.2609 O   0  0  0  0  0  0  0  0  0  0  0  0
   21.6010    0.9865   55.7094 C   0  0  1  0  0  0  0  0  0  0  0  0
   21.3016    2.1386   56.7340 C   0  0  1  0  0  0  0  0  0  0  0  0
   22.4214    2.1439   57.8359 C   0  0  2  0  0  0  0  0  0  0  0  0
   22.4184    0.7943   58.5697 C   0  0  1  0  0  0  0  0  0  0  0  0
   22.7334   -0.3603   57.5421 C   0  0  0  0  0  0  0  0  0  0  0  0
   21.6175   -0.3578   56.4244 C   0  0  2  0  0  0  0  0  0  0  0  0
   23.4454    0.8189   59.5981 N   0  0  0  0  0  0  0  0  0  0  0  0
   21.8908   -1.4203   55.4212 N   0  0  0  0  0  0  0  0  0  0  0  0
   21.3028    3.4205   56.0423 O   0  0  0  0  0  0  0  0  0  0  0  0
   22.1477    3.1599   58.7638 O   0  0  0  0  0  0  0  0  0  0  0  0
  1  2  1  0  0  0  0
  1 12  1  1  0  0  0
  1 13  1  0  0  0  0
  2  3  1  0  0  0  0
  2 10  1  1  0  0  0
  4  3  1  1  0  0  0
  4  5  1  0  0  0  0
  4 14  1  0  0  0  0
  5  6  1  0  0  0  0
  5 13  1  6  0  0  0
  6  7  1  0  0  0  0
  6 15  1  6  0  0  0
  7  8  1  0  0  0  0
  7 11  1  6  0  0  0
  8 14  1  0  0  0  0
  8 16  1  1  0  0  0
  9 11  1  0  0  0  0
 17 16  1  1  0  0  0
 17 18  1  0  0  0  0
 17 24  1  0  0  0  0
 18 19  1  0  0  0  0
 18 25  1  1  0  0  0
 19 20  1  0  0  0  0
 19 26  1  6  0  0  0
 20 21  1  0  0  0  0
 20 23  1  1  0  0  0
 21 22  1  6  0  0  0
 21 24  1  0  0  0  0
 22 27  1  0  0  0  0
 28 12  1  6  0  0  0
 28 29  1  0  0  0  0
 28 33  1  0  0  0  0
 29 30  1  0  0  0  0
 29 36  1  6  0  0  0
 30 31  1  0  0  0  0
 30 37  1  1  0  0  0
 31 32  1  0  0  0  0
 31 34  1  1  0  0  0
 32 33  1  0  0  0  0
 33 35  1  6  0  0  0
M  END
>  <CHROM.1>
-161.72394575,92.03786497,-159.44615692,-143.31736109,60.13739233,85.55475539
20.93185217,-0.93164932,51.66361407,1.39597494,-0.43789978,0.99630510

>  <Name>
2oe5_lig

>  <RI>
0

>  <Rbt.Current_Directory>
/home/itssahil/PROJECTS/Mol_Feturizer/New_Systems/rnas/2oe5

>  <Rbt.Executable>
rbdock ($Id: //depot/dev/client3/rdock/2013.1/src/exe/rbdock.cxx#4 $)

>  <Rbt.Library>
libRbt.so (2013.1, Build901 2013/11/27)

>  <Rbt.Parameter_File>
/export/apps/rDock/src/rDock_2013.1_src/data/scripts/dock_solv.prm

>  <Rbt.Receptor>
prm/pocket_docking_3.prm

>  <SCORE>
-18.4488

>  <SCORE.INTER>
-15.4228

>  <SCORE.INTER.CONST>
1

>  <SCORE.INTER.POLAR>
-1.48178

>  <SCORE.INTER.ROT>
6

>  <SCORE.INTER.SOLV>
16.2851

>  <SCORE.INTER.VDW>
-18.3709

>  <SCORE.INTER.norm>
-0.416832

>  <SCORE.INTRA>
-3.02651

>  <SCORE.INTRA.DIHEDRAL>
-4.46744

>  <SCORE.INTRA.DIHEDRAL.0>
16.2083

>  <SCORE.INTRA.POLAR>
0

>  <SCORE.INTRA.POLAR.0>
0

>  <SCORE.INTRA.REPUL>
0

>  <SCORE.INTRA.REPUL.0>
0

>  <SCORE.INTRA.SOLV>
-1.04286

>  <SCORE.INTRA.SOLV.lig_0>
-89.8095

>  <SCORE.INTRA.VDW>
-0.271358

>  <SCORE.INTRA.VDW.0>
-3.19502

>  <SCORE.INTRA.norm>
-0.0817975

>  <SCORE.RESTR>
0.000480182

>  <SCORE.RESTR.CAVITY>
0.000480182

>  <SCORE.RESTR.norm>
1.29779e-05

>  <SCORE.SYSTEM>
0

>  <SCORE.SYSTEM.CONST>
0

>  <SCORE.SYSTEM.DIHEDRAL>
0

>  <SCORE.SYSTEM.SOLV>
0

>  <SCORE.SYSTEM.norm>
0

>  <SCORE.heavy>
37

>  <SCORE.norm>
-0.498616

>  <RMSD>
0.976

$$$$
2oe5_lig
 OpenBabel11021811463D
libRbt.so/2013.1/901 2013/11/27
 37 40  0  0  0  0  0  0  0  0999 V2000
   21.0837    1.0566   53.6619 C   0  0  1  0  0  0  0  0  0  0  0  0
   20.1740    1.7318   52.6112 C   0  0  1  0  0  0  0  0  0  0  0  0
   19.2720    0.6391   51.9261 C   0  0  0  0  0  0  0  0  0  0  0  0
   20.2595   -0.3633   51.2877 C   0  0  1  0  0  0  0  0  0  0  0  0
   21.1918   -1.0456   52.3840 C   0  0  1  0  0  0  0  0  0  0  0  0
   22.1879   -2.0631   51.7637 C   0  0  1  0  0  0  0  0  0  0  0  0
   21.3358   -3.1449   51.0409 C   0  0  1  0  0  0  0  0  0  0  0  0
   20.3982   -2.4242   49.9994 C   0  0  2  0  0  0  0  0  0  0  0  0
   23.2457   -3.7123   49.3400 C   0  0  0  0  0  0  0  0  0  0  0  0
   19.3121    2.7441   53.2639 N   0  0  0  0  0  0  0  0  0  0  0  0
   22.2328   -4.1538   50.3614 N   0  0  0  0  0  0  0  0  0  0  0  0
   20.3241    0.4504   54.7205 O   0  0  0  0  0  0  0  0  0  0  0  0
   21.9346    0.0126   53.0716 O   0  0  0  0  0  0  0  0  0  0  0  0
   19.5155   -1.4187   50.6219 O   0  0  0  0  0  0  0  0  0  0  0  0
   23.0309   -1.3538   50.8503 O   0  0  0  0  0  0  0  0  0  0  0  0
   19.5614   -3.3716   49.3658 O   0  0  0  0  0  0  0  0  0  0  0  0
   18.8398   -2.7595   48.3134 C   0  0  2  0  0  0  0  0  0  0  0  0
   17.6555   -3.6077   47.8513 C   0  0  1  0  0  0  0  0  0  0  0  0
   18.1337   -4.9537   47.2409 C   0  0  2  0  0  0  0  0  0  0  0  0
   19.1019   -4.6189   46.0676 C   0  0  1  0  0  0  0  0  0  0  0  0
   20.2989   -3.7934   46.6438 C   0  0  1  0  0  0  0  0  0  0  0  0
   21.2824   -3.3658   45.5774 C   0  0  0  0  0  0  0  0  0  0  0  0
   19.5709   -5.9229   45.4646 N   0  0  0  0  0  0  0  0  0  0  0  0
   19.7584   -2.5455   47.1961 O   0  0  0  0  0  0  0  0  0  0  0  0
   16.8121   -3.8354   48.9978 O   0  0  0  0  0  0  0  0  0  0  0  0
   16.9802   -5.6470   46.7312 O   0  0  0  0  0  0  0  0  0  0  0  0
   20.7227   -2.4634   44.6858 O   0  0  0  0  0  0  0  0  0  0  0  0
   20.8888    0.6261   56.0200 C   0  0  1  0  0  0  0  0  0  0  0  0
   19.7643    1.0269   57.0408 C   0  0  1  0  0  0  0  0  0  0  0  0
   20.4070    1.2012   58.4638 C   0  0  2  0  0  0  0  0  0  0  0  0
   21.0430   -0.1273   58.9001 C   0  0  1  0  0  0  0  0  0  0  0  0
   22.1817   -0.5211   57.8820 C   0  0  0  0  0  0  0  0  0  0  0  0
   21.5409   -0.6818   56.4475 C   0  0  2  0  0  0  0  0  0  0  0  0
   21.6170    0.0420   60.2249 N   0  0  0  0  0  0  0  0  0  0  0  0
   22.5878   -1.0322   55.4519 N   0  0  0  0  0  0  0  0  0  0  0  0
   19.1578    2.2860   56.6305 O   0  0  0  0  0  0  0  0  0  0  0  0
   19.4027    1.5412   59.3825 O   0  0  0  0  0  0  0  0  0  0  0  0
  1  2  1  0  0  0  0
  1 12  1  1  0  0  0
  1 13  1  0  0  0  0
  2  3  1  0  0  0  0
  2 10  1  1  0  0  0
  4  3  1  1  0  0  0
  4  5  1  0  0  0  0
  4 14  1  0  0  0  0
  5  6  1  0  0  0  0
  5 13  1  6  0  0  0
  6  7  1  0  0  0  0
  6 15  1  6  0  0  0
  7  8  1  0  0  0  0
  7 11  1  6  0  0  0
  8 14  1  0  0  0  0
  8 16  1  1  0  0  0
  9 11  1  0  0  0  0
 17 16  1  1  0  0  0
 17 18  1  0  0  0  0
 17 24  1  0  0  0  0
 18 19  1  0  0  0  0
 18 25  1  1  0  0  0
 19 20  1  0  0  0  0
 19 26  1  6  0  0  0
 20 21  1  0  0  0  0
 20 23  1  1  0  0  0
 21 22  1  6  0  0  0
 21 24  1  0  0  0  0
 22 27  1  0  0  0  0
 28 12  1  6  0  0  0
 28 29  1  0  0  0  0
 28 33  1  0  0  0  0
 29 30  1  0  0  0  0
 29 36  1  6  0  0  0
 30 31  1  0  0  0  0
 30 37  1  1  0  0  0
 31 32  1  0  0  0  0
 31 34  1  1  0  0  0
 32 33  1  0  0  0  0
 33 35  1  6  0  0  0
M  END
>  <CHROM.1>
-139.65445863,-57.41742493,-172.60031688,-164.08062350,66.01480751,135.34731243
20.32976823,-1.50847181,51.78043350,-1.45872564,0.27640623,-2.03245866

>  <Name>
2oe5_lig

>  <RI>
0

>  <Rbt.Current_Directory>
/home/itssahil/PROJECTS/Mol_Feturizer/New_Systems/rnas/2oe5

>  <Rbt.Executable>
rbdock ($Id: //depot/dev/client3/rdock/2013.1/src/exe/rbdock.cxx#4 $)

>  <Rbt.Library>
libRbt.so (2013.1, Build901 2013/11/27)

>  <Rbt.Parameter_File>
/export/apps/rDock/src/rDock_2013.1_src/data/scripts/dock_solv.prm

>  <Rbt.Receptor>
prm/pocket_docking_2.prm

>  <SCORE>
-14.8955

>  <SCORE.INTER>
-15.2853

>  <SCORE.INTER.CONST>
1

>  <SCORE.INTER.POLAR>
-1.77838

>  <SCORE.INTER.ROT>
6

>  <SCORE.INTER.SOLV>
13.0707

>  <SCORE.INTER.VDW>
-16.2192

>  <SCORE.INTER.norm>
-0.413116

>  <SCORE.INTRA>
0.254093

>  <SCORE.INTRA.DIHEDRAL>
-3.05476

>  <SCORE.INTRA.DIHEDRAL.0>
16.2083

>  <SCORE.INTRA.POLAR>
0

>  <SCORE.INTRA.POLAR.0>
0

>  <SCORE.INTRA.REPUL>
0

>  <SCORE.INTRA.REPUL.0>
0

>  <SCORE.INTRA.SOLV>
0.765261

>  <SCORE.INTRA.SOLV.lig_0>
-89.8095

>  <SCORE.INTRA.VDW>
1.39884

>  <SCORE.INTRA.VDW.0>
-3.19502

>  <SCORE.INTRA.norm>
0.00686738

>  <SCORE.RESTR>
0.135699

>  <SCORE.RESTR.CAVITY>
0.135699

>  <SCORE.RESTR.norm>
0.00366754

>  <SCORE.SYSTEM>
0

>  <SCORE.SYSTEM.CONST>
0

>  <SCORE.SYSTEM.DIHEDRAL>
0

>  <SCORE.SYSTEM.SOLV>
0

>  <SCORE.SYSTEM.norm>
0

>  <SCORE.heavy>
37

>  <SCORE.norm>
-0.402581

>  <RMSD>
0.981

$$$$
2oe5_lig
 OpenBabel11021811463D
libRbt.so/2013.1/901 2013/11/27
 37 40  0  0  0  0  0  0  0  0999 V2000
   20.9410    1.9472   53.5953 C   0  0  1  0  0  0  0  0  0  0  0  0
   19.6934    2.2653   52.7412 C   0  0  1  0  0  0  0  0  0  0  0  0
   19.1200    0.9281   52.1410 C   0  0  0  0  0  0  0  0  0  0  0  0
   20.2702    0.3331   51.2981 C   0  0  1  0  0  0  0  0  0  0  0  0
   21.5488    0.0161   52.1932 C   0  0  1  0  0  0  0  0  0  0  0  0
   22.7151   -0.5901   51.3659 C   0  0  1  0  0  0  0  0  0  0  0  0
   22.1778   -1.8996   50.7216 C   0  0  1  0  0  0  0  0  0  0  0  0
   20.8903   -1.5486   49.8835 C   0  0  2  0  0  0  0  0  0  0  0  0
   23.2589   -4.0197   49.6265 C   0  0  0  0  0  0  0  0  0  0  0  0
   18.6583    2.9133   53.5791 N   0  0  0  0  0  0  0  0  0  0  0  0
   23.2398   -2.5322   49.8518 N   0  0  0  0  0  0  0  0  0  0  0  0
   20.6232    1.1128   54.7212 O   0  0  0  0  0  0  0  0  0  0  0  0
   21.9873    1.2655   52.8186 O   0  0  0  0  0  0  0  0  0  0  0  0
   19.8332   -0.9141   50.6946 O   0  0  0  0  0  0  0  0  0  0  0  0
   23.0990    0.3698   50.3762 O   0  0  0  0  0  0  0  0  0  0  0  0
   20.3359   -2.7270   49.3327 O   0  0  0  0  0  0  0  0  0  0  0  0
   19.5305   -2.4107   48.2128 C   0  0  2  0  0  0  0  0  0  0  0  0
   18.3747   -3.3942   48.0326 C   0  0  1  0  0  0  0  0  0  0  0  0
   18.8977   -4.8238   47.7229 C   0  0  2  0  0  0  0  0  0  0  0  0
   19.7870   -4.7318   46.4476 C   0  0  1  0  0  0  0  0  0  0  0  0
   20.9622   -3.7430   46.7430 C   0  0  1  0  0  0  0  0  0  0  0  0
   21.8669   -3.5352   45.5489 C   0  0  0  0  0  0  0  0  0  0  0  0
   20.2988   -6.1192   46.1358 N   0  0  0  0  0  0  0  0  0  0  0  0
   20.3799   -2.4251   47.0228 O   0  0  0  0  0  0  0  0  0  0  0  0
   17.6025   -3.3831   49.2496 O   0  0  0  0  0  0  0  0  0  0  0  0
   17.7616   -5.6667   47.4587 O   0  0  0  0  0  0  0  0  0  0  0  0
   21.1691   -3.0773   44.4416 O   0  0  0  0  0  0  0  0  0  0  0  0
   21.6123    1.1184   55.7509 C   0  0  1  0  0  0  0  0  0  0  0  0
   21.2947    2.2528   56.7897 C   0  0  1  0  0  0  0  0  0  0  0  0
   22.3876    2.2303   57.9182 C   0  0  2  0  0  0  0  0  0  0  0  0
   22.3592    0.8672   58.6258 C   0  0  1  0  0  0  0  0  0  0  0  0
   22.6924   -0.2697   57.5843 C   0  0  0  0  0  0  0  0  0  0  0  0
   21.6039   -0.2392   56.4404 C   0  0  2  0  0  0  0  0  0  0  0  0
   23.3612    0.8661   59.6790 N   0  0  0  0  0  0  0  0  0  0  0  0
   21.8953   -1.2842   55.4240 N   0  0  0  0  0  0  0  0  0  0  0  0
   21.3199    3.5475   56.1229 O   0  0  0  0  0  0  0  0  0  0  0  0
   22.0972    3.2303   58.8584 O   0  0  0  0  0  0  0  0  0  0  0  0
  1  2  1  0  0  0  0
  1 12  1  1  0  0  0
  1 13  1  0  0  0  0
  2  3  1  0  0  0  0
  2 10  1  1  0  0  0
  4  3  1  1  0  0  0
  4  5  1  0  0  0  0
  4 14  1  0  0  0  0
  5  6  1  0  0  0  0
  5 13  1  6  0  0  0
  6  7  1  0  0  0  0
  6 15  1  6  0  0  0
  7  8  1  0  0  0  0
  7 11  1  6  0  0  0
  8 14  1  0  0  0  0
  8 16  1  1  0  0  0
  9 11  1  0  0  0  0
 17 16  1  1  0  0  0
 17 18  1  0  0  0  0
 17 24  1  0  0  0  0
 18 19  1  0  0  0  0
 18 25  1  1  0  0  0
 19 20  1  0  0  0  0
 19 26  1  6  0  0  0
 20 21  1  0  0  0  0
 20 23  1  1  0  0  0
 21 22  1  6  0  0  0
 21 24  1  0  0  0  0
 22 27  1  0  0  0  0
 28 12  1  6  0  0  0
 28 29  1  0  0  0  0
 28 33  1  0  0  0  0
 29 30  1  0  0  0  0
 29 36  1  6  0  0  0
 30 31  1  0  0  0  0
 30 37  1  1  0  0  0
 31 32  1  0  0  0  0
 31 34  1  1  0  0  0
 32 33  1  0  0  0  0
 33 35  1  6  0  0  0
M  END
>  <CHROM.1>
-161.86547246,152.06366310,-157.97003780,-149.45042812,57.01367156,90.29912181
20.95378585,-0.92758292,51.71663689,1.38537224,-0.65262814,0.93956272

>  <Name>
2oe5_lig

>  <RI>
0

>  <Rbt.Current_Directory>
/home/itssahil/PROJECTS/Mol_Feturizer/New_Systems/rnas/2oe5

>  <Rbt.Executable>
rbdock ($Id: //depot/dev/client3/rdock/2013.1/src/exe/rbdock.cxx#4 $)

>  <Rbt.Library>
libRbt.so (2013.1, Build901 2013/11/27)

>  <Rbt.Parameter_File>
/export/apps/rDock/src/rDock_2013.1_src/data/scripts/dock_solv.prm

>  <Rbt.Receptor>
prm/pocket_docking_3.prm

>  <SCORE>
-18.119

>  <SCORE.INTER>
-14.8236

>  <SCORE.INTER.CONST>
1

>  <SCORE.INTER.POLAR>
-1.47575

>  <SCORE.INTER.ROT>
6

>  <SCORE.INTER.SOLV>
14.8816

>  <SCORE.INTER.VDW>
-17.5237

>  <SCORE.INTER.norm>
-0.400637

>  <SCORE.INTRA>
-3.29542

>  <SCORE.INTRA.DIHEDRAL>
-4.57749

>  <SCORE.INTRA.DIHEDRAL.0>
16.2083

>  <SCORE.INTRA.POLAR>
0

>  <SCORE.INTRA.POLAR.0>
0

>  <SCORE.INTRA.REPUL>
0

>  <SCORE.INTRA.REPUL.0>
0

>  <SCORE.INTRA.SOLV>
-0.62102

>  <SCORE.INTRA.SOLV.lig_0>
-89.8095

>  <SCORE.INTRA.VDW>
-0.696168

>  <SCORE.INTRA.VDW.0>
-3.19502

>  <SCORE.INTRA.norm>
-0.0890654

>  <SCORE.RESTR>
0

>  <SCORE.RESTR.CAVITY>
0

>  <SCORE.RESTR.norm>
0

>  <SCORE.SYSTEM>
0

>  <SCORE.SYSTEM.CONST>
0

>  <SCORE.SYSTEM.DIHEDRAL>
0

>  <SCORE.SYSTEM.SOLV>
0

>  <SCORE.SYSTEM.norm>
0

>  <SCORE.heavy>
37

>  <SCORE.norm>
-0.489702

>  <RMSD>
0.992

$$$$
2oe5_lig
 OpenBabel11021811463D
libRbt.so/2013.1/901 2013/11/27
 37 40  0  0  0  0  0  0  0  0999 V2000
   20.7075    1.6395   53.7685 C   0  0  1  0  0  0  0  0  0  0  0  0
   19.5403    2.0411   52.8393 C   0  0  1  0  0  0  0  0  0  0  0  0
   19.0720    0.7818   52.0195 C   0  0  0  0  0  0  0  0  0  0  0  0
   20.3181    0.3231   51.2292 C   0  0  1  0  0  0  0  0  0  0  0  0
   21.5121   -0.0821   52.2022 C   0  0  1  0  0  0  0  0  0  0  0  0
   22.7729   -0.5535   51.4275 C   0  0  1  0  0  0  0  0  0  0  0  0
   22.3441   -1.7790   50.5713 C   0  0  1  0  0  0  0  0  0  0  0  0
   21.1345   -1.3476   49.6581 C   0  0  2  0  0  0  0  0  0  0  0  0
   23.6613   -3.7384   49.4363 C   0  0  0  0  0  0  0  0  0  0  0  0
   18.4075    2.5551   53.6431 N   0  0  0  0  0  0  0  0  0  0  0  0
   23.5062   -2.2731   49.7408 N   0  0  0  0  0  0  0  0  0  0  0  0
   20.3077    0.6606   54.7415 O   0  0  0  0  0  0  0  0  0  0  0  0
   21.8465    1.0843   53.0220 O   0  0  0  0  0  0  0  0  0  0  0  0
   19.9829   -0.8439   50.4314 O   0  0  0  0  0  0  0  0  0  0  0  0
   23.2210    0.5334   50.6115 O   0  0  0  0  0  0  0  0  0  0  0  0
   20.6752   -2.4555   48.9091 O   0  0  0  0  0  0  0  0  0  0  0  0
   19.3699   -2.2079   48.4213 C   0  0  2  0  0  0  0  0  0  0  0  0
   18.3346   -3.1555   49.0262 C   0  0  1  0  0  0  0  0  0  0  0  0
   18.6129   -4.6273   48.6142 C   0  0  2  0  0  0  0  0  0  0  0  0
   18.6156   -4.6861   47.0578 C   0  0  1  0  0  0  0  0  0  0  0  0
   19.7323   -3.7237   46.5355 C   0  0  1  0  0  0  0  0  0  0  0  0
   19.7919   -3.6607   45.0256 C   0  0  0  0  0  0  0  0  0  0  0  0
   18.8827   -6.1156   46.6465 N   0  0  0  0  0  0  0  0  0  0  0  0
   19.3902   -2.3633   46.9676 O   0  0  0  0  0  0  0  0  0  0  0  0
   18.3931   -3.0041   50.4584 O   0  0  0  0  0  0  0  0  0  0  0  0
   17.5435   -5.4433   49.1257 O   0  0  0  0  0  0  0  0  0  0  0  0
   20.3049   -4.8260   44.4765 O   0  0  0  0  0  0  0  0  0  0  0  0
   21.1264    0.6302   55.9109 C   0  0  1  0  0  0  0  0  0  0  0  0
   20.5520    1.6160   56.9902 C   0  0  1  0  0  0  0  0  0  0  0  0
   21.4607    1.5551   58.2704 C   0  0  2  0  0  0  0  0  0  0  0  0
   21.4542    0.1246   58.8303 C   0  0  1  0  0  0  0  0  0  0  0  0
   22.0446   -0.8622   57.7506 C   0  0  0  0  0  0  0  0  0  0  0  0
   21.1417   -0.7913   56.4567 C   0  0  2  0  0  0  0  0  0  0  0  0
   22.2827    0.0860   60.0241 N   0  0  0  0  0  0  0  0  0  0  0  0
   21.6787   -1.6931   55.4038 N   0  0  0  0  0  0  0  0  0  0  0  0
   20.5557    2.9739   56.4633 O   0  0  0  0  0  0  0  0  0  0  0  0
   20.9405    2.4207   59.2443 O   0  0  0  0  0  0  0  0  0  0  0  0
  1  2  1  0  0  0  0
  1 12  1  1  0  0  0
  1 13  1  0  0  0  0
  2  3  1  0  0  0  0
  2 10  1  1  0  0  0
  4  3  1  1  0  0  0
  4  5  1  0  0  0  0
  4 14  1  0  0  0  0
  5  6  1  0  0  0  0
  5 13  1  6  0  0  0
  6  7  1  0  0  0  0
  6 15  1  6  0  0  0
  7  8  1  0  0  0  0
  7 11  1  6  0  0  0
  8 14  1  0  0  0  0
  8 16  1  1  0  0  0
  9 11  1  0  0  0  0
 17 16  1  1  0  0  0
 17 18  1  0  0  0  0
 17 24  1  0  0  0  0
 18 19  1  0  0  0  0
 18 25  1  1  0  0  0
 19 20  1  0  0  0  0
 19 26  1  1  0  0  0
 20 21  1  0  0  0  0
 20 23  1  1  0  0  0
 21 22  1  6  0  0  0
 21 24  1  0  0  0  0
 22 27  1  0  0  0  0
 28 12  1  6  0  0  0
 28 29  1  0  0  0  0
 28 33  1  0  0  0  0
 29 30  1  0  0  0  0
 29 36  1  6  0  0  0
 30 31  1  0  0  0  0
 30 37  1  1  0  0  0
 31 32  1  0  0  0  0
 31 34  1  1  0  0  0
 32 33  1  0  0  0  0
 33 35  1  6  0  0  0
M  END
>  <CHROM.1>
-156.87633293,146.53444086,161.73642924,-114.86752424,-71.87728570,90.02417121
20.56946525,-1.12250461,51.90435448,-1.20702058,-1.19129615,-1.69985315

>  <Name>
2oe5_lig

>  <RI>
0

>  <Rbt.Current_Directory>
/home/itssahil/PROJECTS/Mol_Feturizer/New_Systems/rnas/2oe5

>  <Rbt.Executable>
rbdock ($Id: //depot/dev/client3/rdock/2013.1/src/exe/rbdock.cxx#4 $)

>  <Rbt.Library>
libRbt.so (2013.1, Build901 2013/11/27)

>  <Rbt.Parameter_File>
/export/apps/rDock/src/rDock_2013.1_src/data/scripts/dock_solv.prm

>  <Rbt.Receptor>
prm/pocket_docking_2.prm

>  <SCORE>
-5.43543

>  <SCORE.INTER>
-6.65455

>  <SCORE.INTER.CONST>
1

>  <SCORE.INTER.POLAR>
-0.830501

>  <SCORE.INTER.ROT>
6

>  <SCORE.INTER.SOLV>
17.4123

>  <SCORE.INTER.VDW>
-15.0721

>  <SCORE.INTER.norm>
-0.179853

>  <SCORE.INTRA>
0.99854

>  <SCORE.INTRA.DIHEDRAL>
-0.422528

>  <SCORE.INTRA.DIHEDRAL.0>
16.2083

>  <SCORE.INTRA.POLAR>
0

>  <SCORE.INTRA.POLAR.0>
0

>  <SCORE.INTRA.REPUL>
0

>  <SCORE.INTRA.REPUL.0>
0

>  <SCORE.INTRA.SOLV>
-0.245207

>  <SCORE.INTRA.SOLV.lig_0>
-89.8095

>  <SCORE.INTRA.VDW>
1.33241

>  <SCORE.INTRA.VDW.0>
-3.19502

>  <SCORE.INTRA.norm>
0.0269876

>  <SCORE.RESTR>
0.220584

>  <SCORE.RESTR.CAVITY>
0.220584

>  <SCORE.RESTR.norm>
0.00596172

>  <SCORE.SYSTEM>
0

>  <SCORE.SYSTEM.CONST>
0

>  <SCORE.SYSTEM.DIHEDRAL>
0

>  <SCORE.SYSTEM.SOLV>
0

>  <SCORE.SYSTEM.norm>
0

>  <SCORE.heavy>
37

>  <SCORE.norm>
-0.146903

>  <RMSD>
1.022

$$$$
2oe5_lig
 OpenBabel11021811463D
libRbt.so/2013.1/901 2013/11/27
 37 40  0  0  0  0  0  0  0  0999 V2000
   21.0074    1.6441   53.3710 C   0  0  1  0  0  0  0  0  0  0  0  0
   19.7678    2.0320   52.5341 C   0  0  1  0  0  0  0  0  0  0  0  0
   19.1483    0.7355   51.8919 C   0  0  0  0  0  0  0  0  0  0  0  0
   20.2750    0.1318   51.0239 C   0  0  1  0  0  0  0  0  0  0  0  0
   21.5457   -0.2573   51.9016 C   0  0  1  0  0  0  0  0  0  0  0  0
   22.6882   -0.8732   51.0487 C   0  0  1  0  0  0  0  0  0  0  0  0
   22.1055   -2.1417   50.3631 C   0  0  1  0  0  0  0  0  0  0  0  0
   20.8273   -1.7202   49.5436 C   0  0  2  0  0  0  0  0  0  0  0  0
   24.1451   -3.7512   50.0278 C   0  0  0  0  0  0  0  0  0  0  0  0
   18.7578    2.6848   53.3985 N   0  0  0  0  0  0  0  0  0  0  0  0
   23.1428   -2.7790   49.4673 N   0  0  0  0  0  0  0  0  0  0  0  0
   20.6663    0.7830   54.4696 O   0  0  0  0  0  0  0  0  0  0  0  0
   22.0276    0.9551   52.5667 O   0  0  0  0  0  0  0  0  0  0  0  0
   19.7948   -1.0792   50.3808 O   0  0  0  0  0  0  0  0  0  0  0  0
   23.1000    0.1065   50.0901 O   0  0  0  0  0  0  0  0  0  0  0  0
   20.2322   -2.8604   48.9561 O   0  0  0  0  0  0  0  0  0  0  0  0
   19.3038   -2.4693   47.9620 C   0  0  2  0  0  0  0  0  0  0  0  0
   18.0916   -3.3980   47.9021 C   0  0  1  0  0  0  0  0  0  0  0  0
   18.5056   -4.8345   47.4800 C   0  0  2  0  0  0  0  0  0  0  0  0
   19.2259   -4.7294   46.1031 C   0  0  1  0  0  0  0  0  0  0  0  0
   20.4726   -3.8006   46.2747 C   0  0  1  0  0  0  0  0  0  0  0  0
   21.2239   -3.5836   44.9801 C   0  0  0  0  0  0  0  0  0  0  0  0
   19.6306   -6.1232   45.6818 N   0  0  0  0  0  0  0  0  0  0  0  0
   19.9908   -2.4720   46.6713 O   0  0  0  0  0  0  0  0  0  0  0  0
   17.4843   -3.4026   49.2093 O   0  0  0  0  0  0  0  0  0  0  0  0
   17.3083   -5.6204   47.3390 O   0  0  0  0  0  0  0  0  0  0  0  0
   20.6400   -2.5975   44.1994 O   0  0  0  0  0  0  0  0  0  0  0  0
   21.6139    0.7943   55.5376 C   0  0  1  0  0  0  0  0  0  0  0  0
   21.2901    1.9713   56.5258 C   0  0  1  0  0  0  0  0  0  0  0  0
   22.3367    1.9549   57.6975 C   0  0  2  0  0  0  0  0  0  0  0  0
   22.2395    0.6174   58.4468 C   0  0  1  0  0  0  0  0  0  0  0  0
   22.5789   -0.5626   57.4565 C   0  0  0  0  0  0  0  0  0  0  0  0
   21.5375   -0.5388   56.2694 C   0  0  2  0  0  0  0  0  0  0  0  0
   23.1989    0.6225   59.5389 N   0  0  0  0  0  0  0  0  0  0  0  0
   21.8370   -1.6250   55.2996 N   0  0  0  0  0  0  0  0  0  0  0  0
   21.3805    3.2418   55.8193 O   0  0  0  0  0  0  0  0  0  0  0  0
   22.0400    2.9936   58.5927 O   0  0  0  0  0  0  0  0  0  0  0  0
  1  2  1  0  0  0  0
  1 12  1  1  0  0  0
  1 13  1  0  0  0  0
  2  3  1  0  0  0  0
  2 10  1  1  0  0  0
  4  3  1  1  0  0  0
  4  5  1  0  0  0  0
  4 14  1  0  0  0  0
  5  6  1  0  0  0  0
  5 13  1  6  0  0  0
  6  7  1  0  0  0  0
  6 15  1  6  0  0  0
  7  8  1  0  0  0  0
  7 11  1  6  0  0  0
  8 14  1  0  0  0  0
  8 16  1  1  0  0  0
  9 11  1  0  0  0  0
 17 16  1  1  0  0  0
 17 18  1  0  0  0  0
 17 24  1  0  0  0  0
 18 19  1  0  0  0  0
 18 25  1  1  0  0  0
 19 20  1  0  0  0  0
 19 26  1  6  0  0  0
 20 21  1  0  0  0  0
 20 23  1  1  0  0  0
 21 22  1  6  0  0  0
 21 24  1  0  0  0  0
 22 27  1  0  0  0  0
 28 12  1  6  0  0  0
 28 29  1  0  0  0  0
 28 33  1  0  0  0  0
 29 30  1  0  0  0  0
 29 36  1  6  0  0  0
 30 31  1  0  0  0  0
 30 37  1  1  0  0  0
 31 32  1  0  0  0  0
 31 34  1  1  0  0  0
 32 33  1  0  0  0  0
 33 35  1  6  0  0  0
M  END
>  <CHROM.1>
-157.63157228,85.46027261,-165.34214189,-144.75110836,81.91243628,86.11032331
20.83403303,-1.08284473,51.47141682,1.36015757,-0.52717401,0.97925398

>  <Name>
2oe5_lig

>  <RI>
0

>  <Rbt.Current_Directory>
/home/itssahil/PROJECTS/Mol_Feturizer/New_Systems/rnas/2oe5

>  <Rbt.Executable>
rbdock ($Id: //depot/dev/client3/rdock/2013.1/src/exe/rbdock.cxx#4 $)

>  <Rbt.Library>
libRbt.so (2013.1, Build901 2013/11/27)

>  <Rbt.Parameter_File>
/export/apps/rDock/src/rDock_2013.1_src/data/scripts/dock_solv.prm

>  <Rbt.Receptor>
prm/pocket_docking_3.prm

>  <SCORE>
-20.3115

>  <SCORE.INTER>
-18.0952

>  <SCORE.INTER.CONST>
1

>  <SCORE.INTER.POLAR>
-2.43353

>  <SCORE.INTER.ROT>
6

>  <SCORE.INTER.SOLV>
16.6446

>  <SCORE.INTER.VDW>
-17.0999

>  <SCORE.INTER.norm>
-0.489061

>  <SCORE.INTRA>
-2.21627

>  <SCORE.INTRA.DIHEDRAL>
-3.50835

>  <SCORE.INTRA.DIHEDRAL.0>
16.2083

>  <SCORE.INTRA.POLAR>
0

>  <SCORE.INTRA.POLAR.0>
0

>  <SCORE.INTRA.REPUL>
0

>  <SCORE.INTRA.REPUL.0>
0

>  <SCORE.INTRA.SOLV>
-1.2193

>  <SCORE.INTRA.SOLV.lig_0>
-89.8095

>  <SCORE.INTRA.VDW>
0.147551

>  <SCORE.INTRA.VDW.0>
-3.19502

>  <SCORE.INTRA.norm>
-0.0598993

>  <SCORE.RESTR>
0

>  <SCORE.RESTR.CAVITY>
0

>  <SCORE.RESTR.norm>
0

>  <SCORE.SYSTEM>
0

>  <SCORE.SYSTEM.CONST>
0

>  <SCORE.SYSTEM.DIHEDRAL>
0

>  <SCORE.SYSTEM.SOLV>
0

>  <SCORE.SYSTEM.norm>
0

>  <SCORE.heavy>
37

>  <SCORE.norm>
-0.54896

>  <RMSD>
1.028

$$$$
2oe5_lig
 OpenBabel11021811463D
libRbt.so/2013.1/901 2013/11/27
 37 40  0  0  0  0  0  0  0  0999 V2000
   20.9647    1.9120   53.4817 C   0  0  1  0  0  0  0  0  0  0  0  0
   19.7152    2.2438   52.6356 C   0  0  1  0  0  0  0  0  0  0  0  0
   19.1272    0.9136   52.0339 C   0  0  0  0  0  0  0  0  0  0  0  0
   20.2676    0.3118   51.1826 C   0  0  1  0  0  0  0  0  0  0  0  0
   21.5483   -0.0191   52.0695 C   0  0  1  0  0  0  0  0  0  0  0  0
   22.7048   -0.6323   51.2336 C   0  0  1  0  0  0  0  0  0  0  0  0
   22.1529   -1.9349   50.5877 C   0  0  1  0  0  0  0  0  0  0  0  0
   20.8638   -1.5700   49.7580 C   0  0  2  0  0  0  0  0  0  0  0  0
   24.1061   -3.6483   50.2535 C   0  0  0  0  0  0  0  0  0  0  0  0
   18.6903    2.8975   53.4816 N   0  0  0  0  0  0  0  0  0  0  0  0
   23.2046   -2.5734   49.7098 N   0  0  0  0  0  0  0  0  0  0  0  0
   20.6460    1.0763   54.6064 O   0  0  0  0  0  0  0  0  0  0  0  0
   22.0009    1.2242   52.6968 O   0  0  0  0  0  0  0  0  0  0  0  0
   19.8167   -0.9294   50.5772 O   0  0  0  0  0  0  0  0  0  0  0  0
   23.0914    0.3278   50.2452 O   0  0  0  0  0  0  0  0  0  0  0  0
   20.2964   -2.7416   49.2062 O   0  0  0  0  0  0  0  0  0  0  0  0
   19.4375   -2.4090   48.1316 C   0  0  2  0  0  0  0  0  0  0  0  0
   18.2667   -3.3826   48.0014 C   0  0  1  0  0  0  0  0  0  0  0  0
   18.7625   -4.8128   47.6524 C   0  0  2  0  0  0  0  0  0  0  0  0
   19.5865   -4.7149   46.3344 C   0  0  1  0  0  0  0  0  0  0  0  0
   20.7826   -3.7373   46.5787 C   0  0  1  0  0  0  0  0  0  0  0  0
   21.6270   -3.5244   45.3421 C   0  0  0  0  0  0  0  0  0  0  0  0
   20.0714   -6.1029   45.9843 N   0  0  0  0  0  0  0  0  0  0  0  0
   20.2251   -2.4180   46.8998 O   0  0  0  0  0  0  0  0  0  0  0  0
   17.5574   -3.3777   49.2562 O   0  0  0  0  0  0  0  0  0  0  0  0
   17.6082   -5.6452   47.4387 O   0  0  0  0  0  0  0  0  0  0  0  0
   20.8992   -2.9570   44.3072 O   0  0  0  0  0  0  0  0  0  0  0  0
   21.6657    1.0253   55.6045 C   0  0  1  0  0  0  0  0  0  0  0  0
   21.4603    2.1905   56.6374 C   0  0  1  0  0  0  0  0  0  0  0  0
   22.5848    2.1054   57.7314 C   0  0  2  0  0  0  0  0  0  0  0  0
   22.4855    0.7555   58.4578 C   0  0  1  0  0  0  0  0  0  0  0  0
   22.7063   -0.4133   57.4218 C   0  0  0  0  0  0  0  0  0  0  0  0
   21.5862   -0.3207   56.3122 C   0  0  2  0  0  0  0  0  0  0  0  0
   23.5184    0.6971   59.4791 N   0  0  0  0  0  0  0  0  0  0  0  0
   21.7724   -1.3947   55.3013 N   0  0  0  0  0  0  0  0  0  0  0  0
   21.5529    3.4728   55.9527 O   0  0  0  0  0  0  0  0  0  0  0  0
   22.3941    3.1336   58.6666 O   0  0  0  0  0  0  0  0  0  0  0  0
  1  2  1  0  0  0  0
  1 12  1  1  0  0  0
  1 13  1  0  0  0  0
  2  3  1  0  0  0  0
  2 10  1  1  0  0  0
  4  3  1  1  0  0  0
  4  5  1  0  0  0  0
  4 14  1  0  0  0  0
  5  6  1  0  0  0  0
  5 13  1  6  0  0  0
  6  7  1  0  0  0  0
  6 15  1  6  0  0  0
  7  8  1  0  0  0  0
  7 11  1  6  0  0  0
  8 14  1  0  0  0  0
  8 16  1  1  0  0  0
  9 11  1  0  0  0  0
 17 16  1  1  0  0  0
 17 18  1  0  0  0  0
 17 24  1  0  0  0  0
 18 19  1  0  0  0  0
 18 25  1  1  0  0  0
 19 20  1  0  0  0  0
 19 26  1  6  0  0  0
 20 21  1  0  0  0  0
 20 23  1  1  0  0  0
 21 22  1  6  0  0  0
 21 24  1  0  0  0  0
 22 27  1  0  0  0  0
 28 12  1  6  0  0  0
 28 29  1  0  0  0  0
 28 33  1  0  0  0  0
 29 30  1  0  0  0  0
 29 36  1  6  0  0  0
 30 31  1  0  0  0  0
 30 37  1  1  0  0  0
 31 32  1  0  0  0  0
 31 34  1  1  0  0  0
 32 33  1  0  0  0  0
 33 35  1  6  0  0  0
M  END
>  <CHROM.1>
-164.39077526,94.15868395,-160.73843067,-148.15089836,61.54074774,88.20753602
20.95808074,-0.95036028,51.61291466,1.35840234,-0.59983194,0.94097969

>  <Name>
2oe5_lig

>  <RI>
0

>  <Rbt.Current_Directory>
/home/itssahil/PROJECTS/Mol_Feturizer/New_Systems/rnas/2oe5

>  <Rbt.Executable>
rbdock ($Id: //depot/dev/client3/rdock/2013.1/src/exe/rbdock.cxx#4 $)

>  <Rbt.Library>
libRbt.so (2013.1, Build901 2013/11/27)

>  <Rbt.Parameter_File>
/export/apps/rDock/src/rDock_2013.1_src/data/scripts/dock_solv.prm

>  <Rbt.Receptor>
prm/pocket_docking_3.prm

>  <SCORE>
-18.3977

>  <SCORE.INTER>
-14.9215

>  <SCORE.INTER.CONST>
1

>  <SCORE.INTER.POLAR>
-1.64709

>  <SCORE.INTER.ROT>
6

>  <SCORE.INTER.SOLV>
15.804

>  <SCORE.INTER.VDW>
-17.3254

>  <SCORE.INTER.norm>
-0.403284

>  <SCORE.INTRA>
-3.50035

>  <SCORE.INTRA.DIHEDRAL>
-5.37971

>  <SCORE.INTRA.DIHEDRAL.0>
16.2083

>  <SCORE.INTRA.POLAR>
0

>  <SCORE.INTRA.POLAR.0>
0

>  <SCORE.INTRA.REPUL>
0

>  <SCORE.INTRA.REPUL.0>
0

>  <SCORE.INTRA.SOLV>
-0.984235

>  <SCORE.INTRA.SOLV.lig_0>
-89.8095

>  <SCORE.INTRA.VDW>
-0.318379

>  <SCORE.INTRA.VDW.0>
-3.19502

>  <SCORE.INTRA.norm>
-0.0946041

>  <SCORE.RESTR>
0.0241832

>  <SCORE.RESTR.CAVITY>
0.0241832

>  <SCORE.RESTR.norm>
0.0006536

>  <SCORE.SYSTEM>
0

>  <SCORE.SYSTEM.CONST>
0

>  <SCORE.SYSTEM.DIHEDRAL>
0

>  <SCORE.SYSTEM.SOLV>
0

>  <SCORE.SYSTEM.norm>
0

>  <SCORE.heavy>
37

>  <SCORE.norm>
-0.497234

>  <RMSD>
1.041

$$$$
2oe5_lig
 OpenBabel11021811463D
libRbt.so/2013.1/901 2013/11/27
 37 40  0  0  0  0  0  0  0  0999 V2000
   21.0202    1.7455   53.4019 C   0  0  1  0  0  0  0  0  0  0  0  0
   19.7830    2.1181   52.5546 C   0  0  1  0  0  0  0  0  0  0  0  0
   19.1863    0.8144   51.9055 C   0  0  0  0  0  0  0  0  0  0  0  0
   20.3285    0.2267   51.0466 C   0  0  1  0  0  0  0  0  0  0  0  0
   21.5964   -0.1467   51.9350 C   0  0  1  0  0  0  0  0  0  0  0  0
   22.7544   -0.7464   51.0914 C   0  0  1  0  0  0  0  0  0  0  0  0
   22.1945   -2.0216   50.3992 C   0  0  1  0  0  0  0  0  0  0  0  0
   20.9180   -1.6159   49.5690 C   0  0  2  0  0  0  0  0  0  0  0  0
   24.3747   -3.4442   50.1066 C   0  0  0  0  0  0  0  0  0  0  0  0
   18.7570    2.7565   53.4109 N   0  0  0  0  0  0  0  0  0  0  0  0
   23.2479   -2.6440   49.5118 N   0  0  0  0  0  0  0  0  0  0  0  0
   20.6809    0.8785   54.4964 O   0  0  0  0  0  0  0  0  0  0  0  0
   22.0565    1.0710   52.6057 O   0  0  0  0  0  0  0  0  0  0  0  0
   19.8699   -0.9896   50.3979 O   0  0  0  0  0  0  0  0  0  0  0  0
   23.1616    0.2399   50.1376 O   0  0  0  0  0  0  0  0  0  0  0  0
   20.3432   -2.7630   48.9749 O   0  0  0  0  0  0  0  0  0  0  0  0
   19.3997   -2.3827   47.9910 C   0  0  2  0  0  0  0  0  0  0  0  0
   18.1847   -3.3092   47.9628 C   0  0  1  0  0  0  0  0  0  0  0  0
   18.5888   -4.7520   47.5527 C   0  0  2  0  0  0  0  0  0  0  0  0
   19.2869   -4.6665   46.1631 C   0  0  1  0  0  0  0  0  0  0  0  0
   20.5382   -3.7385   46.3025 C   0  0  1  0  0  0  0  0  0  0  0  0
   21.2689   -3.5400   44.9932 C   0  0  0  0  0  0  0  0  0  0  0  0
   19.6817   -6.0666   45.7535 N   0  0  0  0  0  0  0  0  0  0  0  0
   20.0657   -2.4038   46.6895 O   0  0  0  0  0  0  0  0  0  0  0  0
   17.5986   -3.2955   49.2796 O   0  0  0  0  0  0  0  0  0  0  0  0
   17.3877   -5.5369   47.4413 O   0  0  0  0  0  0  0  0  0  0  0  0
   20.6422   -2.6035   44.1851 O   0  0  0  0  0  0  0  0  0  0  0  0
   21.6445    0.8622   55.5499 C   0  0  1  0  0  0  0  0  0  0  0  0
   21.3693    2.0474   56.5432 C   0  0  1  0  0  0  0  0  0  0  0  0
   22.4326    2.0005   57.6989 C   0  0  2  0  0  0  0  0  0  0  0  0
   22.3087    0.6658   58.4493 C   0  0  1  0  0  0  0  0  0  0  0  0
   22.5994   -0.5228   57.4538 C   0  0  0  0  0  0  0  0  0  0  0  0
   21.5413   -0.4687   56.2826 C   0  0  2  0  0  0  0  0  0  0  0  0
   23.2842    0.6429   59.5268 N   0  0  0  0  0  0  0  0  0  0  0  0
   21.7950   -1.5623   55.3081 N   0  0  0  0  0  0  0  0  0  0  0  0
   21.4852    3.3152   55.8356 O   0  0  0  0  0  0  0  0  0  0  0  0
   22.1791    3.0466   58.5986 O   0  0  0  0  0  0  0  0  0  0  0  0
  1  2  1  0  0  0  0
  1 12  1  1  0  0  0
  1 13  1  0  0  0  0
  2  3  1  0  0  0  0
  2 10  1  1  0  0  0
  4  3  1  1  0  0  0
  4  5  1  0  0  0  0
  4 14  1  0  0  0  0
  5  6  1  0  0  0  0
  5 13  1  6  0  0  0
  6  7  1  0  0  0  0
  6 15  1  6  0  0  0
  7  8  1  0  0  0  0
  7 11  1  6  0  0  0
  8 14  1  0  0  0  0
  8 16  1  1  0  0  0
  9 11  1  0  0  0  0
 17 16  1  1  0  0  0
 17 18  1  0  0  0  0
 17 24  1  0  0  0  0
 18 19  1  0  0  0  0
 18 25  1  1  0  0  0
 19 20  1  0  0  0  0
 19 26  1  6  0  0  0
 20 21  1  0  0  0  0
 20 23  1  1  0  0  0
 21 22  1  6  0  0  0
 21 24  1  0  0  0  0
 22 27  1  0  0  0  0
 28 12  1  6  0  0  0
 28 29  1  0  0  0  0
 28 33  1  0  0  0  0
 29 30  1  0  0  0  0
 29 36  1  6  0  0  0
 30 31  1  0  0  0  0
 30 37  1  1  0  0  0
 31 32  1  0  0  0  0
 31 34  1  1  0  0  0
 32 33  1  0  0  0  0
 33 35  1  6  0  0  0
M  END
>  <CHROM.1>
-159.90454201,76.62721866,-166.45802503,-142.82014680,79.35385242,85.23236636
20.89947444,-0.99702646,51.50088665,1.36486212,-0.48606866,0.98926483

>  <Name>
2oe5_lig

>  <RI>
0

>  <Rbt.Current_Directory>
/home/itssahil/PROJECTS/Mol_Feturizer/New_Systems/rnas/2oe5

>  <Rbt.Executable>
rbdock ($Id: //depot/dev/client3/rdock/2013.1/src/exe/rbdock.cxx#4 $)

>  <Rbt.Library>
libRbt.so (2013.1, Build901 2013/11/27)

>  <Rbt.Parameter_File>
/export/apps/rDock/src/rDock_2013.1_src/data/scripts/dock_solv.prm

>  <Rbt.Receptor>
prm/pocket_docking_3.prm

>  <SCORE>
-20.507

>  <SCORE.INTER>
-17.877

>  <SCORE.INTER.CONST>
1

>  <SCORE.INTER.POLAR>
-2.40076

>  <SCORE.INTER.ROT>
6

>  <SCORE.INTER.SOLV>
16.6183

>  <SCORE.INTER.VDW>
-17.0549

>  <SCORE.INTER.norm>
-0.483162

>  <SCORE.INTRA>
-2.62999

>  <SCORE.INTRA.DIHEDRAL>
-4.39862

>  <SCORE.INTRA.DIHEDRAL.0>
16.2083

>  <SCORE.INTRA.POLAR>
0

>  <SCORE.INTRA.POLAR.0>
0

>  <SCORE.INTRA.REPUL>
0

>  <SCORE.INTRA.REPUL.0>
0

>  <SCORE.INTRA.SOLV>
-1.31148

>  <SCORE.INTRA.SOLV.lig_0>
-89.8095

>  <SCORE.INTRA.VDW>
0.225056

>  <SCORE.INTRA.VDW.0>
-3.19502

>  <SCORE.INTRA.norm>
-0.0710809

>  <SCORE.RESTR>
0

>  <SCORE.RESTR.CAVITY>
0

>  <SCORE.RESTR.norm>
0

>  <SCORE.SYSTEM>
0

>  <SCORE.SYSTEM.CONST>
0

>  <SCORE.SYSTEM.DIHEDRAL>
0

>  <SCORE.SYSTEM.SOLV>
0

>  <SCORE.SYSTEM.norm>
0

>  <SCORE.heavy>
37

>  <SCORE.norm>
-0.554243

>  <RMSD>
1.060

$$$$
2oe5_lig
 OpenBabel11021811463D
libRbt.so/2013.1/901 2013/11/27
 37 40  0  0  0  0  0  0  0  0999 V2000
   20.8271    1.7819   53.5922 C   0  0  1  0  0  0  0  0  0  0  0  0
   19.5270    2.0432   52.7993 C   0  0  1  0  0  0  0  0  0  0  0  0
   19.0698    0.7106   52.0976 C   0  0  0  0  0  0  0  0  0  0  0  0
   20.2453    0.3095   51.1785 C   0  0  1  0  0  0  0  0  0  0  0  0
   21.5775    0.0491   52.0115 C   0  0  1  0  0  0  0  0  0  0  0  0
   22.7706   -0.3628   51.1065 C   0  0  1  0  0  0  0  0  0  0  0  0
   22.3451   -1.6605   50.3624 C   0  0  1  0  0  0  0  0  0  0  0  0
   21.0026   -1.3721   49.5894 C   0  0  2  0  0  0  0  0  0  0  0  0
   24.6468   -2.8348   49.9306 C   0  0  0  0  0  0  0  0  0  0  0  0
   18.4606    2.5089   53.7155 N   0  0  0  0  0  0  0  0  0  0  0  0
   23.4358   -2.1055   49.4153 N   0  0  0  0  0  0  0  0  0  0  0  0
   20.6304    0.8267   54.6476 O   0  0  0  0  0  0  0  0  0  0  0  0
   21.9100    1.2787   52.7338 O   0  0  0  0  0  0  0  0  0  0  0  0
   19.9148   -0.9197   50.4782 O   0  0  0  0  0  0  0  0  0  0  0  0
   23.0250    0.7119   50.1963 O   0  0  0  0  0  0  0  0  0  0  0  0
   20.5502   -2.5495   48.9505 O   0  0  0  0  0  0  0  0  0  0  0  0
   19.4969   -2.2456   48.0554 C   0  0  2  0  0  0  0  0  0  0  0  0
   18.2840   -3.1534   48.2564 C   0  0  1  0  0  0  0  0  0  0  0  0
   18.6310   -4.6329   47.9341 C   0  0  2  0  0  0  0  0  0  0  0  0
   19.1579   -4.6826   46.4693 C   0  0  1  0  0  0  0  0  0  0  0  0
   20.4200   -3.7638   46.3737 C   0  0  1  0  0  0  0  0  0  0  0  0
   20.9892   -3.6943   44.9742 C   0  0  0  0  0  0  0  0  0  0  0  0
   19.4958   -6.1194   46.1445 N   0  0  0  0  0  0  0  0  0  0  0  0
   20.0020   -2.3931   46.6912 O   0  0  0  0  0  0  0  0  0  0  0  0
   17.8601   -3.0130   49.6269 O   0  0  0  0  0  0  0  0  0  0  0  0
   17.4225   -5.4073   48.0383 O   0  0  0  0  0  0  0  0  0  0  0  0
   20.4482   -2.6466   44.2446 O   0  0  0  0  0  0  0  0  0  0  0  0
   21.5105    0.9943   55.7594 C   0  0  1  0  0  0  0  0  0  0  0  0
   21.0554    2.2275   56.6190 C   0  0  1  0  0  0  0  0  0  0  0  0
   22.0295    2.3831   57.8418 C   0  0  2  0  0  0  0  0  0  0  0  0
   21.9721    1.1117   58.7020 C   0  0  1  0  0  0  0  0  0  0  0  0
   22.4430   -0.1236   57.8415 C   0  0  0  0  0  0  0  0  0  0  0  0
   21.4745   -0.2729   56.6030 C   0  0  2  0  0  0  0  0  0  0  0  0
   22.8627    1.2759   59.8391 N   0  0  0  0  0  0  0  0  0  0  0  0
   21.8986   -1.4158   55.7522 N   0  0  0  0  0  0  0  0  0  0  0  0
   21.1077    3.4355   55.8069 O   0  0  0  0  0  0  0  0  0  0  0  0
   21.6156    3.4726   58.6227 O   0  0  0  0  0  0  0  0  0  0  0  0
  1  2  1  0  0  0  0
  1 12  1  1  0  0  0
  1 13  1  0  0  0  0
  2  3  1  0  0  0  0
  2 10  1  1  0  0  0
  4  3  1  1  0  0  0
  4  5  1  0  0  0  0
  4 14  1  0  0  0  0
  5  6  1  0  0  0  0
  5 13  1  6  0  0  0
  6  7  1  0  0  0  0
  6 15  1  6  0  0  0
  7  8  1  0  0  0  0
  7 11  1  6  0  0  0
  8 14  1  0  0  0  0
  8 16  1  1  0  0  0
  9 11  1  0  0  0  0
 17 16  1  1  0  0  0
 17 18  1  0  0  0  0
 17 24  1  0  0  0  0
 18 19  1  0  0  0  0
 18 25  1  1  0  0  0
 19 20  1  0  0  0  0
 19 26  1  6  0  0  0
 20 21  1  0  0  0  0
 20 23  1  1  0  0  0
 21 22  1  6  0  0  0
 21 24  1  0  0  0  0
 22 27  1  0  0  0  0
 28 12  1  6  0  0  0
 28 29  1  0  0  0  0
 28 33  1  0  0  0  0
 29 30  1  0  0  0  0
 29 36  1  6  0  0  0
 30 31  1  0  0  0  0
 30 37  1  1  0  0  0
 31 32  1  0  0  0  0
 31 34  1  1  0  0  0
 32 33  1  0  0  0  0
 33 35  1  6  0  0  0
M  END
>  <CHROM.1>
-151.73560367,78.80152869,-168.94539651,-129.99610910,91.07399897,75.18502690
20.80732673,-0.81969248,51.65811139,1.41790876,0.01698408,1.08120873

>  <Name>
2oe5_lig

>  <RI>
0

>  <Rbt.Current_Directory>
/home/itssahil/PROJECTS/Mol_Feturizer/New_Systems/rnas/2oe5

>  <Rbt.Executable>
rbdock ($Id: //depot/dev/client3/rdock/2013.1/src/exe/rbdock.cxx#4 $)

>  <Rbt.Library>
libRbt.so (2013.1, Build901 2013/11/27)

>  <Rbt.Parameter_File>
/export/apps/rDock/src/rDock_2013.1_src/data/scripts/dock_solv.prm

>  <Rbt.Receptor>
prm/pocket_docking_3.prm

>  <SCORE>
-19.6014

>  <SCORE.INTER>
-18.9101

>  <SCORE.INTER.CONST>
1

>  <SCORE.INTER.POLAR>
-2.3409

>  <SCORE.INTER.ROT>
6

>  <SCORE.INTER.SOLV>
15.5779

>  <SCORE.INTER.VDW>
-17.5964

>  <SCORE.INTER.norm>
-0.511084

>  <SCORE.INTRA>
-0.691264

>  <SCORE.INTRA.DIHEDRAL>
-1.48904

>  <SCORE.INTRA.DIHEDRAL.0>
16.2083

>  <SCORE.INTRA.POLAR>
0

>  <SCORE.INTRA.POLAR.0>
0

>  <SCORE.INTRA.REPUL>
0

>  <SCORE.INTRA.REPUL.0>
0

>  <SCORE.INTRA.SOLV>
-1.63277

>  <SCORE.INTRA.SOLV.lig_0>
-89.8095

>  <SCORE.INTRA.VDW>
0.869638

>  <SCORE.INTRA.VDW.0>
-3.19502

>  <SCORE.INTRA.norm>
-0.0186828

>  <SCORE.RESTR>
0

>  <SCORE.RESTR.CAVITY>
0

>  <SCORE.RESTR.norm>
0

>  <SCORE.SYSTEM>
0

>  <SCORE.SYSTEM.CONST>
0

>  <SCORE.SYSTEM.DIHEDRAL>
0

>  <SCORE.SYSTEM.SOLV>
0

>  <SCORE.SYSTEM.norm>
0

>  <SCORE.heavy>
37

>  <SCORE.norm>
-0.529767

>  <RMSD>
1.067

$$$$
2oe5_lig
 OpenBabel11021811463D
libRbt.so/2013.1/901 2013/11/27
 37 40  0  0  0  0  0  0  0  0999 V2000
   20.6073    1.7532   54.2019 C   0  0  1  0  0  0  0  0  0  0  0  0
   19.5001    2.0987   53.1810 C   0  0  1  0  0  0  0  0  0  0  0  0
   18.8885    0.7667   52.6075 C   0  0  0  0  0  0  0  0  0  0  0  0
   20.0741    0.0211   51.9552 C   0  0  1  0  0  0  0  0  0  0  0  0
   21.2072   -0.3224   53.0203 C   0  0  1  0  0  0  0  0  0  0  0  0
   22.4060   -1.0792   52.3861 C   0  0  1  0  0  0  0  0  0  0  0  0
   21.8376   -2.3898   51.7714 C   0  0  1  0  0  0  0  0  0  0  0  0
   20.6919   -2.0074   50.7593 C   0  0  2  0  0  0  0  0  0  0  0  0
   24.0119   -3.8464   51.8879 C   0  0  0  0  0  0  0  0  0  0  0  0
   18.4334    2.8877   53.8391 N   0  0  0  0  0  0  0  0  0  0  0  0
   22.9360   -3.1682   51.0841 N   0  0  0  0  0  0  0  0  0  0  0  0
   20.0895    1.0362   55.3344 O   0  0  0  0  0  0  0  0  0  0  0  0
   21.6750    0.9346   53.6081 O   0  0  0  0  0  0  0  0  0  0  0  0
   19.6055   -1.2321   51.3890 O   0  0  0  0  0  0  0  0  0  0  0  0
   22.9840   -0.2319   51.3880 O   0  0  0  0  0  0  0  0  0  0  0  0
   20.1069   -3.1790   50.2263 O   0  0  0  0  0  0  0  0  0  0  0  0
   19.0910   -2.8402   49.3010 C   0  0  2  0  0  0  0  0  0  0  0  0
   18.1710   -4.0205   48.9908 C   0  0  1  0  0  0  0  0  0  0  0  0
   18.9475   -5.1674   48.2874 C   0  0  2  0  0  0  0  0  0  0  0  0
   19.5899   -4.5764   46.9975 C   0  0  1  0  0  0  0  0  0  0  0  0
   20.5449   -3.4114   47.4181 C   0  0  1  0  0  0  0  0  0  0  0  0
   21.1885   -2.7252   46.2339 C   0  0  0  0  0  0  0  0  0  0  0  0
   20.3459   -5.6859   46.3036 N   0  0  0  0  0  0  0  0  0  0  0  0
   19.7317   -2.3783   48.0705 O   0  0  0  0  0  0  0  0  0  0  0  0
   17.6094   -4.4718   50.2392 O   0  0  0  0  0  0  0  0  0  0  0  0
   18.0023   -6.1918   47.9295 O   0  0  0  0  0  0  0  0  0  0  0  0
   20.2464   -2.2057   45.3592 O   0  0  0  0  0  0  0  0  0  0  0  0
   20.9796    0.9828   56.4495 C   0  0  1  0  0  0  0  0  0  0  0  0
   21.0379    2.3857   57.1534 C   0  0  1  0  0  0  0  0  0  0  0  0
   22.0118    2.2983   58.3832 C   0  0  2  0  0  0  0  0  0  0  0  0
   21.4846    1.2506   59.3752 C   0  0  1  0  0  0  0  0  0  0  0  0
   21.4403   -0.1603   58.6712 C   0  0  0  0  0  0  0  0  0  0  0  0
   20.4738   -0.0711   57.4253 C   0  0  2  0  0  0  0  0  0  0  0  0
   22.3836    1.1930   60.5161 N   0  0  0  0  0  0  0  0  0  0  0  0
   20.4213   -1.3783   56.7193 N   0  0  0  0  0  0  0  0  0  0  0  0
   21.5367    3.3827   56.2160 O   0  0  0  0  0  0  0  0  0  0  0  0
   22.0525    3.5447   59.0260 O   0  0  0  0  0  0  0  0  0  0  0  0
  1  2  1  0  0  0  0
  1 12  1  1  0  0  0
  1 13  1  0  0  0  0
  2  3  1  0  0  0  0
  2 10  1  1  0  0  0
  4  3  1  1  0  0  0
  4  5  1  0  0  0  0
  4 14  1  0  0  0  0
  5  6  1  0  0  0  0
  5 13  1  6  0  0  0
  6  7  1  0  0  0  0
  6 15  1  6  0  0  0
  7  8  1  0  0  0  0
  7 11  1  6  0  0  0
  8 14  1  0  0  0  0
  8 16  1  1  0  0  0
  9 11  1  0  0  0  0
 17 16  1  1  0  0  0
 17 18  1  0  0  0  0
 17 24  1  0  0  0  0
 18 19  1  0  0  0  0
 18 25  1  1  0  0  0
 19 20  1  0  0  0  0
 19 26  1  6  0  0  0
 20 21  1  0  0  0  0
 20 23  1  1  0  0  0
 21 22  1  6  0  0  0
 21 24  1  0  0  0  0
 22 27  1  0  0  0  0
 28 12  1  6  0  0  0
 28 29  1  0  0  0  0
 28 33  1  0  0  0  0
 29 30  1  0  0  0  0
 29 36  1  6  0  0  0
 30 31  1  0  0  0  0
 30 37  1  1  0  0  0
 31 32  1  0  0  0  0
 31 34  1  1  0  0  0
 32 33  1  0  0  0  0
 33 35  1  6  0  0  0
M  END
>  <CHROM.1>
-165.17519072,70.47517786,-179.10214704,-163.97088578,58.18561038,73.41230617
20.60222359,-1.04128008,52.48930488,1.21010296,-1.18070138,0.70712459

>  <Name>
2oe5_lig

>  <RI>
0

>  <Rbt.Current_Directory>
/home/itssahil/PROJECTS/Mol_Feturizer/New_Systems/rnas/2oe5

>  <Rbt.Executable>
rbdock ($Id: //depot/dev/client3/rdock/2013.1/src/exe/rbdock.cxx#4 $)

>  <Rbt.Library>
libRbt.so (2013.1, Build901 2013/11/27)

>  <Rbt.Parameter_File>
/export/apps/rDock/src/rDock_2013.1_src/data/scripts/dock_solv.prm

>  <Rbt.Receptor>
prm/pocket_docking_3.prm

>  <SCORE>
-15.9769

>  <SCORE.INTER>
-9.94015

>  <SCORE.INTER.CONST>
1

>  <SCORE.INTER.POLAR>
-1.2635

>  <SCORE.INTER.ROT>
6

>  <SCORE.INTER.SOLV>
16.9225

>  <SCORE.INTER.VDW>
-15.6559

>  <SCORE.INTER.norm>
-0.268653

>  <SCORE.INTRA>
-6.03677

>  <SCORE.INTRA.DIHEDRAL>
-12.9429

>  <SCORE.INTRA.DIHEDRAL.0>
16.2083

>  <SCORE.INTRA.POLAR>
0

>  <SCORE.INTRA.POLAR.0>
0

>  <SCORE.INTRA.REPUL>
0

>  <SCORE.INTRA.REPUL.0>
0

>  <SCORE.INTRA.SOLV>
-1.92084

>  <SCORE.INTRA.SOLV.lig_0>
-89.8095

>  <SCORE.INTRA.VDW>
1.3951

>  <SCORE.INTRA.VDW.0>
-3.19502

>  <SCORE.INTRA.norm>
-0.163156

>  <SCORE.RESTR>
0

>  <SCORE.RESTR.CAVITY>
0

>  <SCORE.RESTR.norm>
0

>  <SCORE.SYSTEM>
0

>  <SCORE.SYSTEM.CONST>
0

>  <SCORE.SYSTEM.DIHEDRAL>
0

>  <SCORE.SYSTEM.SOLV>
0

>  <SCORE.SYSTEM.norm>
0

>  <SCORE.heavy>
37

>  <SCORE.norm>
-0.431809

>  <RMSD>
1.092

$$$$
2oe5_lig
 OpenBabel11021811463D
libRbt.so/2013.1/901 2013/11/27
 37 40  0  0  0  0  0  0  0  0999 V2000
   20.4556    1.6074   54.0510 C   0  0  1  0  0  0  0  0  0  0  0  0
   19.5805    2.1785   52.9128 C   0  0  1  0  0  0  0  0  0  0  0  0
   18.7594    1.0094   52.2525 C   0  0  0  0  0  0  0  0  0  0  0  0
   19.8176    0.0107   51.7324 C   0  0  1  0  0  0  0  0  0  0  0  0
   20.7130   -0.5636   52.9176 C   0  0  1  0  0  0  0  0  0  0  0  0
   21.7793   -1.5758   52.4169 C   0  0  1  0  0  0  0  0  0  0  0  0
   21.0096   -2.7343   51.7210 C   0  0  1  0  0  0  0  0  0  0  0  0
   20.1044   -2.1184   50.5876 C   0  0  2  0  0  0  0  0  0  0  0  0
   22.8733   -3.3863   49.9993 C   0  0  0  0  0  0  0  0  0  0  0  0
   18.6465    3.1930   53.4531 N   0  0  0  0  0  0  0  0  0  0  0  0
   21.9800   -3.7457   51.1555 N   0  0  0  0  0  0  0  0  0  0  0  0
   19.6622    1.0372   55.1047 O   0  0  0  0  0  0  0  0  0  0  0  0
   21.3765    0.5646   53.5743 O   0  0  0  0  0  0  0  0  0  0  0  0
   19.1515   -1.1133   51.0972 O   0  0  0  0  0  0  0  0  0  0  0  0
   22.6441   -0.8904   51.5056 O   0  0  0  0  0  0  0  0  0  0  0  0
   19.3399   -3.1367   49.9728 O   0  0  0  0  0  0  0  0  0  0  0  0
   18.7235   -2.6431   48.7983 C   0  0  2  0  0  0  0  0  0  0  0  0
   17.8645   -3.7001   48.1053 C   0  0  1  0  0  0  0  0  0  0  0  0
   18.7322   -4.8854   47.6001 C   0  0  2  0  0  0  0  0  0  0  0  0
   19.8157   -4.3002   46.6464 C   0  0  1  0  0  0  0  0  0  0  0  0
   20.6695   -3.2678   47.4535 C   0  0  1  0  0  0  0  0  0  0  0  0
   21.7267   -2.5937   46.6078 C   0  0  0  0  0  0  0  0  0  0  0  0
   20.6642   -5.4466   46.1466 N   0  0  0  0  0  0  0  0  0  0  0  0
   19.7747   -2.1889   47.8891 O   0  0  0  0  0  0  0  0  0  0  0  0
   16.8824   -4.1532   49.0582 O   0  0  0  0  0  0  0  0  0  0  0  0
   17.8785   -5.7825   46.8671 O   0  0  0  0  0  0  0  0  0  0  0  0
   22.5135   -3.5123   45.9298 O   0  0  0  0  0  0  0  0  0  0  0  0
   20.3209    0.9863   56.3705 C   0  0  1  0  0  0  0  0  0  0  0  0
   19.4265    1.6705   57.4654 C   0  0  1  0  0  0  0  0  0  0  0  0
   20.1654    1.5902   58.8496 C   0  0  2  0  0  0  0  0  0  0  0  0
   20.3896    0.1165   59.2209 C   0  0  1  0  0  0  0  0  0  0  0  0
   21.2998   -0.5655   58.1279 C   0  0  0  0  0  0  0  0  0  0  0  0
   20.5662   -0.4724   56.7324 C   0  0  2  0  0  0  0  0  0  0  0  0
   21.0565    0.0557   60.5111 N   0  0  0  0  0  0  0  0  0  0  0  0
   21.4034   -1.0861   55.6683 N   0  0  0  0  0  0  0  0  0  0  0  0
   19.2107    3.0682   57.1169 O   0  0  0  0  0  0  0  0  0  0  0  0
   19.3615    2.1840   59.8342 O   0  0  0  0  0  0  0  0  0  0  0  0
  1  2  1  0  0  0  0
  1 12  1  1  0  0  0
  1 13  1  0  0  0  0
  2  3  1  0  0  0  0
  2 10  1  1  0  0  0
  4  3  1  1  0  0  0
  4  5  1  0  0  0  0
  4 14  1  0  0  0  0
  5  6  1  0  0  0  0
  5 13  1  6  0  0  0
  6  7  1  0  0  0  0
  6 15  1  6  0  0  0
  7  8  1  0  0  0  0
  7 11  1  6  0  0  0
  8 14  1  0  0  0  0
  8 16  1  1  0  0  0
  9 11  1  0  0  0  0
 17 16  1  1  0  0  0
 17 18  1  0  0  0  0
 17 24  1  0  0  0  0
 18 19  1  0  0  0  0
 18 25  1  1  0  0  0
 19 20  1  0  0  0  0
 19 26  1  6  0  0  0
 20 21  1  0  0  0  0
 20 23  1  1  0  0  0
 21 22  1  6  0  0  0
 21 24  1  0  0  0  0
 22 27  1  0  0  0  0
 28 12  1  6  0  0  0
 28 29  1  0  0  0  0
 28 33  1  0  0  0  0
 29 30  1  0  0  0  0
 29 36  1  6  0  0  0
 30 31  1  0  0  0  0
 30 37  1  1  0  0  0
 31 32  1  0  0  0  0
 31 34  1  1  0  0  0
 32 33  1  0  0  0  0
 33 35  1  6  0  0  0
M  END
>  <CHROM.1>
-156.23152616,-67.79262669,-168.85271606,-179.06739669,-52.10773430,126.76628810
20.16637452,-1.21638779,52.26855942,1.54738217,-0.66152496,1.08465581

>  <Name>
2oe5_lig

>  <RI>
0

>  <Rbt.Current_Directory>
/home/itssahil/PROJECTS/Mol_Feturizer/New_Systems/rnas/2oe5

>  <Rbt.Executable>
rbdock ($Id: //depot/dev/client3/rdock/2013.1/src/exe/rbdock.cxx#4 $)

>  <Rbt.Library>
libRbt.so (2013.1, Build901 2013/11/27)

>  <Rbt.Parameter_File>
/export/apps/rDock/src/rDock_2013.1_src/data/scripts/dock_solv.prm

>  <Rbt.Receptor>
prm/pocket_docking_2.prm

>  <SCORE>
-14.3669

>  <SCORE.INTER>
-13.7195

>  <SCORE.INTER.CONST>
1

>  <SCORE.INTER.POLAR>
-1.01476

>  <SCORE.INTER.ROT>
6

>  <SCORE.INTER.SOLV>
15.9584

>  <SCORE.INTER.VDW>
-18.6833

>  <SCORE.INTER.norm>
-0.370798

>  <SCORE.INTRA>
-0.651825

>  <SCORE.INTRA.DIHEDRAL>
-5.86262

>  <SCORE.INTRA.DIHEDRAL.0>
16.2083

>  <SCORE.INTRA.POLAR>
0

>  <SCORE.INTRA.POLAR.0>
0

>  <SCORE.INTRA.REPUL>
0

>  <SCORE.INTRA.REPUL.0>
0

>  <SCORE.INTRA.SOLV>
1.8817

>  <SCORE.INTRA.SOLV.lig_0>
-89.8095

>  <SCORE.INTRA.VDW>
1.33863

>  <SCORE.INTRA.VDW.0>
-3.19502

>  <SCORE.INTRA.norm>
-0.0176169

>  <SCORE.RESTR>
0.00443217

>  <SCORE.RESTR.CAVITY>
0.00443217

>  <SCORE.RESTR.norm>
0.000119788

>  <SCORE.SYSTEM>
0

>  <SCORE.SYSTEM.CONST>
0

>  <SCORE.SYSTEM.DIHEDRAL>
0

>  <SCORE.SYSTEM.SOLV>
0

>  <SCORE.SYSTEM.norm>
0

>  <SCORE.heavy>
37

>  <SCORE.norm>
-0.388295

>  <RMSD>
1.093

$$$$
2oe5_lig
 OpenBabel11021811463D
libRbt.so/2013.1/901 2013/11/27
 37 40  0  0  0  0  0  0  0  0999 V2000
   20.4499    2.0055   54.3400 C   0  0  1  0  0  0  0  0  0  0  0  0
   19.4009    2.3413   53.2564 C   0  0  1  0  0  0  0  0  0  0  0  0
   18.8241    1.0039   52.6598 C   0  0  0  0  0  0  0  0  0  0  0  0
   20.0454    0.2556   52.0802 C   0  0  1  0  0  0  0  0  0  0  0  0
   21.1177   -0.0778   53.2094 C   0  0  1  0  0  0  0  0  0  0  0  0
   22.3512   -0.8371   52.6488 C   0  0  1  0  0  0  0  0  0  0  0  0
   21.8198   -2.1533   52.0133 C   0  0  1  0  0  0  0  0  0  0  0  0
   20.7318   -1.7805   50.9360 C   0  0  2  0  0  0  0  0  0  0  0  0
   23.4804   -2.5730   50.0311 C   0  0  0  0  0  0  0  0  0  0  0  0
   18.2980    3.1332   53.8480 N   0  0  0  0  0  0  0  0  0  0  0  0
   22.9559   -2.9347   51.3942 N   0  0  0  0  0  0  0  0  0  0  0  0
   19.8707    1.2960   55.4473 O   0  0  0  0  0  0  0  0  0  0  0  0
   21.5502    1.1844   53.8129 O   0  0  0  0  0  0  0  0  0  0  0  0
   19.6108   -1.0026   51.4983 O   0  0  0  0  0  0  0  0  0  0  0  0
   22.9827    0.0039   51.6781 O   0  0  0  0  0  0  0  0  0  0  0  0
   20.1791   -2.9572   50.3800 O   0  0  0  0  0  0  0  0  0  0  0  0
   19.2732   -2.6288   49.3434 C   0  0  2  0  0  0  0  0  0  0  0  0
   18.3728   -3.8043   48.9652 C   0  0  1  0  0  0  0  0  0  0  0  0
   19.2014   -4.9792   48.3769 C   0  0  2  0  0  0  0  0  0  0  0  0
   19.9871   -4.4303   47.1492 C   0  0  1  0  0  0  0  0  0  0  0  0
   20.9103   -3.2677   47.6414 C   0  0  1  0  0  0  0  0  0  0  0  0
   21.6874   -2.6208   46.5166 C   0  0  0  0  0  0  0  0  0  0  0  0
   20.7949   -5.5673   46.5672 N   0  0  0  0  0  0  0  0  0  0  0  0
   20.0488   -2.2073   48.1778 O   0  0  0  0  0  0  0  0  0  0  0  0
   17.6740   -4.2158   50.1569 O   0  0  0  0  0  0  0  0  0  0  0  0
   18.2834   -5.9998   47.9447 O   0  0  0  0  0  0  0  0  0  0  0  0
   22.1200   -3.5497   45.5824 O   0  0  0  0  0  0  0  0  0  0  0  0
   20.7259    1.1906   56.5858 C   0  0  1  0  0  0  0  0  0  0  0  0
   20.6519    2.5112   57.4329 C   0  0  1  0  0  0  0  0  0  0  0  0
   21.5895    2.3660   58.6852 C   0  0  2  0  0  0  0  0  0  0  0  0
   21.1138    1.1827   59.5415 C   0  0  1  0  0  0  0  0  0  0  0  0
   21.2023   -0.1448   58.6941 C   0  0  0  0  0  0  0  0  0  0  0  0
   20.2725    0.0044   57.4261 C   0  0  2  0  0  0  0  0  0  0  0  0
   21.9773    1.0710   60.7055 N   0  0  0  0  0  0  0  0  0  0  0  0
   20.3448   -1.2207   56.5872 N   0  0  0  0  0  0  0  0  0  0  0  0
   21.1016    3.6363   56.6245 O   0  0  0  0  0  0  0  0  0  0  0  0
   21.5122    3.5366   59.4546 O   0  0  0  0  0  0  0  0  0  0  0  0
  1  2  1  0  0  0  0
  1 12  1  1  0  0  0
  1 13  1  0  0  0  0
  2  3  1  0  0  0  0
  2 10  1  1  0  0  0
  4  3  1  1  0  0  0
  4  5  1  0  0  0  0
  4 14  1  0  0  0  0
  5  6  1  0  0  0  0
  5 13  1  6  0  0  0
  6  7  1  0  0  0  0
  6 15  1  6  0  0  0
  7  8  1  0  0  0  0
  7 11  1  6  0  0  0
  8 14  1  0  0  0  0
  8 16  1  1  0  0  0
  9 11  1  0  0  0  0
 17 16  1  1  0  0  0
 17 18  1  0  0  0  0
 17 24  1  0  0  0  0
 18 19  1  0  0  0  0
 18 25  1  1  0  0  0
 19 20  1  0  0  0  0
 19 26  1  6  0  0  0
 20 21  1  0  0  0  0
 20 23  1  1  0  0  0
 21 22  1  6  0  0  0
 21 24  1  0  0  0  0
 22 27  1  0  0  0  0
 28 12  1  6  0  0  0
 28 29  1  0  0  0  0
 28 33  1  0  0  0  0
 29 30  1  0  0  0  0
 29 36  1  6  0  0  0
 30 31  1  0  0  0  0
 30 37  1  1  0  0  0
 31 32  1  0  0  0  0
 31 34  1  1  0  0  0
 32 33  1  0  0  0  0
 33 35  1  6  0  0  0
M  END
>  <CHROM.1>
-168.37065390,-80.76751605,-175.71613874,-164.50024970,-38.28561648,81.97809721
20.61179829,-0.88212187,52.58680352,-1.46621065,-0.98917394,-2.01348131

>  <Name>
2oe5_lig

>  <RI>
0

>  <Rbt.Current_Directory>
/home/itssahil/PROJECTS/Mol_Feturizer/New_Systems/rnas/2oe5

>  <Rbt.Executable>
rbdock ($Id: //depot/dev/client3/rdock/2013.1/src/exe/rbdock.cxx#4 $)

>  <Rbt.Library>
libRbt.so (2013.1, Build901 2013/11/27)

>  <Rbt.Parameter_File>
/export/apps/rDock/src/rDock_2013.1_src/data/scripts/dock_solv.prm

>  <Rbt.Receptor>
prm/pocket_docking_2.prm

>  <SCORE>
-9.08991

>  <SCORE.INTER>
-5.5122

>  <SCORE.INTER.CONST>
1

>  <SCORE.INTER.POLAR>
-0.363487

>  <SCORE.INTER.ROT>
6

>  <SCORE.INTER.SOLV>
15.7701

>  <SCORE.INTER.VDW>
-15.3199

>  <SCORE.INTER.norm>
-0.148978

>  <SCORE.INTRA>
-3.7475

>  <SCORE.INTRA.DIHEDRAL>
-10.3057

>  <SCORE.INTRA.DIHEDRAL.0>
16.2083

>  <SCORE.INTRA.POLAR>
0

>  <SCORE.INTRA.POLAR.0>
0

>  <SCORE.INTRA.REPUL>
0

>  <SCORE.INTRA.REPUL.0>
0

>  <SCORE.INTRA.SOLV>
-0.784561

>  <SCORE.INTRA.SOLV.lig_0>
-89.8095

>  <SCORE.INTRA.VDW>
1.79762

>  <SCORE.INTRA.VDW.0>
-3.19502

>  <SCORE.INTRA.norm>
-0.101284

>  <SCORE.RESTR>
0.169793

>  <SCORE.RESTR.CAVITY>
0.169793

>  <SCORE.RESTR.norm>
0.004589

>  <SCORE.SYSTEM>
0

>  <SCORE.SYSTEM.CONST>
0

>  <SCORE.SYSTEM.DIHEDRAL>
0

>  <SCORE.SYSTEM.SOLV>
0

>  <SCORE.SYSTEM.norm>
0

>  <SCORE.heavy>
37

>  <SCORE.norm>
-0.245673

>  <RMSD>
1.141

$$$$
2oe5_lig
 OpenBabel11021811463D
libRbt.so/2013.1/901 2013/11/27
 37 40  0  0  0  0  0  0  0  0999 V2000
   21.1625    1.5700   53.3039 C   0  0  1  0  0  0  0  0  0  0  0  0
   19.8971    1.9818   52.5187 C   0  0  1  0  0  0  0  0  0  0  0  0
   19.2240    0.6970   51.9077 C   0  0  0  0  0  0  0  0  0  0  0  0
   20.3002    0.0675   50.9950 C   0  0  1  0  0  0  0  0  0  0  0  0
   21.5984   -0.3460   51.8196 C   0  0  1  0  0  0  0  0  0  0  0  0
   22.6907   -0.9880   50.9214 C   0  0  1  0  0  0  0  0  0  0  0  0
   22.0531   -2.2457   50.2653 C   0  0  1  0  0  0  0  0  0  0  0  0
   20.7505   -1.7995   49.4990 C   0  0  2  0  0  0  0  0  0  0  0  0
   23.0324   -4.3999   49.1414 C   0  0  0  0  0  0  0  0  0  0  0  0
   18.9384    2.6580   53.4227 N   0  0  0  0  0  0  0  0  0  0  0  0
   23.0381   -2.9071   49.3288 N   0  0  0  0  0  0  0  0  0  0  0  0
   20.8501    0.7190   54.4189 O   0  0  0  0  0  0  0  0  0  0  0  0
   22.1332    0.8576   52.4596 O   0  0  0  0  0  0  0  0  0  0  0  0
   19.7679   -1.1347   50.3768 O   0  0  0  0  0  0  0  0  0  0  0  0
   23.0820   -0.0196   49.9430 O   0  0  0  0  0  0  0  0  0  0  0  0
   20.1074   -2.9284   48.9410 O   0  0  0  0  0  0  0  0  0  0  0  0
   19.1946   -2.5242   47.9378 C   0  0  2  0  0  0  0  0  0  0  0  0
   17.9910   -3.4606   47.8366 C   0  0  1  0  0  0  0  0  0  0  0  0
   18.4241   -4.8851   47.3936 C   0  0  2  0  0  0  0  0  0  0  0  0
   19.1691   -4.7468   46.0328 C   0  0  1  0  0  0  0  0  0  0  0  0
   20.4050   -3.8124   46.2464 C   0  0  1  0  0  0  0  0  0  0  0  0
   21.1785   -3.5636   44.9707 C   0  0  0  0  0  0  0  0  0  0  0  0
   19.5924   -6.1288   45.5913 N   0  0  0  0  0  0  0  0  0  0  0  0
   19.9055   -2.4958   46.6604 O   0  0  0  0  0  0  0  0  0  0  0  0
   17.3596   -3.4961   49.1318 O   0  0  0  0  0  0  0  0  0  0  0  0
   17.2359   -5.6769   47.2144 O   0  0  0  0  0  0  0  0  0  0  0  0
   20.6004   -2.5678   44.1982 O   0  0  0  0  0  0  0  0  0  0  0  0
   21.8188    0.7500   55.4674 C   0  0  1  0  0  0  0  0  0  0  0  0
   21.5836    2.0109   56.3740 C   0  0  1  0  0  0  0  0  0  0  0  0
   22.6515    2.0157   57.5264 C   0  0  2  0  0  0  0  0  0  0  0  0
   22.4931    0.7425   58.3711 C   0  0  1  0  0  0  0  0  0  0  0  0
   22.7436   -0.5224   57.4625 C   0  0  0  0  0  0  0  0  0  0  0  0
   21.6810   -0.5213   56.2941 C   0  0  2  0  0  0  0  0  0  0  0  0
   23.4735    0.7682   59.4440 N   0  0  0  0  0  0  0  0  0  0  0  0
   21.8975   -1.6890   55.3998 N   0  0  0  0  0  0  0  0  0  0  0  0
   21.7323    3.2208   55.5768 O   0  0  0  0  0  0  0  0  0  0  0  0
   22.4335    3.1307   58.3496 O   0  0  0  0  0  0  0  0  0  0  0  0
  1  2  1  0  0  0  0
  1 12  1  1  0  0  0
  1 13  1  0  0  0  0
  2  3  1  0  0  0  0
  2 10  1  1  0  0  0
  4  3  1  1  0  0  0
  4  5  1  0  0  0  0
  4 14  1  0  0  0  0
  5  6  1  0  0  0  0
  5 13  1  6  0  0  0
  6  7  1  0  0  0  0
  6 15  1  6  0  0  0
  7  8  1  0  0  0  0
  7 11  1  6  0  0  0
  8 14  1  0  0  0  0
  8 16  1  1  0  0  0
  9 11  1  0  0  0  0
 17 16  1  1  0  0  0
 17 18  1  0  0  0  0
 17 24  1  0  0  0  0
 18 19  1  0  0  0  0
 18 25  1  1  0  0  0
 19 20  1  0  0  0  0
 19 26  1  6  0  0  0
 20 21  1  0  0  0  0
 20 23  1  1  0  0  0
 21 22  1  6  0  0  0
 21 24  1  0  0  0  0
 22 27  1  0  0  0  0
 28 12  1  6  0  0  0
 28 29  1  0  0  0  0
 28 33  1  0  0  0  0
 29 30  1  0  0  0  0
 29 36  1  6  0  0  0
 30 31  1  0  0  0  0
 30 37  1  1  0  0  0
 31 32  1  0  0  0  0
 31 34  1  1  0  0  0
 32 33  1  0  0  0  0
 33 35  1  6  0  0  0
M  END
>  <CHROM.1>
-155.48896740,147.33125981,-162.40111421,-148.76792113,81.82498622,81.00840881
20.85943837,-1.13061462,51.38043751,1.29767379,-0.69417409,0.89828044

>  <Name>
2oe5_lig

>  <RI>
0

>  <Rbt.Current_Directory>
/home/itssahil/PROJECTS/Mol_Feturizer/New_Systems/rnas/2oe5

>  <Rbt.Executable>
rbdock ($Id: //depot/dev/client3/rdock/2013.1/src/exe/rbdock.cxx#4 $)

>  <Rbt.Library>
libRbt.so (2013.1, Build901 2013/11/27)

>  <Rbt.Parameter_File>
/export/apps/rDock/src/rDock_2013.1_src/data/scripts/dock_solv.prm

>  <Rbt.Receptor>
prm/pocket_docking_3.prm

>  <SCORE>
-20.2024

>  <SCORE.INTER>
-17.387

>  <SCORE.INTER.CONST>
1

>  <SCORE.INTER.POLAR>
-2.32582

>  <SCORE.INTER.ROT>
6

>  <SCORE.INTER.SOLV>
16.0178

>  <SCORE.INTER.VDW>
-16.7779

>  <SCORE.INTER.norm>
-0.46992

>  <SCORE.INTRA>
-2.81538

>  <SCORE.INTRA.DIHEDRAL>
-4.15689

>  <SCORE.INTRA.DIHEDRAL.0>
16.2083

>  <SCORE.INTRA.POLAR>
0

>  <SCORE.INTRA.POLAR.0>
0

>  <SCORE.INTRA.REPUL>
0

>  <SCORE.INTRA.REPUL.0>
0

>  <SCORE.INTRA.SOLV>
-1.35996

>  <SCORE.INTRA.SOLV.lig_0>
-89.8095

>  <SCORE.INTRA.VDW>
-0.0569499

>  <SCORE.INTRA.VDW.0>
-3.19502

>  <SCORE.INTRA.norm>
-0.0760912

>  <SCORE.RESTR>
0

>  <SCORE.RESTR.CAVITY>
0

>  <SCORE.RESTR.norm>
0

>  <SCORE.SYSTEM>
0

>  <SCORE.SYSTEM.CONST>
0

>  <SCORE.SYSTEM.DIHEDRAL>
0

>  <SCORE.SYSTEM.SOLV>
0

>  <SCORE.SYSTEM.norm>
0

>  <SCORE.heavy>
37

>  <SCORE.norm>
-0.546011

>  <RMSD>
1.214

$$$$
2oe5_lig
 OpenBabel11021811463D
libRbt.so/2013.1/901 2013/11/27
 37 40  0  0  0  0  0  0  0  0999 V2000
   20.9644    1.8022   53.6661 C   0  0  1  0  0  0  0  0  0  0  0  0
   19.8808    2.2771   52.6724 C   0  0  1  0  0  0  0  0  0  0  0  0
   19.0778    1.0306   52.1445 C   0  0  0  0  0  0  0  0  0  0  0  0
   20.1311    0.1221   51.4717 C   0  0  1  0  0  0  0  0  0  0  0  0
   21.2422   -0.3537   52.5088 C   0  0  1  0  0  0  0  0  0  0  0  0
   22.3075   -1.2748   51.8539 C   0  0  1  0  0  0  0  0  0  0  0  0
   21.5490   -2.5067   51.2831 C   0  0  1  0  0  0  0  0  0  0  0  0
   20.4324   -1.9897   50.2987 C   0  0  2  0  0  0  0  0  0  0  0  0
   22.1503   -4.8792   50.3491 C   0  0  0  0  0  0  0  0  0  0  0  0
   18.9514    3.2127   53.3465 N   0  0  0  0  0  0  0  0  0  0  0  0
   22.5102   -3.4364   50.5786 N   0  0  0  0  0  0  0  0  0  0  0  0
   20.3926    1.1793   54.8279 O   0  0  0  0  0  0  0  0  0  0  0  0
   21.8930    0.8381   53.0568 O   0  0  0  0  0  0  0  0  0  0  0  0
   19.4806   -1.0656   50.9453 O   0  0  0  0  0  0  0  0  0  0  0  0
   22.9608   -0.5288   50.8219 O   0  0  0  0  0  0  0  0  0  0  0  0
   19.6786   -3.0803   49.8072 O   0  0  0  0  0  0  0  0  0  0  0  0
   19.0430   -2.7272   48.5929 C   0  0  2  0  0  0  0  0  0  0  0  0
   18.0592   -3.7968   48.1200 C   0  0  1  0  0  0  0  0  0  0  0  0
   18.7926   -5.1242   47.7837 C   0  0  2  0  0  0  0  0  0  0  0  0
   19.8681   -4.8051   46.7032 C   0  0  1  0  0  0  0  0  0  0  0  0
   20.8508   -3.7408   47.2929 C   0  0  1  0  0  0  0  0  0  0  0  0
   21.9137   -3.3143   46.3052 C   0  0  0  0  0  0  0  0  0  0  0  0
   20.5859   -6.0917   46.3666 N   0  0  0  0  0  0  0  0  0  0  0  0
   20.0775   -2.5265   47.5793 O   0  0  0  0  0  0  0  0  0  0  0  0
   17.0960   -3.9958   49.1737 O   0  0  0  0  0  0  0  0  0  0  0  0
   17.8257   -6.0437   47.2446 O   0  0  0  0  0  0  0  0  0  0  0  0
   21.3696   -2.9359   45.0872 O   0  0  0  0  0  0  0  0  0  0  0  0
   21.2861    1.0791   55.9371 C   0  0  1  0  0  0  0  0  0  0  0  0
   21.5892    2.5101   56.5091 C   0  0  1  0  0  0  0  0  0  0  0  0
   22.5622    2.3728   57.7350 C   0  0  2  0  0  0  0  0  0  0  0  0
   21.8920    1.5195   58.8224 C   0  0  1  0  0  0  0  0  0  0  0  0
   21.6012    0.0783   58.2510 C   0  0  0  0  0  0  0  0  0  0  0  0
   20.6355    0.2147   57.0087 C   0  0  2  0  0  0  0  0  0  0  0  0
   22.7940    1.4160   59.9576 N   0  0  0  0  0  0  0  0  0  0  0  0
   20.3537   -1.1235   56.4259 N   0  0  0  0  0  0  0  0  0  0  0  0
   22.2244    3.3231   55.4809 O   0  0  0  0  0  0  0  0  0  0  0  0
   22.8210    3.6476   58.2606 O   0  0  0  0  0  0  0  0  0  0  0  0
  1  2  1  0  0  0  0
  1 12  1  1  0  0  0
  1 13  1  0  0  0  0
  2  3  1  0  0  0  0
  2 10  1  1  0  0  0
  4  3  1  1  0  0  0
  4  5  1  0  0  0  0
  4 14  1  0  0  0  0
  5  6  1  0  0  0  0
  5 13  1  6  0  0  0
  6  7  1  0  0  0  0
  6 15  1  6  0  0  0
  7  8  1  0  0  0  0
  7 11  1  6  0  0  0
  8 14  1  0  0  0  0
  8 16  1  1  0  0  0
  9 11  1  0  0  0  0
 17 16  1  1  0  0  0
 17 18  1  0  0  0  0
 17 24  1  0  0  0  0
 18 19  1  0  0  0  0
 18 25  1  1  0  0  0
 19 20  1  0  0  0  0
 19 26  1  6  0  0  0
 20 21  1  0  0  0  0
 20 23  1  1  0  0  0
 21 22  1  6  0  0  0
 21 24  1  0  0  0  0
 22 27  1  0  0  0  0
 28 12  1  6  0  0  0
 28 29  1  0  0  0  0
 28 33  1  0  0  0  0
 29 30  1  0  0  0  0
 29 36  1  6  0  0  0
 30 31  1  0  0  0  0
 30 37  1  1  0  0  0
 31 32  1  0  0  0  0
 31 34  1  1  0  0  0
 32 33  1  0  0  0  0
 33 35  1  6  0  0  0
M  END
>  <CHROM.1>
-162.49006211,159.32972020,-158.04807290,-171.87889426,51.06608320,68.36025175
20.72245836,-1.05900381,51.95907694,0.87045119,-1.32303351,0.31807783

>  <Name>
2oe5_lig

>  <RI>
0

>  <Rbt.Current_Directory>
/home/itssahil/PROJECTS/Mol_Feturizer/New_Systems/rnas/2oe5

>  <Rbt.Executable>
rbdock ($Id: //depot/dev/client3/rdock/2013.1/src/exe/rbdock.cxx#4 $)

>  <Rbt.Library>
libRbt.so (2013.1, Build901 2013/11/27)

>  <Rbt.Parameter_File>
/export/apps/rDock/src/rDock_2013.1_src/data/scripts/dock_solv.prm

>  <Rbt.Receptor>
prm/pocket_docking_7.prm

>  <SCORE>
-18.4292

>  <SCORE.INTER>
-12.8218

>  <SCORE.INTER.CONST>
1

>  <SCORE.INTER.POLAR>
-1.75331

>  <SCORE.INTER.ROT>
6

>  <SCORE.INTER.SOLV>
15.2721

>  <SCORE.INTER.VDW>
-15.3942

>  <SCORE.INTER.norm>
-0.346535

>  <SCORE.INTRA>
-5.60738

>  <SCORE.INTRA.DIHEDRAL>
-11.3413

>  <SCORE.INTRA.DIHEDRAL.0>
16.2083

>  <SCORE.INTRA.POLAR>
0

>  <SCORE.INTRA.POLAR.0>
0

>  <SCORE.INTRA.REPUL>
0

>  <SCORE.INTRA.REPUL.0>
0

>  <SCORE.INTRA.SOLV>
-1.18959

>  <SCORE.INTRA.SOLV.lig_0>
-89.8095

>  <SCORE.INTRA.VDW>
0.658063

>  <SCORE.INTRA.VDW.0>
-3.19502

>  <SCORE.INTRA.norm>
-0.151551

>  <SCORE.RESTR>
0

>  <SCORE.RESTR.CAVITY>
0

>  <SCORE.RESTR.norm>
0

>  <SCORE.SYSTEM>
0

>  <SCORE.SYSTEM.CONST>
0

>  <SCORE.SYSTEM.DIHEDRAL>
0

>  <SCORE.SYSTEM.SOLV>
0

>  <SCORE.SYSTEM.norm>
0

>  <SCORE.heavy>
37

>  <SCORE.norm>
-0.498086

>  <RMSD>
1.221

$$$$
2oe5_lig
 OpenBabel11021811463D
libRbt.so/2013.1/901 2013/11/27
 37 40  0  0  0  0  0  0  0  0999 V2000
   20.8261    1.7836   53.5741 C   0  0  1  0  0  0  0  0  0  0  0  0
   19.6739    2.1975   52.6317 C   0  0  1  0  0  0  0  0  0  0  0  0
   18.9113    0.9090   52.1465 C   0  0  0  0  0  0  0  0  0  0  0  0
   19.9763    0.0512   51.4272 C   0  0  1  0  0  0  0  0  0  0  0  0
   21.1580   -0.3619   52.4117 C   0  0  1  0  0  0  0  0  0  0  0  0
   22.2365   -1.2315   51.7098 C   0  0  1  0  0  0  0  0  0  0  0  0
   21.5154   -2.5033   51.1797 C   0  0  1  0  0  0  0  0  0  0  0  0
   20.3286   -2.0491   50.2479 C   0  0  2  0  0  0  0  0  0  0  0  0
   23.6600   -4.0075   51.1446 C   0  0  0  0  0  0  0  0  0  0  0  0
   18.7311    3.0886   53.3462 N   0  0  0  0  0  0  0  0  0  0  0  0
   22.4882   -3.3871   50.4333 N   0  0  0  0  0  0  0  0  0  0  0  0
   20.3423    1.1390   54.7638 O   0  0  0  0  0  0  0  0  0  0  0  0
   21.7726    0.8644   52.9245 O   0  0  0  0  0  0  0  0  0  0  0  0
   19.3629   -1.1707   50.9361 O   0  0  0  0  0  0  0  0  0  0  0  0
   22.8015   -0.4591   50.6456 O   0  0  0  0  0  0  0  0  0  0  0  0
   19.6089   -3.1792   49.7962 O   0  0  0  0  0  0  0  0  0  0  0  0
   18.7015   -2.8050   48.7766 C   0  0  2  0  0  0  0  0  0  0  0  0
   17.7702   -3.9497   48.3794 C   0  0  1  0  0  0  0  0  0  0  0  0
   18.5654   -5.1291   47.7552 C   0  0  2  0  0  0  0  0  0  0  0  0
   19.3525   -4.5694   46.5333 C   0  0  1  0  0  0  0  0  0  0  0  0
   20.3074   -3.4408   47.0440 C   0  0  1  0  0  0  0  0  0  0  0  0
   21.0892   -2.7854   45.9274 C   0  0  0  0  0  0  0  0  0  0  0  0
   20.1280   -5.7106   45.9166 N   0  0  0  0  0  0  0  0  0  0  0  0
   19.4760   -2.3738   47.6139 O   0  0  0  0  0  0  0  0  0  0  0  0
   17.0729   -4.3733   49.5677 O   0  0  0  0  0  0  0  0  0  0  0  0
   17.6198   -6.1174   47.3078 O   0  0  0  0  0  0  0  0  0  0  0  0
   20.2626   -2.1175   45.0367 O   0  0  0  0  0  0  0  0  0  0  0  0
   21.3096    1.0393   55.8093 C   0  0  1  0  0  0  0  0  0  0  0  0
   21.7083    2.4749   56.3062 C   0  0  1  0  0  0  0  0  0  0  0  0
   22.7619    2.3388   57.4637 C   0  0  2  0  0  0  0  0  0  0  0  0
   22.1402    1.5503   58.6263 C   0  0  1  0  0  0  0  0  0  0  0  0
   21.7534    0.1040   58.1295 C   0  0  0  0  0  0  0  0  0  0  0  0
   20.7059    0.2385   56.9552 C   0  0  2  0  0  0  0  0  0  0  0  0
   23.1177    1.4478   59.6972 N   0  0  0  0  0  0  0  0  0  0  0  0
   20.3312   -1.1058   56.4427 N   0  0  0  0  0  0  0  0  0  0  0  0
   22.2978    3.2266   55.2066 O   0  0  0  0  0  0  0  0  0  0  0  0
   23.1071    3.6187   57.9231 O   0  0  0  0  0  0  0  0  0  0  0  0
  1  2  1  0  0  0  0
  1 12  1  1  0  0  0
  1 13  1  0  0  0  0
  2  3  1  0  0  0  0
  2 10  1  1  0  0  0
  4  3  1  1  0  0  0
  4  5  1  0  0  0  0
  4 14  1  0  0  0  0
  5  6  1  0  0  0  0
  5 13  1  6  0  0  0
  6  7  1  0  0  0  0
  6 15  1  6  0  0  0
  7  8  1  0  0  0  0
  7 11  1  6  0  0  0
  8 14  1  0  0  0  0
  8 16  1  1  0  0  0
  9 11  1  0  0  0  0
 17 16  1  1  0  0  0
 17 18  1  0  0  0  0
 17 24  1  0  0  0  0
 18 19  1  0  0  0  0
 18 25  1  1  0  0  0
 19 20  1  0  0  0  0
 19 26  1  6  0  0  0
 20 21  1  0  0  0  0
 20 23  1  1  0  0  0
 21 22  1  6  0  0  0
 21 24  1  0  0  0  0
 22 27  1  0  0  0  0
 28 12  1  6  0  0  0
 28 29  1  0  0  0  0
 28 33  1  0  0  0  0
 29 30  1  0  0  0  0
 29 36  1  6  0  0  0
 30 31  1  0  0  0  0
 30 37  1  1  0  0  0
 31 32  1  0  0  0  0
 31 34  1  1  0  0  0
 32 33  1  0  0  0  0
 33 35  1  6  0  0  0
M  END
>  <CHROM.1>
-165.03818447,63.33530905,-169.45837111,-172.52844551,64.25993008,64.25494171
20.61787467,-1.00404793,51.89350835,1.01260839,-1.16131445,0.49834560

>  <Name>
2oe5_lig

>  <RI>
0

>  <Rbt.Current_Directory>
/home/itssahil/PROJECTS/Mol_Feturizer/New_Systems/rnas/2oe5

>  <Rbt.Executable>
rbdock ($Id: //depot/dev/client3/rdock/2013.1/src/exe/rbdock.cxx#4 $)

>  <Rbt.Library>
libRbt.so (2013.1, Build901 2013/11/27)

>  <Rbt.Parameter_File>
/export/apps/rDock/src/rDock_2013.1_src/data/scripts/dock_solv.prm

>  <Rbt.Receptor>
prm/pocket_docking_5.prm

>  <SCORE>
-19.5415

>  <SCORE.INTER>
-13.5134

>  <SCORE.INTER.CONST>
1

>  <SCORE.INTER.POLAR>
-2.00387

>  <SCORE.INTER.ROT>
6

>  <SCORE.INTER.SOLV>
16.4615

>  <SCORE.INTER.VDW>
-15.4165

>  <SCORE.INTER.norm>
-0.365227

>  <SCORE.INTRA>
-6.02807

>  <SCORE.INTRA.DIHEDRAL>
-14.1143

>  <SCORE.INTRA.DIHEDRAL.0>
16.2083

>  <SCORE.INTRA.POLAR>
0

>  <SCORE.INTRA.POLAR.0>
0

>  <SCORE.INTRA.REPUL>
0

>  <SCORE.INTRA.REPUL.0>
0

>  <SCORE.INTRA.SOLV>
-2.17918

>  <SCORE.INTRA.SOLV.lig_0>
-89.8095

>  <SCORE.INTRA.VDW>
2.11865

>  <SCORE.INTRA.VDW.0>
-3.19502

>  <SCORE.INTRA.norm>
-0.162921

>  <SCORE.RESTR>
0

>  <SCORE.RESTR.CAVITY>
0

>  <SCORE.RESTR.norm>
0

>  <SCORE.SYSTEM>
0

>  <SCORE.SYSTEM.CONST>
0

>  <SCORE.SYSTEM.DIHEDRAL>
0

>  <SCORE.SYSTEM.SOLV>
0

>  <SCORE.SYSTEM.norm>
0

>  <SCORE.heavy>
37

>  <SCORE.norm>
-0.528148

>  <RMSD>
1.323

$$$$
2oe5_lig
 OpenBabel11021811463D
libRbt.so/2013.1/901 2013/11/27
 37 40  0  0  0  0  0  0  0  0999 V2000
   20.8181    1.8812   53.7745 C   0  0  1  0  0  0  0  0  0  0  0  0
   19.7688    2.3775   52.7548 C   0  0  1  0  0  0  0  0  0  0  0  0
   18.9485    1.1482   52.2134 C   0  0  0  0  0  0  0  0  0  0  0  0
   19.9948    0.2121   51.5680 C   0  0  1  0  0  0  0  0  0  0  0  0
   21.0705   -0.2855   52.6317 C   0  0  1  0  0  0  0  0  0  0  0  0
   22.1281   -1.2344   52.0045 C   0  0  1  0  0  0  0  0  0  0  0  0
   21.3536   -2.4503   51.4212 C   0  0  1  0  0  0  0  0  0  0  0  0
   20.2721   -1.9111   50.4098 C   0  0  2  0  0  0  0  0  0  0  0  0
   21.8923   -4.8205   50.4442 C   0  0  0  0  0  0  0  0  0  0  0  0
   18.8469    3.3377   53.4042 N   0  0  0  0  0  0  0  0  0  0  0  0
   22.3080   -3.4055   50.7421 N   0  0  0  0  0  0  0  0  0  0  0  0
   20.2055    1.2769   54.9254 O   0  0  0  0  0  0  0  0  0  0  0  0
   21.7370    0.8928   53.1900 O   0  0  0  0  0  0  0  0  0  0  0  0
   19.3283   -0.9620   51.0313 O   0  0  0  0  0  0  0  0  0  0  0  0
   22.8221   -0.5084   50.9849 O   0  0  0  0  0  0  0  0  0  0  0  0
   19.5039   -2.9857   49.9054 O   0  0  0  0  0  0  0  0  0  0  0  0
   18.8893   -2.6162   48.6852 C   0  0  2  0  0  0  0  0  0  0  0  0
   18.0308   -3.7391   48.1042 C   0  0  1  0  0  0  0  0  0  0  0  0
   18.8988   -4.9705   47.7257 C   0  0  2  0  0  0  0  0  0  0  0  0
   19.9838   -4.4876   46.7181 C   0  0  1  0  0  0  0  0  0  0  0  0
   20.8369   -3.3774   47.4152 C   0  0  1  0  0  0  0  0  0  0  0  0
   21.8956   -2.7948   46.5057 C   0  0  0  0  0  0  0  0  0  0  0  0
   20.8326   -5.6798   46.3410 N   0  0  0  0  0  0  0  0  0  0  0  0
   19.9419   -2.2589   47.7354 O   0  0  0  0  0  0  0  0  0  0  0  0
   17.0472   -4.0908   49.0975 O   0  0  0  0  0  0  0  0  0  0  0  0
   18.0457   -5.9385   47.0884 O   0  0  0  0  0  0  0  0  0  0  0  0
   22.6508   -1.8224   47.1435 O   0  0  0  0  0  0  0  0  0  0  0  0
   21.0644    1.1804   56.0619 C   0  0  1  0  0  0  0  0  0  0  0  0
   21.2827    2.6041   56.6883 C   0  0  1  0  0  0  0  0  0  0  0  0
   22.2186    2.4702   57.9430 C   0  0  2  0  0  0  0  0  0  0  0  0
   21.5512    1.5532   58.9791 C   0  0  1  0  0  0  0  0  0  0  0  0
   21.3457    0.1199   58.3534 C   0  0  0  0  0  0  0  0  0  0  0  0
   20.4176    0.2537   57.0825 C   0  0  2  0  0  0  0  0  0  0  0  0
   22.4179    1.4529   60.1418 N   0  0  0  0  0  0  0  0  0  0  0  0
   20.2168   -1.0760   56.4489 N   0  0  0  0  0  0  0  0  0  0  0  0
   21.9149    3.4774   55.7089 O   0  0  0  0  0  0  0  0  0  0  0  0
   22.4013    3.7374   58.5167 O   0  0  0  0  0  0  0  0  0  0  0  0
  1  2  1  0  0  0  0
  1 12  1  1  0  0  0
  1 13  1  0  0  0  0
  2  3  1  0  0  0  0
  2 10  1  1  0  0  0
  4  3  1  1  0  0  0
  4  5  1  0  0  0  0
  4 14  1  0  0  0  0
  5  6  1  0  0  0  0
  5 13  1  6  0  0  0
  6  7  1  0  0  0  0
  6 15  1  6  0  0  0
  7  8  1  0  0  0  0
  7 11  1  6  0  0  0
  8 14  1  0  0  0  0
  8 16  1  1  0  0  0
  9 11  1  0  0  0  0
 17 16  1  1  0  0  0
 17 18  1  0  0  0  0
 17 24  1  0  0  0  0
 18 19  1  0  0  0  0
 18 25  1  1  0  0  0
 19 20  1  0  0  0  0
 19 26  1  6  0  0  0
 20 21  1  0  0  0  0
 20 23  1  1  0  0  0
 21 22  1  6  0  0  0
 21 24  1  0  0  0  0
 22 27  1  0  0  0  0
 28 12  1  6  0  0  0
 28 29  1  0  0  0  0
 28 33  1  0  0  0  0
 29 30  1  0  0  0  0
 29 36  1  6  0  0  0
 30 31  1  0  0  0  0
 30 37  1  1  0  0  0
 31 32  1  0  0  0  0
 31 34  1  1  0  0  0
 32 33  1  0  0  0  0
 33 35  1  6  0  0  0
M  END
>  <CHROM.1>
-161.50669260,162.58478111,-158.86459822,-179.29542276,-179.39215569,72.35172620
20.62003219,-0.91384973,52.11769406,-0.01436938,-1.43717952,-0.57761997

>  <Name>
2oe5_lig

>  <RI>
0

>  <Rbt.Current_Directory>
/home/itssahil/PROJECTS/Mol_Feturizer/New_Systems/rnas/2oe5

>  <Rbt.Executable>
rbdock ($Id: //depot/dev/client3/rdock/2013.1/src/exe/rbdock.cxx#4 $)

>  <Rbt.Library>
libRbt.so (2013.1, Build901 2013/11/27)

>  <Rbt.Parameter_File>
/export/apps/rDock/src/rDock_2013.1_src/data/scripts/dock_solv.prm

>  <Rbt.Receptor>
prm/pocket_docking_4.prm

>  <SCORE>
-19.4347

>  <SCORE.INTER>
-13.2336

>  <SCORE.INTER.CONST>
1

>  <SCORE.INTER.POLAR>
-1.74566

>  <SCORE.INTER.ROT>
6

>  <SCORE.INTER.SOLV>
16.1399

>  <SCORE.INTER.VDW>
-15.9835

>  <SCORE.INTER.norm>
-0.357664

>  <SCORE.INTRA>
-6.20869

>  <SCORE.INTRA.DIHEDRAL>
-11.6358

>  <SCORE.INTRA.DIHEDRAL.0>
16.2083

>  <SCORE.INTRA.POLAR>
0

>  <SCORE.INTRA.POLAR.0>
0

>  <SCORE.INTRA.REPUL>
0

>  <SCORE.INTRA.REPUL.0>
0

>  <SCORE.INTRA.SOLV>
-1.351

>  <SCORE.INTRA.SOLV.lig_0>
-89.8095

>  <SCORE.INTRA.VDW>
0.284691

>  <SCORE.INTRA.VDW.0>
-3.19502

>  <SCORE.INTRA.norm>
-0.167802

>  <SCORE.RESTR>
0.00750427

>  <SCORE.RESTR.CAVITY>
0.00750427

>  <SCORE.RESTR.norm>
0.000202818

>  <SCORE.SYSTEM>
0

>  <SCORE.SYSTEM.CONST>
0

>  <SCORE.SYSTEM.DIHEDRAL>
0

>  <SCORE.SYSTEM.SOLV>
0

>  <SCORE.SYSTEM.norm>
0

>  <SCORE.heavy>
37

>  <SCORE.norm>
-0.525263

>  <RMSD>
1.384

$$$$
2oe5_lig
 OpenBabel11021811463D
libRbt.so/2013.1/901 2013/11/27
 37 40  0  0  0  0  0  0  0  0999 V2000
   20.5346    2.0725   53.8606 C   0  0  1  0  0  0  0  0  0  0  0  0
   19.1950    2.1795   53.0982 C   0  0  1  0  0  0  0  0  0  0  0  0
   18.8964    0.8121   52.3783 C   0  0  0  0  0  0  0  0  0  0  0  0
   20.0934    0.5810   51.4289 C   0  0  1  0  0  0  0  0  0  0  0  0
   21.4655    0.4783   52.2307 C   0  0  1  0  0  0  0  0  0  0  0  0
   22.6816    0.2386   51.2949 C   0  0  1  0  0  0  0  0  0  0  0  0
   22.4091   -1.0894   50.5327 C   0  0  1  0  0  0  0  0  0  0  0  0
   21.0244   -0.9613   49.7915 C   0  0  2  0  0  0  0  0  0  0  0  0
   24.1269   -2.7507   49.4593 C   0  0  0  0  0  0  0  0  0  0  0  0
   18.0979    2.4885   54.0439 N   0  0  0  0  0  0  0  0  0  0  0  0
   23.5269   -1.3743   49.5559 N   0  0  0  0  0  0  0  0  0  0  0  0
   20.4841    1.0813   54.8998 O   0  0  0  0  0  0  0  0  0  0  0  0
   21.6541    1.7273   52.9715 O   0  0  0  0  0  0  0  0  0  0  0  0
   19.9072   -0.6677   50.7100 O   0  0  0  0  0  0  0  0  0  0  0  0
   22.7772    1.3530   50.4021 O   0  0  0  0  0  0  0  0  0  0  0  0
   20.7121   -2.1753   49.1374 O   0  0  0  0  0  0  0  0  0  0  0  0
   19.3342   -2.2172   48.8171 C   0  0  2  0  0  0  0  0  0  0  0  0
   18.6224   -3.4022   49.4686 C   0  0  1  0  0  0  0  0  0  0  0  0
   19.1709   -4.7518   48.9292 C   0  0  2  0  0  0  0  0  0  0  0  0
   18.9925   -4.7456   47.3820 C   0  0  1  0  0  0  0  0  0  0  0  0
   19.7901   -3.5306   46.8041 C   0  0  1  0  0  0  0  0  0  0  0  0
   19.6451   -3.3947   45.3048 C   0  0  0  0  0  0  0  0  0  0  0  0
   19.5209   -6.0567   46.8472 N   0  0  0  0  0  0  0  0  0  0  0  0
   19.2074   -2.3049   47.3631 O   0  0  0  0  0  0  0  0  0  0  0  0
   18.8235   -3.2992   50.8922 O   0  0  0  0  0  0  0  0  0  0  0  0
   18.3849   -5.8131   49.5009 O   0  0  0  0  0  0  0  0  0  0  0  0
   20.2097   -4.4656   44.6288 O   0  0  0  0  0  0  0  0  0  0  0  0
   21.4293    1.2866   55.9500 C   0  0  1  0  0  0  0  0  0  0  0  0
   20.9090    2.4021   56.9257 C   0  0  1  0  0  0  0  0  0  0  0  0
   21.9581    2.6003   58.0783 C   0  0  2  0  0  0  0  0  0  0  0  0
   22.1201    1.2819   58.8499 C   0  0  1  0  0  0  0  0  0  0  0  0
   22.6564    0.1663   57.8720 C   0  0  0  0  0  0  0  0  0  0  0  0
   21.6108   -0.0240   56.7037 C   0  0  2  0  0  0  0  0  0  0  0  0
   23.0783    1.4836   59.9242 N   0  0  0  0  0  0  0  0  0  0  0  0
   22.0908   -1.0543   55.7456 N   0  0  0  0  0  0  0  0  0  0  0  0
   20.7532    3.6542   56.1980 O   0  0  0  0  0  0  0  0  0  0  0  0
   21.4884    3.5831   58.9625 O   0  0  0  0  0  0  0  0  0  0  0  0
  1  2  1  0  0  0  0
  1 12  1  1  0  0  0
  1 13  1  0  0  0  0
  2  3  1  0  0  0  0
  2 10  1  1  0  0  0
  4  3  1  1  0  0  0
  4  5  1  0  0  0  0
  4 14  1  0  0  0  0
  5  6  1  0  0  0  0
  5 13  1  6  0  0  0
  6  7  1  0  0  0  0
  6 15  1  6  0  0  0
  7  8  1  0  0  0  0
  7 11  1  6  0  0  0
  8 14  1  0  0  0  0
  8 16  1  1  0  0  0
  9 11  1  0  0  0  0
 17 16  1  6  0  0  0
 17 18  1  0  0  0  0
 17 24  1  0  0  0  0
 18 19  1  0  0  0  0
 18 25  1  1  0  0  0
 19 20  1  0  0  0  0
 19 26  1  1  0  0  0
 20 21  1  0  0  0  0
 20 23  1  6  0  0  0
 21 22  1  6  0  0  0
 21 24  1  0  0  0  0
 22 27  1  0  0  0  0
 28 12  1  6  0  0  0
 28 29  1  0  0  0  0
 28 33  1  0  0  0  0
 29 30  1  0  0  0  0
 29 36  1  6  0  0  0
 30 31  1  0  0  0  0
 30 37  1  1  0  0  0
 31 32  1  0  0  0  0
 31 34  1  1  0  0  0
 32 33  1  0  0  0  0
 33 35  1  6  0  0  0
M  END
>  <CHROM.1>
-156.14188227,134.49693707,162.58943733,-120.47620436,-65.29032543,78.69886919
20.73478898,-0.67621059,52.03797109,-0.97921292,-1.29822185,-1.53617535

>  <Name>
2oe5_lig

>  <RI>
0

>  <Rbt.Current_Directory>
/home/itssahil/PROJECTS/Mol_Feturizer/New_Systems/rnas/2oe5

>  <Rbt.Executable>
rbdock ($Id: //depot/dev/client3/rdock/2013.1/src/exe/rbdock.cxx#4 $)

>  <Rbt.Library>
libRbt.so (2013.1, Build901 2013/11/27)

>  <Rbt.Parameter_File>
/export/apps/rDock/src/rDock_2013.1_src/data/scripts/dock_solv.prm

>  <Rbt.Receptor>
prm/pocket_docking_3.prm

>  <SCORE>
-8.64026

>  <SCORE.INTER>
-8.71598

>  <SCORE.INTER.CONST>
1

>  <SCORE.INTER.POLAR>
-0.520884

>  <SCORE.INTER.ROT>
6

>  <SCORE.INTER.SOLV>
13.053

>  <SCORE.INTER.VDW>
-16.0254

>  <SCORE.INTER.norm>
-0.235567

>  <SCORE.INTRA>
0.0757239

>  <SCORE.INTRA.DIHEDRAL>
-2.37548

>  <SCORE.INTRA.DIHEDRAL.0>
16.2083

>  <SCORE.INTRA.POLAR>
0

>  <SCORE.INTRA.POLAR.0>
0

>  <SCORE.INTRA.REPUL>
0

>  <SCORE.INTRA.REPUL.0>
0

>  <SCORE.INTRA.SOLV>
-0.853141

>  <SCORE.INTRA.SOLV.lig_0>
-89.8095

>  <SCORE.INTRA.VDW>
1.69003

>  <SCORE.INTRA.VDW.0>
-3.19502

>  <SCORE.INTRA.norm>
0.00204659

>  <SCORE.RESTR>
0

>  <SCORE.RESTR.CAVITY>
0

>  <SCORE.RESTR.norm>
0

>  <SCORE.SYSTEM>
0

>  <SCORE.SYSTEM.CONST>
0

>  <SCORE.SYSTEM.DIHEDRAL>
0

>  <SCORE.SYSTEM.SOLV>
0

>  <SCORE.SYSTEM.norm>
0

>  <SCORE.heavy>
37

>  <SCORE.norm>
-0.233521

>  <RMSD>
1.386

$$$$
2oe5_lig
 OpenBabel11021811463D
libRbt.so/2013.1/901 2013/11/27
 37 40  0  0  0  0  0  0  0  0999 V2000
   21.0766    1.8834   53.3356 C   0  0  1  0  0  0  0  0  0  0  0  0
   19.7463    2.1718   52.6046 C   0  0  1  0  0  0  0  0  0  0  0  0
   19.1692    0.8266   52.0262 C   0  0  0  0  0  0  0  0  0  0  0  0
   20.2591    0.2931   51.0696 C   0  0  1  0  0  0  0  0  0  0  0  0
   21.6238    0.0063   51.8386 C   0  0  1  0  0  0  0  0  0  0  0  0
   22.7315   -0.5381   50.8958 C   0  0  1  0  0  0  0  0  0  0  0  0
   22.1854   -1.8533   50.2708 C   0  0  1  0  0  0  0  0  0  0  0  0
   20.8157   -1.5339   49.5602 C   0  0  2  0  0  0  0  0  0  0  0  0
   24.5348   -2.8975   49.7679 C   0  0  0  0  0  0  0  0  0  0  0  0
   18.7687    2.7626   53.5473 N   0  0  0  0  0  0  0  0  0  0  0  0
   23.1863   -2.4271   49.2944 N   0  0  0  0  0  0  0  0  0  0  0  0
   20.8920    1.0144   54.4651 O   0  0  0  0  0  0  0  0  0  0  0  0
   22.0721    1.2581   52.4521 O   0  0  0  0  0  0  0  0  0  0  0  0
   19.8142   -0.9569   50.4778 O   0  0  0  0  0  0  0  0  0  0  0  0
   22.9897    0.4560   49.8991 O   0  0  0  0  0  0  0  0  0  0  0  0
   20.2563   -2.7208   49.0331 O   0  0  0  0  0  0  0  0  0  0  0  0
   19.3252   -2.4109   48.0132 C   0  0  2  0  0  0  0  0  0  0  0  0
   18.1662   -3.4057   47.9634 C   0  0  1  0  0  0  0  0  0  0  0  0
   18.6644   -4.8295   47.5923 C   0  0  2  0  0  0  0  0  0  0  0  0
   19.4014   -4.7267   46.2241 C   0  0  1  0  0  0  0  0  0  0  0  0
   20.5929   -3.7266   46.3861 C   0  0  1  0  0  0  0  0  0  0  0  0
   21.3534   -3.5078   45.0972 C   0  0  0  0  0  0  0  0  0  0  0  0
   19.8879   -6.1084   45.8524 N   0  0  0  0  0  0  0  0  0  0  0  0
   20.0334   -2.4150   46.7340 O   0  0  0  0  0  0  0  0  0  0  0  0
   17.5378   -3.4042   49.2606 O   0  0  0  0  0  0  0  0  0  0  0  0
   17.5139   -5.6835   47.4572 O   0  0  0  0  0  0  0  0  0  0  0  0
   20.7353   -2.5723   44.2815 O   0  0  0  0  0  0  0  0  0  0  0  0
   22.0101    0.9620   55.3515 C   0  0  1  0  0  0  0  0  0  0  0  0
   22.0991    2.2949   56.1775 C   0  0  1  0  0  0  0  0  0  0  0  0
   23.3272    2.2080   57.1536 C   0  0  2  0  0  0  0  0  0  0  0  0
   23.1307    1.0246   58.1131 C   0  0  1  0  0  0  0  0  0  0  0  0
   23.0559   -0.3147   57.2830 C   0  0  0  0  0  0  0  0  0  0  0  0
   21.8312   -0.2237   56.2899 C   0  0  2  0  0  0  0  0  0  0  0  0
   24.2635    0.9666   59.0221 N   0  0  0  0  0  0  0  0  0  0  0  0
   21.7388   -1.4611   55.4712 N   0  0  0  0  0  0  0  0  0  0  0  0
   22.2848    3.4201   55.2715 O   0  0  0  0  0  0  0  0  0  0  0  0
   23.3995    3.3894   57.9068 O   0  0  0  0  0  0  0  0  0  0  0  0
  1  2  1  0  0  0  0
  1 12  1  1  0  0  0
  1 13  1  0  0  0  0
  2  3  1  0  0  0  0
  2 10  1  1  0  0  0
  4  3  1  1  0  0  0
  4  5  1  0  0  0  0
  4 14  1  0  0  0  0
  5  6  1  0  0  0  0
  5 13  1  6  0  0  0
  6  7  1  0  0  0  0
  6 15  1  6  0  0  0
  7  8  1  0  0  0  0
  7 11  1  6  0  0  0
  8 14  1  0  0  0  0
  8 16  1  1  0  0  0
  9 11  1  0  0  0  0
 17 16  1  1  0  0  0
 17 18  1  0  0  0  0
 17 24  1  0  0  0  0
 18 19  1  0  0  0  0
 18 25  1  1  0  0  0
 19 20  1  0  0  0  0
 19 26  1  6  0  0  0
 20 21  1  0  0  0  0
 20 23  1  1  0  0  0
 21 22  1  6  0  0  0
 21 24  1  0  0  0  0
 22 27  1  0  0  0  0
 28 12  1  6  0  0  0
 28 29  1  0  0  0  0
 28 33  1  0  0  0  0
 29 30  1  0  0  0  0
 29 36  1  6  0  0  0
 30 31  1  0  0  0  0
 30 37  1  1  0  0  0
 31 32  1  0  0  0  0
 31 34  1  1  0  0  0
 32 33  1  0  0  0  0
 33 35  1  6  0  0  0
M  END
>  <CHROM.1>
-166.19483169,63.98835946,-158.95532407,-146.91882656,82.32044814,73.32411978
21.08657349,-0.88908715,51.40011088,1.32509426,-0.23238813,0.99360469

>  <Name>
2oe5_lig

>  <RI>
0

>  <Rbt.Current_Directory>
/home/itssahil/PROJECTS/Mol_Feturizer/New_Systems/rnas/2oe5

>  <Rbt.Executable>
rbdock ($Id: //depot/dev/client3/rdock/2013.1/src/exe/rbdock.cxx#4 $)

>  <Rbt.Library>
libRbt.so (2013.1, Build901 2013/11/27)

>  <Rbt.Parameter_File>
/export/apps/rDock/src/rDock_2013.1_src/data/scripts/dock_solv.prm

>  <Rbt.Receptor>
prm/pocket_docking_4.prm

>  <SCORE>
-21.4269

>  <SCORE.INTER>
-18.1197

>  <SCORE.INTER.CONST>
1

>  <SCORE.INTER.POLAR>
-2.28438

>  <SCORE.INTER.ROT>
6

>  <SCORE.INTER.SOLV>
16.704

>  <SCORE.INTER.VDW>
-17.6332

>  <SCORE.INTER.norm>
-0.489723

>  <SCORE.INTRA>
-3.30716

>  <SCORE.INTRA.DIHEDRAL>
-6.65763

>  <SCORE.INTRA.DIHEDRAL.0>
16.2083

>  <SCORE.INTRA.POLAR>
0

>  <SCORE.INTRA.POLAR.0>
0

>  <SCORE.INTRA.REPUL>
0

>  <SCORE.INTRA.REPUL.0>
0

>  <SCORE.INTRA.SOLV>
-1.95395

>  <SCORE.INTRA.SOLV.lig_0>
-89.8095

>  <SCORE.INTRA.VDW>
0.99863

>  <SCORE.INTRA.VDW.0>
-3.19502

>  <SCORE.INTRA.norm>
-0.0893827

>  <SCORE.RESTR>
0

>  <SCORE.RESTR.CAVITY>
0

>  <SCORE.RESTR.norm>
0

>  <SCORE.SYSTEM>
0

>  <SCORE.SYSTEM.CONST>
0

>  <SCORE.SYSTEM.DIHEDRAL>
0

>  <SCORE.SYSTEM.SOLV>
0

>  <SCORE.SYSTEM.norm>
0

>  <SCORE.heavy>
37

>  <SCORE.norm>
-0.579105

>  <RMSD>
1.428

$$$$
2oe5_lig
 OpenBabel11021811463D
libRbt.so/2013.1/901 2013/11/27
 37 40  0  0  0  0  0  0  0  0999 V2000
   20.8064    2.1103   53.8889 C   0  0  1  0  0  0  0  0  0  0  0  0
   19.7390    2.5744   52.8728 C   0  0  1  0  0  0  0  0  0  0  0  0
   18.9533    1.3207   52.3359 C   0  0  0  0  0  0  0  0  0  0  0  0
   20.0242    0.4151   51.6874 C   0  0  1  0  0  0  0  0  0  0  0  0
   21.1182   -0.0493   52.7475 C   0  0  1  0  0  0  0  0  0  0  0  0
   22.2009   -0.9673   52.1172 C   0  0  1  0  0  0  0  0  0  0  0  0
   21.4603   -2.2062   51.5382 C   0  0  1  0  0  0  0  0  0  0  0  0
   20.3596   -1.7003   50.5304 C   0  0  2  0  0  0  0  0  0  0  0  0
   22.1126   -4.5904   50.6705 C   0  0  0  0  0  0  0  0  0  0  0  0
   18.7917    3.5077   53.5247 N   0  0  0  0  0  0  0  0  0  0  0  0
   22.4399   -3.1336   50.8565 N   0  0  0  0  0  0  0  0  0  0  0  0
   20.2163    1.4896   55.0428 O   0  0  0  0  0  0  0  0  0  0  0  0
   21.7518    1.1488   53.3020 O   0  0  0  0  0  0  0  0  0  0  0  0
   19.3906   -0.7787   51.1545 O   0  0  0  0  0  0  0  0  0  0  0  0
   22.8693   -0.2224   51.0942 O   0  0  0  0  0  0  0  0  0  0  0  0
   19.6215   -2.7976   50.0301 O   0  0  0  0  0  0  0  0  0  0  0  0
   19.0473   -2.4702   48.7786 C   0  0  2  0  0  0  0  0  0  0  0  0
   18.2306   -3.6226   48.1952 C   0  0  1  0  0  0  0  0  0  0  0  0
   19.1331   -4.8473   47.8813 C   0  0  2  0  0  0  0  0  0  0  0  0
   20.2470   -4.3704   46.9027 C   0  0  1  0  0  0  0  0  0  0  0  0
   21.0541   -3.2278   47.6023 C   0  0  1  0  0  0  0  0  0  0  0  0
   22.1363   -2.6493   46.7183 C   0  0  0  0  0  0  0  0  0  0  0  0
   21.1297   -5.5563   46.5885 N   0  0  0  0  0  0  0  0  0  0  0  0
   20.1287   -2.1180   47.8598 O   0  0  0  0  0  0  0  0  0  0  0  0
   17.2163   -3.9668   49.1598 O   0  0  0  0  0  0  0  0  0  0  0  0
   18.3214   -5.8462   47.2377 O   0  0  0  0  0  0  0  0  0  0  0  0
   22.9006   -1.7030   47.3840 O   0  0  0  0  0  0  0  0  0  0  0  0
   21.1264    1.2773   56.1222 C   0  0  1  0  0  0  0  0  0  0  0  0
   21.4058    2.6356   56.8597 C   0  0  1  0  0  0  0  0  0  0  0  0
   22.3978    2.3743   58.0497 C   0  0  2  0  0  0  0  0  0  0  0  0
   21.7609    1.3808   59.0331 C   0  0  1  0  0  0  0  0  0  0  0  0
   21.4942    0.0126   58.2948 C   0  0  0  0  0  0  0  0  0  0  0  0
   20.5093    0.2752   57.0884 C   0  0  2  0  0  0  0  0  0  0  0  0
   22.6800    1.1622   60.1378 N   0  0  0  0  0  0  0  0  0  0  0  0
   20.2491   -0.9892   56.3512 N   0  0  0  0  0  0  0  0  0  0  0  0
   22.0092    3.5813   55.9306 O   0  0  0  0  0  0  0  0  0  0  0  0
   22.6356    3.5821   58.7227 O   0  0  0  0  0  0  0  0  0  0  0  0
  1  2  1  0  0  0  0
  1 12  1  1  0  0  0
  1 13  1  0  0  0  0
  2  3  1  0  0  0  0
  2 10  1  1  0  0  0
  4  3  1  1  0  0  0
  4  5  1  0  0  0  0
  4 14  1  0  0  0  0
  5  6  1  0  0  0  0
  5 13  1  6  0  0  0
  6  7  1  0  0  0  0
  6 15  1  6  0  0  0
  7  8  1  0  0  0  0
  7 11  1  6  0  0  0
  8 14  1  0  0  0  0
  8 16  1  1  0  0  0
  9 11  1  0  0  0  0
 17 16  1  1  0  0  0
 17 18  1  0  0  0  0
 17 24  1  0  0  0  0
 18 19  1  0  0  0  0
 18 25  1  1  0  0  0
 19 20  1  0  0  0  0
 19 26  1  6  0  0  0
 20 21  1  0  0  0  0
 20 23  1  1  0  0  0
 21 22  1  6  0  0  0
 21 24  1  0  0  0  0
 22 27  1  0  0  0  0
 28 12  1  6  0  0  0
 28 29  1  0  0  0  0
 28 33  1  0  0  0  0
 29 30  1  0  0  0  0
 29 36  1  6  0  0  0
 30 31  1  0  0  0  0
 30 37  1  1  0  0  0
 31 32  1  0  0  0  0
 31 34  1  1  0  0  0
 32 33  1  0  0  0  0
 33 35  1  6  0  0  0
M  END
>  <CHROM.1>
-168.48947704,157.16357094,-155.91031393,-179.71426334,-175.86715847,75.92289641
20.75001784,-0.79197561,52.23813334,1.23665460,-1.16892604,0.70481578

>  <Name>
2oe5_lig

>  <RI>
0

>  <Rbt.Current_Directory>
/home/itssahil/PROJECTS/Mol_Feturizer/New_Systems/rnas/2oe5

>  <Rbt.Executable>
rbdock ($Id: //depot/dev/client3/rdock/2013.1/src/exe/rbdock.cxx#4 $)

>  <Rbt.Library>
libRbt.so (2013.1, Build901 2013/11/27)

>  <Rbt.Parameter_File>
/export/apps/rDock/src/rDock_2013.1_src/data/scripts/dock_solv.prm

>  <Rbt.Receptor>
prm/pocket_docking_6.prm

>  <SCORE>
-20.1317

>  <SCORE.INTER>
-13.6013

>  <SCORE.INTER.CONST>
1

>  <SCORE.INTER.POLAR>
-1.78452

>  <SCORE.INTER.ROT>
6

>  <SCORE.INTER.SOLV>
16.3618

>  <SCORE.INTER.VDW>
-16.1731

>  <SCORE.INTER.norm>
-0.367601

>  <SCORE.INTRA>
-6.53042

>  <SCORE.INTRA.DIHEDRAL>
-11.3829

>  <SCORE.INTRA.DIHEDRAL.0>
16.2083

>  <SCORE.INTRA.POLAR>
0

>  <SCORE.INTRA.POLAR.0>
0

>  <SCORE.INTRA.REPUL>
0

>  <SCORE.INTRA.REPUL.0>
0

>  <SCORE.INTRA.SOLV>
-1.25507

>  <SCORE.INTRA.SOLV.lig_0>
-89.8095

>  <SCORE.INTRA.VDW>
-0.211441

>  <SCORE.INTRA.VDW.0>
-3.19502

>  <SCORE.INTRA.norm>
-0.176498

>  <SCORE.RESTR>
0

>  <SCORE.RESTR.CAVITY>
0

>  <SCORE.RESTR.norm>
0

>  <SCORE.SYSTEM>
0

>  <SCORE.SYSTEM.CONST>
0

>  <SCORE.SYSTEM.DIHEDRAL>
0

>  <SCORE.SYSTEM.SOLV>
0

>  <SCORE.SYSTEM.norm>
0

>  <SCORE.heavy>
37

>  <SCORE.norm>
-0.544099

>  <RMSD>
1.433

$$$$
2oe5_lig
 OpenBabel11021811463D
libRbt.so/2013.1/901 2013/11/27
 37 40  0  0  0  0  0  0  0  0999 V2000
   20.8083    2.1363   53.8382 C   0  0  1  0  0  0  0  0  0  0  0  0
   19.7512    2.5951   52.8089 C   0  0  1  0  0  0  0  0  0  0  0  0
   18.9610    1.3403   52.2814 C   0  0  0  0  0  0  0  0  0  0  0  0
   20.0305    0.4200   51.6515 C   0  0  1  0  0  0  0  0  0  0  0  0
   21.1138   -0.0388   52.7248 C   0  0  1  0  0  0  0  0  0  0  0  0
   22.1949   -0.9713   52.1133 C   0  0  1  0  0  0  0  0  0  0  0  0
   21.4503   -2.2122   51.5438 C   0  0  1  0  0  0  0  0  0  0  0  0
   20.3600   -1.7113   50.5222 C   0  0  2  0  0  0  0  0  0  0  0  0
   22.1184   -4.6217   50.7623 C   0  0  0  0  0  0  0  0  0  0  0  0
   18.8055    3.5424   53.4429 N   0  0  0  0  0  0  0  0  0  0  0  0
   22.4285   -3.1541   50.8802 N   0  0  0  0  0  0  0  0  0  0  0  0
   20.2059    1.5334   54.9951 O   0  0  0  0  0  0  0  0  0  0  0  0
   21.7514    1.1617   53.2695 O   0  0  0  0  0  0  0  0  0  0  0  0
   19.3928   -0.7759   51.1283 O   0  0  0  0  0  0  0  0  0  0  0  0
   22.8754   -0.2431   51.0863 O   0  0  0  0  0  0  0  0  0  0  0  0
   19.6182   -2.8097   50.0297 O   0  0  0  0  0  0  0  0  0  0  0  0
   19.0457   -2.4895   48.7756 C   0  0  2  0  0  0  0  0  0  0  0  0
   18.2401   -3.6496   48.1920 C   0  0  1  0  0  0  0  0  0  0  0  0
   19.1533   -4.8679   47.8839 C   0  0  2  0  0  0  0  0  0  0  0  0
   20.2667   -4.3844   46.9081 C   0  0  1  0  0  0  0  0  0  0  0  0
   21.0624   -3.2340   47.6078 C   0  0  1  0  0  0  0  0  0  0  0  0
   22.1431   -2.6489   46.7261 C   0  0  0  0  0  0  0  0  0  0  0  0
   21.1597   -5.5640   46.5995 N   0  0  0  0  0  0  0  0  0  0  0  0
   20.1275   -2.1308   47.8597 O   0  0  0  0  0  0  0  0  0  0  0  0
   17.2253   -3.9996   49.1540 O   0  0  0  0  0  0  0  0  0  0  0  0
   18.3516   -5.8746   47.2399 O   0  0  0  0  0  0  0  0  0  0  0  0
   22.9446   -1.7500   47.4134 O   0  0  0  0  0  0  0  0  0  0  0  0
   21.1137    1.2995   56.0721 C   0  0  1  0  0  0  0  0  0  0  0  0
   21.4080    2.6467   56.8239 C   0  0  1  0  0  0  0  0  0  0  0  0
   22.3971    2.3618   58.0109 C   0  0  2  0  0  0  0  0  0  0  0  0
   21.7493    1.3650   58.9838 C   0  0  1  0  0  0  0  0  0  0  0  0
   21.4675    0.0077   58.2310 C   0  0  0  0  0  0  0  0  0  0  0  0
   20.4855    0.2940   57.0276 C   0  0  2  0  0  0  0  0  0  0  0  0
   22.6660    1.1245   60.0860 N   0  0  0  0  0  0  0  0  0  0  0  0
   20.2113   -0.9595   56.2770 N   0  0  0  0  0  0  0  0  0  0  0  0
   22.0219    3.5955   55.9049 O   0  0  0  0  0  0  0  0  0  0  0  0
   22.6483    3.5597   58.6967 O   0  0  0  0  0  0  0  0  0  0  0  0
  1  2  1  0  0  0  0
  1 12  1  1  0  0  0
  1 13  1  0  0  0  0
  2  3  1  0  0  0  0
  2 10  1  1  0  0  0
  4  3  1  1  0  0  0
  4  5  1  0  0  0  0
  4 14  1  0  0  0  0
  5  6  1  0  0  0  0
  5 13  1  6  0  0  0
  6  7  1  0  0  0  0
  6 15  1  6  0  0  0
  7  8  1  0  0  0  0
  7 11  1  6  0  0  0
  8 14  1  0  0  0  0
  8 16  1  1  0  0  0
  9 11  1  0  0  0  0
 17 16  1  1  0  0  0
 17 18  1  0  0  0  0
 17 24  1  0  0  0  0
 18 19  1  0  0  0  0
 18 25  1  1  0  0  0
 19 20  1  0  0  0  0
 19 26  1  6  0  0  0
 20 21  1  0  0  0  0
 20 23  1  1  0  0  0
 21 22  1  6  0  0  0
 21 24  1  0  0  0  0
 22 27  1  0  0  0  0
 28 12  1  6  0  0  0
 28 29  1  0  0  0  0
 28 33  1  0  0  0  0
 29 30  1  0  0  0  0
 29 36  1  6  0  0  0
 30 31  1  0  0  0  0
 30 37  1  1  0  0  0
 31 32  1  0  0  0  0
 31 34  1  1  0  0  0
 32 33  1  0  0  0  0
 33 35  1  6  0  0  0
M  END
>  <CHROM.1>
-169.87332900,154.52201793,-156.40379063,179.54738338,-172.51295560,77.05484917
20.75267815,-0.79618951,52.21877918,1.23312523,-1.17578182,0.69570789

>  <Name>
2oe5_lig

>  <RI>
0

>  <Rbt.Current_Directory>
/home/itssahil/PROJECTS/Mol_Feturizer/New_Systems/rnas/2oe5

>  <Rbt.Executable>
rbdock ($Id: //depot/dev/client3/rdock/2013.1/src/exe/rbdock.cxx#4 $)

>  <Rbt.Library>
libRbt.so (2013.1, Build901 2013/11/27)

>  <Rbt.Parameter_File>
/export/apps/rDock/src/rDock_2013.1_src/data/scripts/dock_solv.prm

>  <Rbt.Receptor>
prm/pocket_docking_8.prm

>  <SCORE>
-20.0913

>  <SCORE.INTER>
-13.5294

>  <SCORE.INTER.CONST>
1

>  <SCORE.INTER.POLAR>
-1.8289

>  <SCORE.INTER.ROT>
6

>  <SCORE.INTER.SOLV>
16.6876

>  <SCORE.INTER.VDW>
-16.0858

>  <SCORE.INTER.norm>
-0.365661

>  <SCORE.INTRA>
-6.56182

>  <SCORE.INTRA.DIHEDRAL>
-11.2319

>  <SCORE.INTRA.DIHEDRAL.0>
16.2083

>  <SCORE.INTRA.POLAR>
0

>  <SCORE.INTRA.POLAR.0>
0

>  <SCORE.INTRA.REPUL>
0

>  <SCORE.INTRA.REPUL.0>
0

>  <SCORE.INTRA.SOLV>
-1.31157

>  <SCORE.INTRA.SOLV.lig_0>
-89.8095

>  <SCORE.INTRA.VDW>
-0.290093

>  <SCORE.INTRA.VDW.0>
-3.19502

>  <SCORE.INTRA.norm>
-0.177347

>  <SCORE.RESTR>
0

>  <SCORE.RESTR.CAVITY>
0

>  <SCORE.RESTR.norm>
0

>  <SCORE.SYSTEM>
0

>  <SCORE.SYSTEM.CONST>
0

>  <SCORE.SYSTEM.DIHEDRAL>
0

>  <SCORE.SYSTEM.SOLV>
0

>  <SCORE.SYSTEM.norm>
0

>  <SCORE.heavy>
37

>  <SCORE.norm>
-0.543007

>  <RMSD>
1.444

$$$$
2oe5_lig
 OpenBabel11021811463D
libRbt.so/2013.1/901 2013/11/27
 37 40  0  0  0  0  0  0  0  0999 V2000
   21.0045    2.1746   53.4095 C   0  0  1  0  0  0  0  0  0  0  0  0
   19.6710    2.4107   52.6656 C   0  0  1  0  0  0  0  0  0  0  0  0
   19.1074    1.0312   52.1592 C   0  0  0  0  0  0  0  0  0  0  0  0
   20.2022    0.4593   51.2309 C   0  0  1  0  0  0  0  0  0  0  0  0
   21.5701    0.2270   52.0126 C   0  0  1  0  0  0  0  0  0  0  0  0
   22.6828   -0.3549   51.0986 C   0  0  1  0  0  0  0  0  0  0  0  0
   22.1498   -1.7066   50.5441 C   0  0  1  0  0  0  0  0  0  0  0  0
   20.7766   -1.4388   49.8190 C   0  0  2  0  0  0  0  0  0  0  0  0
   24.1885   -3.2916   50.1034 C   0  0  0  0  0  0  0  0  0  0  0  0
   18.6879    3.0403   53.5770 N   0  0  0  0  0  0  0  0  0  0  0  0
   23.1561   -2.3207   49.5982 N   0  0  0  0  0  0  0  0  0  0  0  0
   20.8292    1.3643   54.5832 O   0  0  0  0  0  0  0  0  0  0  0  0
   22.0059    1.5138   52.5590 O   0  0  0  0  0  0  0  0  0  0  0  0
   19.7698   -0.8245   50.7060 O   0  0  0  0  0  0  0  0  0  0  0  0
   22.9305    0.5880   50.0508 O   0  0  0  0  0  0  0  0  0  0  0  0
   20.2291   -2.6573   49.3555 O   0  0  0  0  0  0  0  0  0  0  0  0
   19.4285   -2.4290   48.2110 C   0  0  2  0  0  0  0  0  0  0  0  0
   18.3441   -3.4922   48.0395 C   0  0  1  0  0  0  0  0  0  0  0  0
   18.9666   -4.8924   47.7848 C   0  0  2  0  0  0  0  0  0  0  0  0
   19.8747   -4.7798   46.5245 C   0  0  1  0  0  0  0  0  0  0  0  0
   20.9758   -3.7066   46.8114 C   0  0  1  0  0  0  0  0  0  0  0  0
   21.8899   -3.4749   45.6289 C   0  0  0  0  0  0  0  0  0  0  0  0
   20.4834   -6.1388   46.2663 N   0  0  0  0  0  0  0  0  0  0  0  0
   20.3020   -2.4225   47.0385 O   0  0  0  0  0  0  0  0  0  0  0  0
   17.5472   -3.4959   49.2405 O   0  0  0  0  0  0  0  0  0  0  0  0
   17.8944   -5.8166   47.5254 O   0  0  0  0  0  0  0  0  0  0  0  0
   21.1867   -3.1024   44.4935 O   0  0  0  0  0  0  0  0  0  0  0  0
   21.9945    1.2610   55.4018 C   0  0  1  0  0  0  0  0  0  0  0  0
   22.1522    2.5591   56.2719 C   0  0  1  0  0  0  0  0  0  0  0  0
   23.4317    2.4162   57.1723 C   0  0  2  0  0  0  0  0  0  0  0  0
   23.2698    1.1991   58.0955 C   0  0  1  0  0  0  0  0  0  0  0  0
   23.1259   -0.1055   57.2205 C   0  0  0  0  0  0  0  0  0  0  0  0
   21.8489    0.0421   56.3029 C   0  0  2  0  0  0  0  0  0  0  0  0
   24.4510    1.0892   58.9357 N   0  0  0  0  0  0  0  0  0  0  0  0
   21.6898   -1.1608   55.4441 N   0  0  0  0  0  0  0  0  0  0  0  0
   22.3054    3.7161   55.4004 O   0  0  0  0  0  0  0  0  0  0  0  0
   23.5661    3.5660   57.9648 O   0  0  0  0  0  0  0  0  0  0  0  0
  1  2  1  0  0  0  0
  1 12  1  1  0  0  0
  1 13  1  0  0  0  0
  2  3  1  0  0  0  0
  2 10  1  1  0  0  0
  4  3  1  1  0  0  0
  4  5  1  0  0  0  0
  4 14  1  0  0  0  0
  5  6  1  0  0  0  0
  5 13  1  6  0  0  0
  6  7  1  0  0  0  0
  6 15  1  6  0  0  0
  7  8  1  0  0  0  0
  7 11  1  6  0  0  0
  8 14  1  0  0  0  0
  8 16  1  1  0  0  0
  9 11  1  0  0  0  0
 17 16  1  1  0  0  0
 17 18  1  0  0  0  0
 17 24  1  0  0  0  0
 18 19  1  0  0  0  0
 18 25  1  1  0  0  0
 19 20  1  0  0  0  0
 19 26  1  6  0  0  0
 20 21  1  0  0  0  0
 20 23  1  1  0  0  0
 21 22  1  6  0  0  0
 21 24  1  0  0  0  0
 22 27  1  0  0  0  0
 28 12  1  1  0  0  0
 28 29  1  0  0  0  0
 28 33  1  0  0  0  0
 29 30  1  0  0  0  0
 29 36  1  6  0  0  0
 30 31  1  0  0  0  0
 30 37  1  1  0  0  0
 31 32  1  0  0  0  0
 31 34  1  1  0  0  0
 32 33  1  0  0  0  0
 33 35  1  6  0  0  0
M  END
>  <CHROM.1>
-172.20376963,92.04720761,-151.41235821,-153.93900121,56.80511484,78.91432941
21.17317265,-0.78965355,51.55743063,1.32777680,-0.46106190,0.89907733

>  <Name>
2oe5_lig

>  <RI>
0

>  <Rbt.Current_Directory>
/home/itssahil/PROJECTS/Mol_Feturizer/New_Systems/rnas/2oe5

>  <Rbt.Executable>
rbdock ($Id: //depot/dev/client3/rdock/2013.1/src/exe/rbdock.cxx#4 $)

>  <Rbt.Library>
libRbt.so (2013.1, Build901 2013/11/27)

>  <Rbt.Parameter_File>
/export/apps/rDock/src/rDock_2013.1_src/data/scripts/dock_solv.prm

>  <Rbt.Receptor>
prm/pocket_docking_6.prm

>  <SCORE>
-20.1323

>  <SCORE.INTER>
-15.7295

>  <SCORE.INTER.CONST>
1

>  <SCORE.INTER.POLAR>
-1.54785

>  <SCORE.INTER.ROT>
6

>  <SCORE.INTER.SOLV>
15.4697

>  <SCORE.INTER.VDW>
-18.0834

>  <SCORE.INTER.norm>
-0.425122

>  <SCORE.INTRA>
-4.4028

>  <SCORE.INTRA.DIHEDRAL>
-7.32322

>  <SCORE.INTRA.DIHEDRAL.0>
16.2083

>  <SCORE.INTRA.POLAR>
0

>  <SCORE.INTRA.POLAR.0>
0

>  <SCORE.INTRA.REPUL>
0

>  <SCORE.INTRA.REPUL.0>
0

>  <SCORE.INTRA.SOLV>
-1.38391

>  <SCORE.INTRA.SOLV.lig_0>
-89.8095

>  <SCORE.INTRA.VDW>
-0.0492366

>  <SCORE.INTRA.VDW.0>
-3.19502

>  <SCORE.INTRA.norm>
-0.118995

>  <SCORE.RESTR>
0

>  <SCORE.RESTR.CAVITY>
0

>  <SCORE.RESTR.norm>
0

>  <SCORE.SYSTEM>
0

>  <SCORE.SYSTEM.CONST>
0

>  <SCORE.SYSTEM.DIHEDRAL>
0

>  <SCORE.SYSTEM.SOLV>
0

>  <SCORE.SYSTEM.norm>
0

>  <SCORE.heavy>
37

>  <SCORE.norm>
-0.544117

>  <RMSD>
1.449

$$$$
2oe5_lig
 OpenBabel11021811463D
libRbt.so/2013.1/901 2013/11/27
 37 40  0  0  0  0  0  0  0  0999 V2000
   20.2884    1.4302   54.2259 C   0  0  1  0  0  0  0  0  0  0  0  0
   19.4784    2.1495   53.1241 C   0  0  1  0  0  0  0  0  0  0  0  0
   18.5047    1.1198   52.4393 C   0  0  0  0  0  0  0  0  0  0  0  0
   19.4185    0.0135   51.8662 C   0  0  1  0  0  0  0  0  0  0  0  0
   20.2489   -0.7134   53.0144 C   0  0  1  0  0  0  0  0  0  0  0  0
   21.1692   -1.8349   52.4600 C   0  0  1  0  0  0  0  0  0  0  0  0
   20.2474   -2.8593   51.7391 C   0  0  1  0  0  0  0  0  0  0  0  0
   19.4134   -2.0920   50.6442 C   0  0  2  0  0  0  0  0  0  0  0  0
   22.3588   -4.4098   51.7622 C   0  0  0  0  0  0  0  0  0  0  0  0
   18.6901    3.2549   53.7158 N   0  0  0  0  0  0  0  0  0  0  0  0
   21.0719   -3.9655   51.1217 N   0  0  0  0  0  0  0  0  0  0  0  0
   19.4428    0.9285   55.2739 O   0  0  0  0  0  0  0  0  0  0  0  0
   21.0609    0.2961   53.6971 O   0  0  0  0  0  0  0  0  0  0  0  0
   18.6048   -0.9923   51.2052 O   0  0  0  0  0  0  0  0  0  0  0  0
   22.1024   -1.2332   51.5570 O   0  0  0  0  0  0  0  0  0  0  0  0
   18.5160   -2.9811   50.0090 O   0  0  0  0  0  0  0  0  0  0  0  0
   18.3882   -2.6501   48.6389 C   0  0  2  0  0  0  0  0  0  0  0  0
   17.6849   -3.7466   47.8399 C   0  0  1  0  0  0  0  0  0  0  0  0
   18.5197   -5.0566   47.8298 C   0  0  2  0  0  0  0  0  0  0  0  0
   19.9205   -4.7155   47.2405 C   0  0  1  0  0  0  0  0  0  0  0  0
   20.5780   -3.6237   48.1471 C   0  0  1  0  0  0  0  0  0  0  0  0
   21.9294   -3.1751   47.6371 C   0  0  0  0  0  0  0  0  0  0  0  0
   20.7402   -5.9851   47.2237 N   0  0  0  0  0  0  0  0  0  0  0  0
   19.7280   -2.4281   48.0974 O   0  0  0  0  0  0  0  0  0  0  0  0
   16.3953   -3.9650   48.4458 O   0  0  0  0  0  0  0  0  0  0  0  0
   17.8541   -6.0030   46.9740 O   0  0  0  0  0  0  0  0  0  0  0  0
   21.8428   -2.5848   46.3855 O   0  0  0  0  0  0  0  0  0  0  0  0
   20.0296    0.9812   56.5744 C   0  0  1  0  0  0  0  0  0  0  0  0
   18.9528    1.4252   57.6281 C   0  0  1  0  0  0  0  0  0  0  0  0
   19.6180    1.4628   59.0510 C   0  0  2  0  0  0  0  0  0  0  0  0
   20.1340    0.0606   59.4078 C   0  0  1  0  0  0  0  0  0  0  0  0
   21.2256   -0.3779   58.3569 C   0  0  0  0  0  0  0  0  0  0  0  0
   20.5634   -0.4016   56.9232 C   0  0  2  0  0  0  0  0  0  0  0  0
   20.7296    0.1047   60.7330 N   0  0  0  0  0  0  0  0  0  0  0  0
   21.5677   -0.7899   55.8983 N   0  0  0  0  0  0  0  0  0  0  0  0
   18.4602    2.7544   57.2933 O   0  0  0  0  0  0  0  0  0  0  0  0
   18.6547    1.8411   59.9982 O   0  0  0  0  0  0  0  0  0  0  0  0
  1  2  1  0  0  0  0
  1 12  1  1  0  0  0
  1 13  1  0  0  0  0
  2  3  1  0  0  0  0
  2 10  1  1  0  0  0
  4  3  1  1  0  0  0
  4  5  1  0  0  0  0
  4 14  1  0  0  0  0
  5  6  1  0  0  0  0
  5 13  1  6  0  0  0
  6  7  1  0  0  0  0
  6 15  1  6  0  0  0
  7  8  1  0  0  0  0
  7 11  1  6  0  0  0
  8 14  1  0  0  0  0
  8 16  1  1  0  0  0
  9 11  1  0  0  0  0
 17 16  1  1  0  0  0
 17 18  1  0  0  0  0
 17 24  1  0  0  0  0
 18 19  1  0  0  0  0
 18 25  1  1  0  0  0
 19 20  1  0  0  0  0
 19 26  1  6  0  0  0
 20 21  1  0  0  0  0
 20 23  1  1  0  0  0
 21 22  1  6  0  0  0
 21 24  1  0  0  0  0
 22 27  1  0  0  0  0
 28 12  1  6  0  0  0
 28 29  1  0  0  0  0
 28 33  1  0  0  0  0
 29 30  1  0  0  0  0
 29 36  1  6  0  0  0
 30 31  1  0  0  0  0
 30 37  1  1  0  0  0
 31 32  1  0  0  0  0
 31 34  1  1  0  0  0
 32 33  1  0  0  0  0
 33 35  1  6  0  0  0
M  END
>  <CHROM.1>
-145.18281481,31.67292285,-144.31043045,167.31979728,62.29255843,139.74368349
19.83018864,-1.32760799,52.50362761,1.54097108,-0.81286161,1.06587582

>  <Name>
2oe5_lig

>  <RI>
0

>  <Rbt.Current_Directory>
/home/itssahil/PROJECTS/Mol_Feturizer/New_Systems/rnas/2oe5

>  <Rbt.Executable>
rbdock ($Id: //depot/dev/client3/rdock/2013.1/src/exe/rbdock.cxx#4 $)

>  <Rbt.Library>
libRbt.so (2013.1, Build901 2013/11/27)

>  <Rbt.Parameter_File>
/export/apps/rDock/src/rDock_2013.1_src/data/scripts/dock_solv.prm

>  <Rbt.Receptor>
prm/pocket_docking_3.prm

>  <SCORE>
-14.4028

>  <SCORE.INTER>
-17.2034

>  <SCORE.INTER.CONST>
1

>  <SCORE.INTER.POLAR>
-1.14098

>  <SCORE.INTER.ROT>
6

>  <SCORE.INTER.SOLV>
15.6277

>  <SCORE.INTER.VDW>
-20.4749

>  <SCORE.INTER.norm>
-0.464957

>  <SCORE.INTRA>
2.80057

>  <SCORE.INTRA.DIHEDRAL>
-0.28082

>  <SCORE.INTRA.DIHEDRAL.0>
16.2083

>  <SCORE.INTRA.POLAR>
0

>  <SCORE.INTRA.POLAR.0>
0

>  <SCORE.INTRA.REPUL>
0

>  <SCORE.INTRA.REPUL.0>
0

>  <SCORE.INTRA.SOLV>
2.04862

>  <SCORE.INTRA.SOLV.lig_0>
-89.8095

>  <SCORE.INTRA.VDW>
1.91667

>  <SCORE.INTRA.VDW.0>
-3.19502

>  <SCORE.INTRA.norm>
0.0756911

>  <SCORE.RESTR>
0

>  <SCORE.RESTR.CAVITY>
0

>  <SCORE.RESTR.norm>
0

>  <SCORE.SYSTEM>
0

>  <SCORE.SYSTEM.CONST>
0

>  <SCORE.SYSTEM.DIHEDRAL>
0

>  <SCORE.SYSTEM.SOLV>
0

>  <SCORE.SYSTEM.norm>
0

>  <SCORE.heavy>
37

>  <SCORE.norm>
-0.389265

>  <RMSD>
1.457

$$$$
2oe5_lig
 OpenBabel11021811463D
libRbt.so/2013.1/901 2013/11/27
 37 40  0  0  0  0  0  0  0  0999 V2000
   20.4989    1.4151   54.0393 C   0  0  1  0  0  0  0  0  0  0  0  0
   19.7359    2.0741   52.8685 C   0  0  1  0  0  0  0  0  0  0  0  0
   18.8694    0.9845   52.1343 C   0  0  0  0  0  0  0  0  0  0  0  0
   19.8785   -0.0806   51.6497 C   0  0  1  0  0  0  0  0  0  0  0  0
   20.6587   -0.7454   52.8685 C   0  0  1  0  0  0  0  0  0  0  0  0
   21.6737   -1.8251   52.4034 C   0  0  1  0  0  0  0  0  0  0  0  0
   20.8613   -2.9073   51.6369 C   0  0  1  0  0  0  0  0  0  0  0  0
   20.0715   -2.2015   50.4702 C   0  0  2  0  0  0  0  0  0  0  0  0
   21.2622   -5.3536   50.7898 C   0  0  0  0  0  0  0  0  0  0  0  0
   18.8505    3.1452   53.3806 N   0  0  0  0  0  0  0  0  0  0  0  0
   21.7847   -3.9776   51.1018 N   0  0  0  0  0  0  0  0  0  0  0  0
   19.6057    0.8852   55.0324 O   0  0  0  0  0  0  0  0  0  0  0  0
   21.3654    0.3155   53.5892 O   0  0  0  0  0  0  0  0  0  0  0  0
   19.1683   -1.1377   50.9505 O   0  0  0  0  0  0  0  0  0  0  0  0
   22.6384   -1.1886   51.5593 O   0  0  0  0  0  0  0  0  0  0  0  0
   19.2700   -3.1460   49.7885 O   0  0  0  0  0  0  0  0  0  0  0  0
   18.8077   -2.6027   48.5662 C   0  0  2  0  0  0  0  0  0  0  0  0
   17.9373   -3.5869   47.7857 C   0  0  1  0  0  0  0  0  0  0  0  0
   18.7529   -4.8361   47.3527 C   0  0  2  0  0  0  0  0  0  0  0  0
   19.9640   -4.3365   46.5103 C   0  0  1  0  0  0  0  0  0  0  0  0
   20.8164   -3.3767   47.4038 C   0  0  1  0  0  0  0  0  0  0  0  0
   21.9983   -2.7865   46.6673 C   0  0  0  0  0  0  0  0  0  0  0  0
   20.7630   -5.5454   46.0814 N   0  0  0  0  0  0  0  0  0  0  0  0
   19.9722   -2.2312   47.7638 O   0  0  0  0  0  0  0  0  0  0  0  0
   16.8373   -3.9629   48.6380 O   0  0  0  0  0  0  0  0  0  0  0  0
   17.9041   -5.6613   46.5344 O   0  0  0  0  0  0  0  0  0  0  0  0
   22.7934   -2.0110   47.4974 O   0  0  0  0  0  0  0  0  0  0  0  0
   20.0811    1.0104   56.3729 C   0  0  1  0  0  0  0  0  0  0  0  0
   18.9081    1.4612   57.3152 C   0  0  1  0  0  0  0  0  0  0  0  0
   19.4519    1.5789   58.7845 C   0  0  2  0  0  0  0  0  0  0  0  0
   19.9780    0.2103   59.2427 C   0  0  1  0  0  0  0  0  0  0  0  0
   21.1653   -0.2343   58.3042 C   0  0  0  0  0  0  0  0  0  0  0  0
   20.6250   -0.3385   56.8238 C   0  0  2  0  0  0  0  0  0  0  0  0
   20.4605    0.3283   60.6088 N   0  0  0  0  0  0  0  0  0  0  0  0
   21.7217   -0.7348   55.9018 N   0  0  0  0  0  0  0  0  0  0  0  0
   18.4056    2.7585   56.8840 O   0  0  0  0  0  0  0  0  0  0  0  0
   18.4028    1.9635   59.6328 O   0  0  0  0  0  0  0  0  0  0  0  0
  1  2  1  0  0  0  0
  1 12  1  1  0  0  0
  1 13  1  0  0  0  0
  2  3  1  0  0  0  0
  2 10  1  1  0  0  0
  4  3  1  1  0  0  0
  4  5  1  0  0  0  0
  4 14  1  0  0  0  0
  5  6  1  0  0  0  0
  5 13  1  6  0  0  0
  6  7  1  0  0  0  0
  6 15  1  6  0  0  0
  7  8  1  0  0  0  0
  7 11  1  6  0  0  0
  8 14  1  0  0  0  0
  8 16  1  1  0  0  0
  9 11  1  0  0  0  0
 17 16  1  1  0  0  0
 17 18  1  0  0  0  0
 17 24  1  0  0  0  0
 18 19  1  0  0  0  0
 18 25  1  1  0  0  0
 19 20  1  0  0  0  0
 19 26  1  6  0  0  0
 20 21  1  0  0  0  0
 20 23  1  1  0  0  0
 21 22  1  6  0  0  0
 21 24  1  0  0  0  0
 22 27  1  0  0  0  0
 28 12  1  6  0  0  0
 28 29  1  0  0  0  0
 28 33  1  0  0  0  0
 29 30  1  0  0  0  0
 29 36  1  6  0  0  0
 30 31  1  0  0  0  0
 30 37  1  1  0  0  0
 31 32  1  0  0  0  0
 31 34  1  1  0  0  0
 32 33  1  0  0  0  0
 33 35  1  6  0  0  0
M  END
>  <CHROM.1>
-144.08861532,157.00331319,-166.36000781,179.84293423,-175.92017916,137.62375633
20.04298494,-1.27219888,52.25876303,1.58308563,-0.77516722,1.10790903

>  <Name>
2oe5_lig

>  <RI>
0

>  <Rbt.Current_Directory>
/home/itssahil/PROJECTS/Mol_Feturizer/New_Systems/rnas/2oe5

>  <Rbt.Executable>
rbdock ($Id: //depot/dev/client3/rdock/2013.1/src/exe/rbdock.cxx#4 $)

>  <Rbt.Library>
libRbt.so (2013.1, Build901 2013/11/27)

>  <Rbt.Parameter_File>
/export/apps/rDock/src/rDock_2013.1_src/data/scripts/dock_solv.prm

>  <Rbt.Receptor>
prm/pocket_docking_3.prm

>  <SCORE>
-18.5613

>  <SCORE.INTER>
-16.37

>  <SCORE.INTER.CONST>
1

>  <SCORE.INTER.POLAR>
-1.13386

>  <SCORE.INTER.ROT>
6

>  <SCORE.INTER.SOLV>
15.4421

>  <SCORE.INTER.VDW>
-19.8812

>  <SCORE.INTER.norm>
-0.442433

>  <SCORE.INTRA>
-2.19129

>  <SCORE.INTRA.DIHEDRAL>
-4.38885

>  <SCORE.INTRA.DIHEDRAL.0>
16.2083

>  <SCORE.INTRA.POLAR>
0

>  <SCORE.INTRA.POLAR.0>
0

>  <SCORE.INTRA.REPUL>
0.00403381

>  <SCORE.INTRA.REPUL.0>
0

>  <SCORE.INTRA.SOLV>
0.407294

>  <SCORE.INTRA.SOLV.lig_0>
-89.8095

>  <SCORE.INTRA.VDW>
-0.220684

>  <SCORE.INTRA.VDW.0>
-3.19502

>  <SCORE.INTRA.norm>
-0.0592241

>  <SCORE.RESTR>
0

>  <SCORE.RESTR.CAVITY>
0

>  <SCORE.RESTR.norm>
0

>  <SCORE.SYSTEM>
0

>  <SCORE.SYSTEM.CONST>
0

>  <SCORE.SYSTEM.DIHEDRAL>
0

>  <SCORE.SYSTEM.SOLV>
0

>  <SCORE.SYSTEM.norm>
0

>  <SCORE.heavy>
37

>  <SCORE.norm>
-0.501658

>  <RMSD>
1.466

$$$$
2oe5_lig
 OpenBabel11021811463D
libRbt.so/2013.1/901 2013/11/27
 37 40  0  0  0  0  0  0  0  0999 V2000
   20.3696    1.5121   54.0539 C   0  0  1  0  0  0  0  0  0  0  0  0
   19.6734    2.1246   52.8179 C   0  0  1  0  0  0  0  0  0  0  0  0
   18.8325    1.0108   52.0903 C   0  0  0  0  0  0  0  0  0  0  0  0
   19.8524   -0.0841   51.7050 C   0  0  1  0  0  0  0  0  0  0  0  0
   20.5633   -0.7003   52.9899 C   0  0  1  0  0  0  0  0  0  0  0  0
   21.5881   -1.8089   52.6250 C   0  0  1  0  0  0  0  0  0  0  0  0
   20.8028   -2.9172   51.8675 C   0  0  1  0  0  0  0  0  0  0  0  0
   20.0801   -2.2575   50.6323 C   0  0  2  0  0  0  0  0  0  0  0  0
   21.2129   -5.3937   51.1184 C   0  0  0  0  0  0  0  0  0  0  0  0
   18.7756    3.2255   53.2366 N   0  0  0  0  0  0  0  0  0  0  0  0
   21.7396   -4.0187   51.4277 N   0  0  0  0  0  0  0  0  0  0  0  0
   19.4221    1.0354   55.0234 O   0  0  0  0  0  0  0  0  0  0  0  0
   21.2451    0.3855   53.6973 O   0  0  0  0  0  0  0  0  0  0  0  0
   19.1661   -1.1651   51.0187 O   0  0  0  0  0  0  0  0  0  0  0  0
   22.6008   -1.2198   51.8030 O   0  0  0  0  0  0  0  0  0  0  0  0
   19.3031   -3.2245   49.9538 O   0  0  0  0  0  0  0  0  0  0  0  0
   18.7270   -2.6600   48.7909 C   0  0  2  0  0  0  0  0  0  0  0  0
   17.8513   -3.6577   48.0337 C   0  0  1  0  0  0  0  0  0  0  0  0
   18.6935   -4.8455   47.4926 C   0  0  2  0  0  0  0  0  0  0  0  0
   19.8141   -4.2522   46.5881 C   0  0  1  0  0  0  0  0  0  0  0  0
   20.6813   -3.2841   47.4582 C   0  0  1  0  0  0  0  0  0  0  0  0
   21.7762   -2.6060   46.6651 C   0  0  0  0  0  0  0  0  0  0  0  0
   20.6381   -5.4010   46.0538 N   0  0  0  0  0  0  0  0  0  0  0  0
   19.8105   -2.1984   47.9243 O   0  0  0  0  0  0  0  0  0  0  0  0
   16.8360   -4.1222   48.9454 O   0  0  0  0  0  0  0  0  0  0  0  0
   17.8288   -5.6819   46.7028 O   0  0  0  0  0  0  0  0  0  0  0  0
   22.5274   -3.5141   45.9345 O   0  0  0  0  0  0  0  0  0  0  0  0
   19.8740    1.1233   56.3749 C   0  0  1  0  0  0  0  0  0  0  0  0
   18.7147    1.6546   57.2918 C   0  0  1  0  0  0  0  0  0  0  0  0
   19.2314    1.7298   58.7736 C   0  0  2  0  0  0  0  0  0  0  0  0
   19.6476    0.3260   59.2383 C   0  0  1  0  0  0  0  0  0  0  0  0
   20.8215   -0.2003   58.3256 C   0  0  0  0  0  0  0  0  0  0  0  0
   20.3096   -0.2621   56.8328 C   0  0  2  0  0  0  0  0  0  0  0  0
   20.1054    0.4060   60.6156 N   0  0  0  0  0  0  0  0  0  0  0  0
   21.3962   -0.7337   55.9346 N   0  0  0  0  0  0  0  0  0  0  0  0
   18.3163    2.9855   56.8543 O   0  0  0  0  0  0  0  0  0  0  0  0
   18.1930    2.1864   59.5992 O   0  0  0  0  0  0  0  0  0  0  0  0
  1  2  1  0  0  0  0
  1 12  1  1  0  0  0
  1 13  1  0  0  0  0
  2  3  1  0  0  0  0
  2 10  1  1  0  0  0
  4  3  1  1  0  0  0
  4  5  1  0  0  0  0
  4 14  1  0  0  0  0
  5  6  1  0  0  0  0
  5 13  1  6  0  0  0
  6  7  1  0  0  0  0
  6 15  1  6  0  0  0
  7  8  1  0  0  0  0
  7 11  1  6  0  0  0
  8 14  1  0  0  0  0
  8 16  1  1  0  0  0
  9 11  1  0  0  0  0
 17 16  1  1  0  0  0
 17 18  1  0  0  0  0
 17 24  1  0  0  0  0
 18 19  1  0  0  0  0
 18 25  1  1  0  0  0
 19 20  1  0  0  0  0
 19 26  1  6  0  0  0
 20 21  1  0  0  0  0
 20 23  1  1  0  0  0
 21 22  1  6  0  0  0
 21 24  1  0  0  0  0
 22 27  1  0  0  0  0
 28 12  1  6  0  0  0
 28 29  1  0  0  0  0
 28 33  1  0  0  0  0
 29 30  1  0  0  0  0
 29 36  1  6  0  0  0
 30 31  1  0  0  0  0
 30 37  1  1  0  0  0
 31 32  1  0  0  0  0
 31 34  1  1  0  0  0
 32 33  1  0  0  0  0
 33 35  1  6  0  0  0
M  END
>  <CHROM.1>
-148.60798419,158.52871668,-175.92355166,-178.82017192,-50.54319325,137.16585255
19.91147805,-1.27343306,52.29661921,1.62112890,-0.96711114,1.12549356

>  <Name>
2oe5_lig

>  <RI>
0

>  <Rbt.Current_Directory>
/home/itssahil/PROJECTS/Mol_Feturizer/New_Systems/rnas/2oe5

>  <Rbt.Executable>
rbdock ($Id: //depot/dev/client3/rdock/2013.1/src/exe/rbdock.cxx#4 $)

>  <Rbt.Library>
libRbt.so (2013.1, Build901 2013/11/27)

>  <Rbt.Parameter_File>
/export/apps/rDock/src/rDock_2013.1_src/data/scripts/dock_solv.prm

>  <Rbt.Receptor>
prm/pocket_docking_4.prm

>  <SCORE>
-17.6847

>  <SCORE.INTER>
-16.4354

>  <SCORE.INTER.CONST>
1

>  <SCORE.INTER.POLAR>
-1.10411

>  <SCORE.INTER.ROT>
6

>  <SCORE.INTER.SOLV>
16.2822

>  <SCORE.INTER.VDW>
-20.304

>  <SCORE.INTER.norm>
-0.4442

>  <SCORE.INTRA>
-1.24933

>  <SCORE.INTRA.DIHEDRAL>
-5.72278

>  <SCORE.INTRA.DIHEDRAL.0>
16.2083

>  <SCORE.INTRA.POLAR>
0

>  <SCORE.INTRA.POLAR.0>
0

>  <SCORE.INTRA.REPUL>
0

>  <SCORE.INTRA.REPUL.0>
0

>  <SCORE.INTRA.SOLV>
1.30979

>  <SCORE.INTRA.SOLV.lig_0>
-89.8095

>  <SCORE.INTRA.VDW>
0.957161

>  <SCORE.INTRA.VDW.0>
-3.19502

>  <SCORE.INTRA.norm>
-0.0337657

>  <SCORE.RESTR>
0

>  <SCORE.RESTR.CAVITY>
0

>  <SCORE.RESTR.norm>
0

>  <SCORE.SYSTEM>
0

>  <SCORE.SYSTEM.CONST>
0

>  <SCORE.SYSTEM.DIHEDRAL>
0

>  <SCORE.SYSTEM.SOLV>
0

>  <SCORE.SYSTEM.norm>
0

>  <SCORE.heavy>
37

>  <SCORE.norm>
-0.477966

>  <RMSD>
1.484

$$$$
2oe5_lig
 OpenBabel11021811463D
libRbt.so/2013.1/901 2013/11/27
 37 40  0  0  0  0  0  0  0  0999 V2000
   20.9461    2.1217   53.4441 C   0  0  1  0  0  0  0  0  0  0  0  0
   19.5969    2.3274   52.7199 C   0  0  1  0  0  0  0  0  0  0  0  0
   19.0777    0.9411   52.1853 C   0  0  0  0  0  0  0  0  0  0  0  0
   20.1820    0.4319   51.2321 C   0  0  1  0  0  0  0  0  0  0  0  0
   21.5660    0.2304   51.9940 C   0  0  1  0  0  0  0  0  0  0  0  0
   22.6887   -0.2885   51.0547 C   0  0  1  0  0  0  0  0  0  0  0  0
   22.1986   -1.6448   50.4725 C   0  0  1  0  0  0  0  0  0  0  0  0
   20.8088   -1.4094   49.7681 C   0  0  2  0  0  0  0  0  0  0  0  0
   24.3421   -3.0705   49.9871 C   0  0  0  0  0  0  0  0  0  0  0  0
   18.6018    2.8987   53.6563 N   0  0  0  0  0  0  0  0  0  0  0  0
   23.2159   -2.1989   49.5016 N   0  0  0  0  0  0  0  0  0  0  0  0
   20.8129    1.2774   54.5992 O   0  0  0  0  0  0  0  0  0  0  0  0
   21.9612    1.5185   52.5676 O   0  0  0  0  0  0  0  0  0  0  0  0
   19.7903   -0.8536   50.6802 O   0  0  0  0  0  0  0  0  0  0  0  0
   22.8908    0.6879   50.0280 O   0  0  0  0  0  0  0  0  0  0  0  0
   20.3003   -2.6352   49.2803 O   0  0  0  0  0  0  0  0  0  0  0  0
   19.4781   -2.4082   48.1510 C   0  0  2  0  0  0  0  0  0  0  0  0
   18.3752   -3.4574   48.0154 C   0  0  1  0  0  0  0  0  0  0  0  0
   18.9720   -4.8693   47.7633 C   0  0  2  0  0  0  0  0  0  0  0  0
   19.8538   -4.7839   46.4823 C   0  0  1  0  0  0  0  0  0  0  0  0
   20.9759   -3.7236   46.7327 C   0  0  1  0  0  0  0  0  0  0  0  0
   21.8671   -3.5184   45.5280 C   0  0  0  0  0  0  0  0  0  0  0  0
   20.4372   -6.1544   46.2265 N   0  0  0  0  0  0  0  0  0  0  0  0
   20.3257   -2.4274   46.9597 O   0  0  0  0  0  0  0  0  0  0  0  0
   17.6049   -3.4362   49.2335 O   0  0  0  0  0  0  0  0  0  0  0  0
   17.8813   -5.7807   47.5380 O   0  0  0  0  0  0  0  0  0  0  0  0
   21.1448   -3.1453   44.4048 O   0  0  0  0  0  0  0  0  0  0  0  0
   22.0003    1.1698   55.3849 C   0  0  1  0  0  0  0  0  0  0  0  0
   22.2258    2.4962   56.1954 C   0  0  1  0  0  0  0  0  0  0  0  0
   23.5287    2.3487   57.0609 C   0  0  2  0  0  0  0  0  0  0  0  0
   23.3594    1.1755   58.0380 C   0  0  1  0  0  0  0  0  0  0  0  0
   23.1473   -0.1579   57.2224 C   0  0  0  0  0  0  0  0  0  0  0  0
   21.8465   -0.0065   56.3395 C   0  0  2  0  0  0  0  0  0  0  0  0
   24.5631    1.0618   58.8450 N   0  0  0  0  0  0  0  0  0  0  0  0
   21.6229   -1.2373   55.5364 N   0  0  0  0  0  0  0  0  0  0  0  0
   22.3863    3.6117   55.2726 O   0  0  0  0  0  0  0  0  0  0  0  0
   23.7239    3.5246   57.8007 O   0  0  0  0  0  0  0  0  0  0  0  0
  1  2  1  0  0  0  0
  1 12  1  1  0  0  0
  1 13  1  0  0  0  0
  2  3  1  0  0  0  0
  2 10  1  1  0  0  0
  4  3  1  1  0  0  0
  4  5  1  0  0  0  0
  4 14  1  0  0  0  0
  5  6  1  0  0  0  0
  5 13  1  6  0  0  0
  6  7  1  0  0  0  0
  6 15  1  6  0  0  0
  7  8  1  0  0  0  0
  7 11  1  6  0  0  0
  8 14  1  0  0  0  0
  8 16  1  1  0  0  0
  9 11  1  0  0  0  0
 17 16  1  1  0  0  0
 17 18  1  0  0  0  0
 17 24  1  0  0  0  0
 18 19  1  0  0  0  0
 18 25  1  1  0  0  0
 19 20  1  0  0  0  0
 19 26  1  6  0  0  0
 20 21  1  0  0  0  0
 20 23  1  1  0  0  0
 21 22  1  6  0  0  0
 21 24  1  0  0  0  0
 22 27  1  0  0  0  0
 28 12  1  1  0  0  0
 28 29  1  0  0  0  0
 28 33  1  0  0  0  0
 29 30  1  0  0  0  0
 29 36  1  6  0  0  0
 30 31  1  0  0  0  0
 30 37  1  1  0  0  0
 31 32  1  0  0  0  0
 31 34  1  6  0  0  0
 32 33  1  0  0  0  0
 33 35  1  6  0  0  0
M  END
>  <CHROM.1>
-173.69503768,87.96598121,-151.48836077,-150.31093218,56.94992234,74.18479773
21.19027154,-0.80060043,51.52021449,1.33440960,-0.35391412,0.93314296

>  <Name>
2oe5_lig

>  <RI>
0

>  <Rbt.Current_Directory>
/home/itssahil/PROJECTS/Mol_Feturizer/New_Systems/rnas/2oe5

>  <Rbt.Executable>
rbdock ($Id: //depot/dev/client3/rdock/2013.1/src/exe/rbdock.cxx#4 $)

>  <Rbt.Library>
libRbt.so (2013.1, Build901 2013/11/27)

>  <Rbt.Parameter_File>
/export/apps/rDock/src/rDock_2013.1_src/data/scripts/dock_solv.prm

>  <Rbt.Receptor>
prm/pocket_docking_4.prm

>  <SCORE>
-20.4231

>  <SCORE.INTER>
-16.0513

>  <SCORE.INTER.CONST>
1

>  <SCORE.INTER.POLAR>
-1.49752

>  <SCORE.INTER.ROT>
6

>  <SCORE.INTER.SOLV>
16.4568

>  <SCORE.INTER.VDW>
-18.7947

>  <SCORE.INTER.norm>
-0.433819

>  <SCORE.INTRA>
-4.37182

>  <SCORE.INTRA.DIHEDRAL>
-7.56863

>  <SCORE.INTRA.DIHEDRAL.0>
16.2083

>  <SCORE.INTRA.POLAR>
0

>  <SCORE.INTRA.POLAR.0>
0

>  <SCORE.INTRA.REPUL>
0

>  <SCORE.INTRA.REPUL.0>
0

>  <SCORE.INTRA.SOLV>
-1.69074

>  <SCORE.INTRA.SOLV.lig_0>
-89.8095

>  <SCORE.INTRA.VDW>
0.257863

>  <SCORE.INTRA.VDW.0>
-3.19502

>  <SCORE.INTRA.norm>
-0.118157

>  <SCORE.RESTR>
0

>  <SCORE.RESTR.CAVITY>
0

>  <SCORE.RESTR.norm>
0

>  <SCORE.SYSTEM>
0

>  <SCORE.SYSTEM.CONST>
0

>  <SCORE.SYSTEM.DIHEDRAL>
0

>  <SCORE.SYSTEM.SOLV>
0

>  <SCORE.SYSTEM.norm>
0

>  <SCORE.heavy>
37

>  <SCORE.norm>
-0.551976

>  <RMSD>
1.484

$$$$
2oe5_lig
 OpenBabel11021811463D
libRbt.so/2013.1/901 2013/11/27
 37 40  0  0  0  0  0  0  0  0999 V2000
   21.0366    2.1762   53.4158 C   0  0  1  0  0  0  0  0  0  0  0  0
   19.7034    2.4310   52.6775 C   0  0  1  0  0  0  0  0  0  0  0  0
   19.1193    1.0597   52.1720 C   0  0  0  0  0  0  0  0  0  0  0  0
   20.2026    0.4741   51.2387 C   0  0  1  0  0  0  0  0  0  0  0  0
   21.5704    0.2227   52.0147 C   0  0  1  0  0  0  0  0  0  0  0  0
   22.6715   -0.3731   51.0955 C   0  0  1  0  0  0  0  0  0  0  0  0
   22.1182   -1.7170   50.5418 C   0  0  1  0  0  0  0  0  0  0  0  0
   20.7458   -1.4300   49.8226 C   0  0  2  0  0  0  0  0  0  0  0  0
   24.3695   -2.9857   50.1119 C   0  0  0  0  0  0  0  0  0  0  0  0
   18.7325    3.0727   53.5935 N   0  0  0  0  0  0  0  0  0  0  0  0
   23.1124   -2.3435   49.5912 N   0  0  0  0  0  0  0  0  0  0  0  0
   20.8552    1.3670   54.5894 O   0  0  0  0  0  0  0  0  0  0  0  0
   22.0256    1.5029   52.5606 O   0  0  0  0  0  0  0  0  0  0  0  0
   19.7509   -0.8033   50.7143 O   0  0  0  0  0  0  0  0  0  0  0  0
   22.9276    0.5675   50.0477 O   0  0  0  0  0  0  0  0  0  0  0  0
   20.1801   -2.6405   49.3601 O   0  0  0  0  0  0  0  0  0  0  0  0
   19.3788   -2.4005   48.2185 C   0  0  2  0  0  0  0  0  0  0  0  0
   18.3110   -3.4760   48.0220 C   0  0  1  0  0  0  0  0  0  0  0  0
   18.9551   -4.8611   47.7398 C   0  0  2  0  0  0  0  0  0  0  0  0
   19.8643   -4.7085   46.4845 C   0  0  1  0  0  0  0  0  0  0  0  0
   20.9484   -3.6250   46.7965 C   0  0  1  0  0  0  0  0  0  0  0  0
   21.8616   -3.3550   45.6215 C   0  0  0  0  0  0  0  0  0  0  0  0
   20.4940   -6.0525   46.1995 N   0  0  0  0  0  0  0  0  0  0  0  0
   20.2548   -2.3563   47.0486 O   0  0  0  0  0  0  0  0  0  0  0  0
   17.5115   -3.5169   49.2207 O   0  0  0  0  0  0  0  0  0  0  0  0
   17.8976   -5.7957   47.4583 O   0  0  0  0  0  0  0  0  0  0  0  0
   22.5805   -4.4817   45.2523 O   0  0  0  0  0  0  0  0  0  0  0  0
   22.0317    1.2180   55.3845 C   0  0  1  0  0  0  0  0  0  0  0  0
   22.2834    2.5267   56.2156 C   0  0  1  0  0  0  0  0  0  0  0  0
   23.5737    2.3337   57.0910 C   0  0  2  0  0  0  0  0  0  0  0  0
   23.3648    1.1520   58.0499 C   0  0  1  0  0  0  0  0  0  0  0  0
   23.1264   -0.1641   57.2137 C   0  0  0  0  0  0  0  0  0  0  0  0
   21.8385    0.0330   56.3210 C   0  0  2  0  0  0  0  0  0  0  0  0
   24.5573    0.9960   58.8664 N   0  0  0  0  0  0  0  0  0  0  0  0
   21.5911   -1.1804   55.4986 N   0  0  0  0  0  0  0  0  0  0  0  0
   22.4814    3.6504   55.3102 O   0  0  0  0  0  0  0  0  0  0  0  0
   23.7918    3.4939   57.8491 O   0  0  0  0  0  0  0  0  0  0  0  0
  1  2  1  0  0  0  0
  1 12  1  1  0  0  0
  1 13  1  0  0  0  0
  2  3  1  0  0  0  0
  2 10  1  1  0  0  0
  4  3  1  1  0  0  0
  4  5  1  0  0  0  0
  4 14  1  0  0  0  0
  5  6  1  0  0  0  0
  5 13  1  6  0  0  0
  6  7  1  0  0  0  0
  6 15  1  6  0  0  0
  7  8  1  0  0  0  0
  7 11  1  6  0  0  0
  8 14  1  0  0  0  0
  8 16  1  1  0  0  0
  9 11  1  0  0  0  0
 17 16  1  1  0  0  0
 17 18  1  0  0  0  0
 17 24  1  0  0  0  0
 18 19  1  0  0  0  0
 18 25  1  1  0  0  0
 19 20  1  0  0  0  0
 19 26  1  6  0  0  0
 20 21  1  0  0  0  0
 20 23  1  1  0  0  0
 21 22  1  6  0  0  0
 21 24  1  0  0  0  0
 22 27  1  0  0  0  0
 28 12  1  1  0  0  0
 28 29  1  0  0  0  0
 28 33  1  0  0  0  0
 29 30  1  0  0  0  0
 29 36  1  6  0  0  0
 30 31  1  0  0  0  0
 30 37  1  1  0  0  0
 31 32  1  0  0  0  0
 31 34  1  6  0  0  0
 32 33  1  0  0  0  0
 33 35  1  6  0  0  0
M  END
>  <CHROM.1>
-173.78561165,73.53287834,-151.37442389,-155.97634717,-61.96492994,76.76840573
21.23634559,-0.82223531,51.56416607,1.34287555,-0.33704627,0.92130435

>  <Name>
2oe5_lig

>  <RI>
0

>  <Rbt.Current_Directory>
/home/itssahil/PROJECTS/Mol_Feturizer/New_Systems/rnas/2oe5

>  <Rbt.Executable>
rbdock ($Id: //depot/dev/client3/rdock/2013.1/src/exe/rbdock.cxx#4 $)

>  <Rbt.Library>
libRbt.so (2013.1, Build901 2013/11/27)

>  <Rbt.Parameter_File>
/export/apps/rDock/src/rDock_2013.1_src/data/scripts/dock_solv.prm

>  <Rbt.Receptor>
prm/pocket_docking_4.prm

>  <SCORE>
-20.4295

>  <SCORE.INTER>
-15.8131

>  <SCORE.INTER.CONST>
1

>  <SCORE.INTER.POLAR>
-1.57935

>  <SCORE.INTER.ROT>
6

>  <SCORE.INTER.SOLV>
16.5641

>  <SCORE.INTER.VDW>
-18.3989

>  <SCORE.INTER.norm>
-0.427382

>  <SCORE.INTRA>
-4.61641

>  <SCORE.INTRA.DIHEDRAL>
-8.66076

>  <SCORE.INTRA.DIHEDRAL.0>
16.2083

>  <SCORE.INTRA.POLAR>
0

>  <SCORE.INTRA.POLAR.0>
0

>  <SCORE.INTRA.REPUL>
0

>  <SCORE.INTRA.REPUL.0>
0

>  <SCORE.INTRA.SOLV>
-1.15945

>  <SCORE.INTRA.SOLV.lig_0>
-89.8095

>  <SCORE.INTRA.VDW>
0.293694

>  <SCORE.INTRA.VDW.0>
-3.19502

>  <SCORE.INTRA.norm>
-0.124768

>  <SCORE.RESTR>
0

>  <SCORE.RESTR.CAVITY>
0

>  <SCORE.RESTR.norm>
0

>  <SCORE.SYSTEM>
0

>  <SCORE.SYSTEM.CONST>
0

>  <SCORE.SYSTEM.DIHEDRAL>
0

>  <SCORE.SYSTEM.SOLV>
0

>  <SCORE.SYSTEM.norm>
0

>  <SCORE.heavy>
37

>  <SCORE.norm>
-0.55215

>  <RMSD>
1.510

$$$$
2oe5_lig
 OpenBabel11021811463D
libRbt.so/2013.1/901 2013/11/27
 37 40  0  0  0  0  0  0  0  0999 V2000
   21.1311    1.9876   53.3481 C   0  0  1  0  0  0  0  0  0  0  0  0
   19.7869    2.2998   52.6533 C   0  0  1  0  0  0  0  0  0  0  0  0
   19.1043    0.9517   52.2130 C   0  0  0  0  0  0  0  0  0  0  0  0
   20.1138    0.2762   51.2580 C   0  0  1  0  0  0  0  0  0  0  0  0
   21.4943   -0.0337   51.9891 C   0  0  1  0  0  0  0  0  0  0  0  0
   22.5217   -0.7200   51.0480 C   0  0  1  0  0  0  0  0  0  0  0  0
   21.8695   -2.0440   50.5576 C   0  0  1  0  0  0  0  0  0  0  0  0
   20.4888   -1.6969   49.8822 C   0  0  2  0  0  0  0  0  0  0  0  0
   23.9250   -3.6008   50.0947 C   0  0  0  0  0  0  0  0  0  0  0  0
   18.8920    3.0241   53.5849 N   0  0  0  0  0  0  0  0  0  0  0  0
   22.7871   -2.7556   49.5900 N   0  0  0  0  0  0  0  0  0  0  0  0
   20.9494    1.2248   54.5523 O   0  0  0  0  0  0  0  0  0  0  0  0
   22.0446    1.2324   52.4775 O   0  0  0  0  0  0  0  0  0  0  0  0
   19.5681   -0.9867   50.7910 O   0  0  0  0  0  0  0  0  0  0  0  0
   22.7904    0.1732   49.9626 O   0  0  0  0  0  0  0  0  0  0  0  0
   19.8357   -2.8844   49.4792 O   0  0  0  0  0  0  0  0  0  0  0  0
   19.0766   -2.6510   48.3077 C   0  0  2  0  0  0  0  0  0  0  0  0
   18.0624   -3.7629   48.0419 C   0  0  1  0  0  0  0  0  0  0  0  0
   18.7732   -5.1154   47.7614 C   0  0  2  0  0  0  0  0  0  0  0  0
   19.7301   -4.9001   46.5516 C   0  0  1  0  0  0  0  0  0  0  0  0
   20.7552   -3.7823   46.9336 C   0  0  1  0  0  0  0  0  0  0  0  0
   21.7079   -3.4513   45.8066 C   0  0  0  0  0  0  0  0  0  0  0  0
   20.4250   -6.2120   46.2685 N   0  0  0  0  0  0  0  0  0  0  0  0
   20.0010   -2.5473   47.1796 O   0  0  0  0  0  0  0  0  0  0  0  0
   17.2129   -3.8610   49.2023 O   0  0  0  0  0  0  0  0  0  0  0  0
   17.7673   -6.0842   47.4141 O   0  0  0  0  0  0  0  0  0  0  0  0
   22.6143   -2.4650   46.1650 O   0  0  0  0  0  0  0  0  0  0  0  0
   22.1264    1.1047   55.3516 C   0  0  1  0  0  0  0  0  0  0  0  0
   22.3529    2.4262   56.1696 C   0  0  1  0  0  0  0  0  0  0  0  0
   23.6442    2.2651   57.0500 C   0  0  2  0  0  0  0  0  0  0  0  0
   23.4538    1.0898   58.0207 C   0  0  1  0  0  0  0  0  0  0  0  0
   23.2407   -0.2389   57.1976 C   0  0  0  0  0  0  0  0  0  0  0  0
   21.9518   -0.0737   56.3000 C   0  0  2  0  0  0  0  0  0  0  0  0
   24.6468    0.9633   58.8415 N   0  0  0  0  0  0  0  0  0  0  0  0
   21.7278   -1.2998   55.4896 N   0  0  0  0  0  0  0  0  0  0  0  0
   22.5334    3.5437   55.2531 O   0  0  0  0  0  0  0  0  0  0  0  0
   23.8400    3.4367   57.7965 O   0  0  0  0  0  0  0  0  0  0  0  0
  1  2  1  0  0  0  0
  1 12  1  1  0  0  0
  1 13  1  0  0  0  0
  2  3  1  0  0  0  0
  2 10  1  1  0  0  0
  4  3  1  1  0  0  0
  4  5  1  0  0  0  0
  4 14  1  0  0  0  0
  5  6  1  0  0  0  0
  5 13  1  6  0  0  0
  6  7  1  0  0  0  0
  6 15  1  6  0  0  0
  7  8  1  0  0  0  0
  7 11  1  6  0  0  0
  8 14  1  0  0  0  0
  8 16  1  1  0  0  0
  9 11  1  0  0  0  0
 17 16  1  1  0  0  0
 17 18  1  0  0  0  0
 17 24  1  0  0  0  0
 18 19  1  0  0  0  0
 18 25  1  1  0  0  0
 19 20  1  0  0  0  0
 19 26  1  6  0  0  0
 20 21  1  0  0  0  0
 20 23  1  1  0  0  0
 21 22  1  6  0  0  0
 21 24  1  0  0  0  0
 22 27  1  0  0  0  0
 28 12  1  1  0  0  0
 28 29  1  0  0  0  0
 28 33  1  0  0  0  0
 29 30  1  0  0  0  0
 29 36  1  6  0  0  0
 30 31  1  0  0  0  0
 30 37  1  1  0  0  0
 31 32  1  0  0  0  0
 31 34  1  1  0  0  0
 32 33  1  0  0  0  0
 33 35  1  6  0  0  0
M  END
>  <CHROM.1>
-169.81762222,81.32149466,-147.40229489,-164.36070958,-179.62815852,78.73808880
21.15695054,-0.95629703,51.59859957,1.30009597,-0.35714792,0.89339081

>  <Name>
2oe5_lig

>  <RI>
0

>  <Rbt.Current_Directory>
/home/itssahil/PROJECTS/Mol_Feturizer/New_Systems/rnas/2oe5

>  <Rbt.Executable>
rbdock ($Id: //depot/dev/client3/rdock/2013.1/src/exe/rbdock.cxx#4 $)

>  <Rbt.Library>
libRbt.so (2013.1, Build901 2013/11/27)

>  <Rbt.Parameter_File>
/export/apps/rDock/src/rDock_2013.1_src/data/scripts/dock_solv.prm

>  <Rbt.Receptor>
prm/pocket_docking_4.prm

>  <SCORE>
-19.3055

>  <SCORE.INTER>
-14.0176

>  <SCORE.INTER.CONST>
1

>  <SCORE.INTER.POLAR>
-1.31576

>  <SCORE.INTER.ROT>
6

>  <SCORE.INTER.SOLV>
15.2859

>  <SCORE.INTER.VDW>
-17.6545

>  <SCORE.INTER.norm>
-0.378853

>  <SCORE.INTRA>
-5.30217

>  <SCORE.INTRA.DIHEDRAL>
-8.4876

>  <SCORE.INTRA.DIHEDRAL.0>
16.2083

>  <SCORE.INTRA.POLAR>
0

>  <SCORE.INTRA.POLAR.0>
0

>  <SCORE.INTRA.REPUL>
0

>  <SCORE.INTRA.REPUL.0>
0

>  <SCORE.INTRA.SOLV>
-1.34901

>  <SCORE.INTRA.SOLV.lig_0>
-89.8095

>  <SCORE.INTRA.VDW>
-0.383865

>  <SCORE.INTRA.VDW.0>
-3.19502

>  <SCORE.INTRA.norm>
-0.143302

>  <SCORE.RESTR>
0.0142728

>  <SCORE.RESTR.CAVITY>
0.0142728

>  <SCORE.RESTR.norm>
0.000385752

>  <SCORE.SYSTEM>
0

>  <SCORE.SYSTEM.CONST>
0

>  <SCORE.SYSTEM.DIHEDRAL>
0

>  <SCORE.SYSTEM.SOLV>
0

>  <SCORE.SYSTEM.norm>
0

>  <SCORE.heavy>
37

>  <SCORE.norm>
-0.521769

>  <RMSD>
1.531

$$$$
2oe5_lig
 OpenBabel11021811463D
libRbt.so/2013.1/901 2013/11/27
 37 40  0  0  0  0  0  0  0  0999 V2000
   20.9830    2.1768   53.4228 C   0  0  1  0  0  0  0  0  0  0  0  0
   19.6357    2.3850   52.6958 C   0  0  1  0  0  0  0  0  0  0  0  0
   19.1047    0.9967   52.1784 C   0  0  0  0  0  0  0  0  0  0  0  0
   20.2047    0.4662   51.2318 C   0  0  1  0  0  0  0  0  0  0  0  0
   21.5868    0.2623   51.9964 C   0  0  1  0  0  0  0  0  0  0  0  0
   22.7051   -0.2778   51.0638 C   0  0  1  0  0  0  0  0  0  0  0  0
   22.2034   -1.6369   50.4984 C   0  0  1  0  0  0  0  0  0  0  0  0
   20.8157   -1.3983   49.7909 C   0  0  2  0  0  0  0  0  0  0  0  0
   23.4346   -3.6980   49.4501 C   0  0  0  0  0  0  0  0  0  0  0  0
   18.6455    2.9764   53.6249 N   0  0  0  0  0  0  0  0  0  0  0  0
   23.2160   -2.2117   49.5346 N   0  0  0  0  0  0  0  0  0  0  0  0
   20.8425    1.3480   54.5883 O   0  0  0  0  0  0  0  0  0  0  0  0
   21.9930    1.5540   52.5540 O   0  0  0  0  0  0  0  0  0  0  0  0
   19.8020   -0.8226   50.6958 O   0  0  0  0  0  0  0  0  0  0  0  0
   22.9157    0.6840   50.0252 O   0  0  0  0  0  0  0  0  0  0  0  0
   20.2968   -2.6258   49.3182 O   0  0  0  0  0  0  0  0  0  0  0  0
   19.4785   -2.4060   48.1846 C   0  0  2  0  0  0  0  0  0  0  0  0
   18.3750   -3.4550   48.0529 C   0  0  1  0  0  0  0  0  0  0  0  0
   18.9712   -4.8693   47.8128 C   0  0  2  0  0  0  0  0  0  0  0  0
   19.8571   -4.7938   46.5340 C   0  0  1  0  0  0  0  0  0  0  0  0
   20.9795   -3.7328   46.7805 C   0  0  1  0  0  0  0  0  0  0  0  0
   21.8748   -3.5370   45.5773 C   0  0  0  0  0  0  0  0  0  0  0  0
   20.4400   -6.1666   46.2898 N   0  0  0  0  0  0  0  0  0  0  0  0
   20.3298   -2.4344   46.9963 O   0  0  0  0  0  0  0  0  0  0  0  0
   17.6008   -3.4245   49.2684 O   0  0  0  0  0  0  0  0  0  0  0  0
   17.8803   -5.7812   47.5904 O   0  0  0  0  0  0  0  0  0  0  0  0
   21.1571   -3.1653   44.4506 O   0  0  0  0  0  0  0  0  0  0  0  0
   22.0401    1.2062   55.3528 C   0  0  1  0  0  0  0  0  0  0  0  0
   22.3523    2.5470   56.1088 C   0  0  1  0  0  0  0  0  0  0  0  0
   23.6650    2.3622   56.9522 C   0  0  2  0  0  0  0  0  0  0  0  0
   23.4569    1.2354   57.9753 C   0  0  1  0  0  0  0  0  0  0  0  0
   23.1576   -0.1134   57.2141 C   0  0  0  0  0  0  0  0  0  0  0  0
   21.8469    0.0746   56.3532 C   0  0  2  0  0  0  0  0  0  0  0  0
   24.6709    1.0873   58.7610 N   0  0  0  0  0  0  0  0  0  0  0  0
   21.5416   -1.1707   55.6009 N   0  0  0  0  0  0  0  0  0  0  0  0
   22.5497    3.6187   55.1424 O   0  0  0  0  0  0  0  0  0  0  0  0
   23.9375    3.5520   57.6439 O   0  0  0  0  0  0  0  0  0  0  0  0
  1  2  1  0  0  0  0
  1 12  1  1  0  0  0
  1 13  1  0  0  0  0
  2  3  1  0  0  0  0
  2 10  1  1  0  0  0
  4  3  1  1  0  0  0
  4  5  1  0  0  0  0
  4 14  1  0  0  0  0
  5  6  1  0  0  0  0
  5 13  1  6  0  0  0
  6  7  1  0  0  0  0
  6 15  1  6  0  0  0
  7  8  1  0  0  0  0
  7 11  1  6  0  0  0
  8 14  1  0  0  0  0
  8 16  1  1  0  0  0
  9 11  1  0  0  0  0
 17 16  1  1  0  0  0
 17 18  1  0  0  0  0
 17 24  1  0  0  0  0
 18 19  1  0  0  0  0
 18 25  1  1  0  0  0
 19 20  1  0  0  0  0
 19 26  1  6  0  0  0
 20 21  1  0  0  0  0
 20 23  1  1  0  0  0
 21 22  1  6  0  0  0
 21 24  1  0  0  0  0
 22 27  1  0  0  0  0
 28 12  1  1  0  0  0
 28 29  1  0  0  0  0
 28 33  1  0  0  0  0
 29 30  1  0  0  0  0
 29 36  1  6  0  0  0
 30 31  1  0  0  0  0
 30 37  1  1  0  0  0
 31 32  1  0  0  0  0
 31 34  1  6  0  0  0
 32 33  1  0  0  0  0
 33 35  1  6  0  0  0
M  END
>  <CHROM.1>
-175.55155111,144.82491254,-151.39268265,-150.89726406,57.22223481,72.32335489
21.19589742,-0.79679405,51.50311827,1.32012810,-0.42237810,0.89985060

>  <Name>
2oe5_lig

>  <RI>
0

>  <Rbt.Current_Directory>
/home/itssahil/PROJECTS/Mol_Feturizer/New_Systems/rnas/2oe5

>  <Rbt.Executable>
rbdock ($Id: //depot/dev/client3/rdock/2013.1/src/exe/rbdock.cxx#4 $)

>  <Rbt.Library>
libRbt.so (2013.1, Build901 2013/11/27)

>  <Rbt.Parameter_File>
/export/apps/rDock/src/rDock_2013.1_src/data/scripts/dock_solv.prm

>  <Rbt.Receptor>
prm/pocket_docking_6.prm

>  <SCORE>
-19.949

>  <SCORE.INTER>
-15.2217

>  <SCORE.INTER.CONST>
1

>  <SCORE.INTER.POLAR>
-1.51213

>  <SCORE.INTER.ROT>
6

>  <SCORE.INTER.SOLV>
16.4808

>  <SCORE.INTER.VDW>
-18.2009

>  <SCORE.INTER.norm>
-0.411396

>  <SCORE.INTRA>
-4.72734

>  <SCORE.INTRA.DIHEDRAL>
-7.7629

>  <SCORE.INTRA.DIHEDRAL.0>
16.2083

>  <SCORE.INTRA.POLAR>
0

>  <SCORE.INTRA.POLAR.0>
0

>  <SCORE.INTRA.REPUL>
0

>  <SCORE.INTRA.REPUL.0>
0

>  <SCORE.INTRA.SOLV>
-1.76196

>  <SCORE.INTRA.SOLV.lig_0>
-89.8095

>  <SCORE.INTRA.VDW>
0.0350908

>  <SCORE.INTRA.VDW.0>
-3.19502

>  <SCORE.INTRA.norm>
-0.127766

>  <SCORE.RESTR>
0

>  <SCORE.RESTR.CAVITY>
0

>  <SCORE.RESTR.norm>
0

>  <SCORE.SYSTEM>
0

>  <SCORE.SYSTEM.CONST>
0

>  <SCORE.SYSTEM.DIHEDRAL>
0

>  <SCORE.SYSTEM.SOLV>
0

>  <SCORE.SYSTEM.norm>
0

>  <SCORE.heavy>
37

>  <SCORE.norm>
-0.539162

>  <RMSD>
1.573

$$$$
2oe5_lig
 OpenBabel11021811463D
libRbt.so/2013.1/901 2013/11/27
 37 40  0  0  0  0  0  0  0  0999 V2000
   21.2004    1.9612   53.2777 C   0  0  1  0  0  0  0  0  0  0  0  0
   19.8705    2.2556   52.5484 C   0  0  1  0  0  0  0  0  0  0  0  0
   19.2422    0.9023   52.0474 C   0  0  0  0  0  0  0  0  0  0  0  0
   20.3011    0.2844   51.1071 C   0  0  1  0  0  0  0  0  0  0  0  0
   21.6660   -0.0077   51.8739 C   0  0  1  0  0  0  0  0  0  0  0  0
   22.7426   -0.6364   50.9476 C   0  0  1  0  0  0  0  0  0  0  0  0
   22.1456   -1.9632   50.3982 C   0  0  1  0  0  0  0  0  0  0  0  0
   20.7776   -1.6355   49.6881 C   0  0  2  0  0  0  0  0  0  0  0  0
   23.1404   -4.1156   49.2846 C   0  0  0  0  0  0  0  0  0  0  0  0
   18.9254    2.9263   53.4706 N   0  0  0  0  0  0  0  0  0  0  0  0
   23.1141   -2.6194   49.4412 N   0  0  0  0  0  0  0  0  0  0  0  0
   21.0028    1.1582   54.4528 O   0  0  0  0  0  0  0  0  0  0  0  0
   22.1630    1.2585   52.4162 O   0  0  0  0  0  0  0  0  0  0  0  0
   19.8079   -0.9790   50.5863 O   0  0  0  0  0  0  0  0  0  0  0  0
   23.0196    0.2959   49.8977 O   0  0  0  0  0  0  0  0  0  0  0  0
   20.1728   -2.8287   49.2300 O   0  0  0  0  0  0  0  0  0  0  0  0
   19.3321   -2.5569   48.1244 C   0  0  2  0  0  0  0  0  0  0  0  0
   18.2002   -3.5751   47.9916 C   0  0  1  0  0  0  0  0  0  0  0  0
   18.7552   -4.9956   47.6966 C   0  0  2  0  0  0  0  0  0  0  0  0
   19.6105   -4.9046   46.3981 C   0  0  1  0  0  0  0  0  0  0  0  0
   20.7645   -3.8783   46.6455 C   0  0  1  0  0  0  0  0  0  0  0  0
   21.6339   -3.6694   45.4257 C   0  0  0  0  0  0  0  0  0  0  0  0
   20.1532   -6.2834   46.1005 N   0  0  0  0  0  0  0  0  0  0  0  0
   20.1525   -2.5715   46.9142 O   0  0  0  0  0  0  0  0  0  0  0  0
   17.4575   -3.5610   49.2269 O   0  0  0  0  0  0  0  0  0  0  0  0
   17.6370   -5.8745   47.4767 O   0  0  0  0  0  0  0  0  0  0  0  0
   22.7286   -2.8636   45.6995 O   0  0  0  0  0  0  0  0  0  0  0  0
   22.1611    1.0352   55.2786 C   0  0  1  0  0  0  0  0  0  0  0  0
   22.4666    2.4084   55.9771 C   0  0  1  0  0  0  0  0  0  0  0  0
   23.7354    2.2445   56.8891 C   0  0  2  0  0  0  0  0  0  0  0  0
   23.4575    1.1778   57.9591 C   0  0  1  0  0  0  0  0  0  0  0  0
   23.1649   -0.2038   57.2564 C   0  0  0  0  0  0  0  0  0  0  0  0
   21.8990   -0.0377   56.3269 C   0  0  2  0  0  0  0  0  0  0  0  0
   24.6312    1.0494   58.8071 N   0  0  0  0  0  0  0  0  0  0  0  0
   21.6022   -1.3154   55.6274 N   0  0  0  0  0  0  0  0  0  0  0  0
   22.7302    3.4232   54.9661 O   0  0  0  0  0  0  0  0  0  0  0  0
   24.0011    3.4642   57.5295 O   0  0  0  0  0  0  0  0  0  0  0  0
  1  2  1  0  0  0  0
  1 12  1  1  0  0  0
  1 13  1  0  0  0  0
  2  3  1  0  0  0  0
  2 10  1  1  0  0  0
  4  3  1  1  0  0  0
  4  5  1  0  0  0  0
  4 14  1  0  0  0  0
  5  6  1  0  0  0  0
  5 13  1  6  0  0  0
  6  7  1  0  0  0  0
  6 15  1  6  0  0  0
  7  8  1  0  0  0  0
  7 11  1  6  0  0  0
  8 14  1  0  0  0  0
  8 16  1  1  0  0  0
  9 11  1  0  0  0  0
 17 16  1  1  0  0  0
 17 18  1  0  0  0  0
 17 24  1  0  0  0  0
 18 19  1  0  0  0  0
 18 25  1  1  0  0  0
 19 20  1  0  0  0  0
 19 26  1  6  0  0  0
 20 21  1  0  0  0  0
 20 23  1  1  0  0  0
 21 22  1  6  0  0  0
 21 24  1  0  0  0  0
 22 27  1  0  0  0  0
 28 12  1  6  0  0  0
 28 29  1  0  0  0  0
 28 33  1  0  0  0  0
 29 30  1  0  0  0  0
 29 36  1  6  0  0  0
 30 31  1  0  0  0  0
 30 37  1  1  0  0  0
 31 32  1  0  0  0  0
 31 34  1  1  0  0  0
 32 33  1  0  0  0  0
 33 35  1  6  0  0  0
M  END
>  <CHROM.1>
-170.50731202,150.34540643,-153.55210168,-153.36172147,-173.90385964,70.19034069
21.22859816,-0.95943584,51.44427453,1.31826236,-0.22333975,0.94059042

>  <Name>
2oe5_lig

>  <RI>
0

>  <Rbt.Current_Directory>
/home/itssahil/PROJECTS/Mol_Feturizer/New_Systems/rnas/2oe5

>  <Rbt.Executable>
rbdock ($Id: //depot/dev/client3/rdock/2013.1/src/exe/rbdock.cxx#4 $)

>  <Rbt.Library>
libRbt.so (2013.1, Build901 2013/11/27)

>  <Rbt.Parameter_File>
/export/apps/rDock/src/rDock_2013.1_src/data/scripts/dock_solv.prm

>  <Rbt.Receptor>
prm/pocket_docking_6.prm

>  <SCORE>
-19.6197

>  <SCORE.INTER>
-14.3402

>  <SCORE.INTER.CONST>
1

>  <SCORE.INTER.POLAR>
-1.52013

>  <SCORE.INTER.ROT>
6

>  <SCORE.INTER.SOLV>
16.1486

>  <SCORE.INTER.VDW>
-17.4759

>  <SCORE.INTER.norm>
-0.387573

>  <SCORE.INTRA>
-5.2795

>  <SCORE.INTRA.DIHEDRAL>
-8.5876

>  <SCORE.INTRA.DIHEDRAL.0>
16.2083

>  <SCORE.INTRA.POLAR>
0

>  <SCORE.INTRA.POLAR.0>
0

>  <SCORE.INTRA.REPUL>
0

>  <SCORE.INTRA.REPUL.0>
0

>  <SCORE.INTRA.SOLV>
-2.05164

>  <SCORE.INTRA.SOLV.lig_0>
-89.8095

>  <SCORE.INTRA.VDW>
0.0401141

>  <SCORE.INTRA.VDW.0>
-3.19502

>  <SCORE.INTRA.norm>
-0.142689

>  <SCORE.RESTR>
0

>  <SCORE.RESTR.CAVITY>
0

>  <SCORE.RESTR.norm>
0

>  <SCORE.SYSTEM>
0

>  <SCORE.SYSTEM.CONST>
0

>  <SCORE.SYSTEM.DIHEDRAL>
0

>  <SCORE.SYSTEM.SOLV>
0

>  <SCORE.SYSTEM.norm>
0

>  <SCORE.heavy>
37

>  <SCORE.norm>
-0.530263

>  <RMSD>
1.610

$$$$
2oe5_lig
 OpenBabel11021811463D
libRbt.so/2013.1/901 2013/11/27
 37 40  0  0  0  0  0  0  0  0999 V2000
   20.4353    1.2499   54.0932 C   0  0  1  0  0  0  0  0  0  0  0  0
   19.7627    1.9877   52.9140 C   0  0  1  0  0  0  0  0  0  0  0  0
   18.7398    1.0197   52.2113 C   0  0  0  0  0  0  0  0  0  0  0  0
   19.5788   -0.1902   51.7427 C   0  0  1  0  0  0  0  0  0  0  0  0
   20.2682   -0.9352   52.9699 C   0  0  1  0  0  0  0  0  0  0  0  0
   21.1113   -2.1599   52.5210 C   0  0  1  0  0  0  0  0  0  0  0  0
   20.1425   -3.1290   51.7855 C   0  0  1  0  0  0  0  0  0  0  0  0
   19.4501   -2.3409   50.6096 C   0  0  2  0  0  0  0  0  0  0  0  0
   20.1728   -5.6188   50.9715 C   0  0  0  0  0  0  0  0  0  0  0  0
   19.0472    3.1862   53.4090 N   0  0  0  0  0  0  0  0  0  0  0  0
   20.8955   -4.3327   51.2671 N   0  0  0  0  0  0  0  0  0  0  0  0
   19.4860    0.8758   55.1050 O   0  0  0  0  0  0  0  0  0  0  0  0
   21.1288    0.0272   53.6610 O   0  0  0  0  0  0  0  0  0  0  0  0
   18.7156   -1.1478   51.0730 O   0  0  0  0  0  0  0  0  0  0  0  0
   22.1484   -1.6877   51.6553 O   0  0  0  0  0  0  0  0  0  0  0  0
   18.5130   -3.1736   49.9555 O   0  0  0  0  0  0  0  0  0  0  0  0
   18.3491   -2.7627   48.6112 C   0  0  2  0  0  0  0  0  0  0  0  0
   17.5625   -3.7797   47.7850 C   0  0  1  0  0  0  0  0  0  0  0  0
   18.3309   -5.1250   47.6717 C   0  0  2  0  0  0  0  0  0  0  0  0
   19.7231   -4.8184   47.0443 C   0  0  1  0  0  0  0  0  0  0  0  0
   20.4679   -3.8099   47.9794 C   0  0  1  0  0  0  0  0  0  0  0  0
   21.8191   -3.3982   47.4388 C   0  0  0  0  0  0  0  0  0  0  0  0
   20.4782   -6.1224   46.9270 N   0  0  0  0  0  0  0  0  0  0  0  0
   19.6765   -2.5747   48.0276 O   0  0  0  0  0  0  0  0  0  0  0  0
   16.2881   -3.9699   48.4309 O   0  0  0  0  0  0  0  0  0  0  0  0
   17.5873   -5.9909   46.7953 O   0  0  0  0  0  0  0  0  0  0  0  0
   21.7142   -2.7439   46.2209 O   0  0  0  0  0  0  0  0  0  0  0  0
   19.9718    1.0101   56.4409 C   0  0  1  0  0  0  0  0  0  0  0  0
   18.8446    1.6002   57.3618 C   0  0  1  0  0  0  0  0  0  0  0  0
   19.3979    1.7259   58.8269 C   0  0  2  0  0  0  0  0  0  0  0  0
   19.7999    0.3346   59.3392 C   0  0  1  0  0  0  0  0  0  0  0  0
   20.9419   -0.2506   58.4219 C   0  0  0  0  0  0  0  0  0  0  0  0
   20.3932   -0.3635   56.9452 C   0  0  2  0  0  0  0  0  0  0  0  0
   20.2920    0.4620   60.7011 N   0  0  0  0  0  0  0  0  0  0  0  0
   21.4493   -0.8918   56.0422 N   0  0  0  0  0  0  0  0  0  0  0  0
   18.4598    2.9195   56.8793 O   0  0  0  0  0  0  0  0  0  0  0  0
   18.3881    2.2355   59.6569 O   0  0  0  0  0  0  0  0  0  0  0  0
  1  2  1  0  0  0  0
  1 12  1  1  0  0  0
  1 13  1  0  0  0  0
  2  3  1  0  0  0  0
  2 10  1  1  0  0  0
  4  3  1  1  0  0  0
  4  5  1  0  0  0  0
  4 14  1  0  0  0  0
  5  6  1  0  0  0  0
  5 13  1  6  0  0  0
  6  7  1  0  0  0  0
  6 15  1  6  0  0  0
  7  8  1  0  0  0  0
  7 11  1  6  0  0  0
  8 14  1  0  0  0  0
  8 16  1  1  0  0  0
  9 11  1  0  0  0  0
 17 16  1  1  0  0  0
 17 18  1  0  0  0  0
 17 24  1  0  0  0  0
 18 19  1  0  0  0  0
 18 25  1  1  0  0  0
 19 20  1  0  0  0  0
 19 26  1  6  0  0  0
 20 21  1  0  0  0  0
 20 23  1  1  0  0  0
 21 22  1  6  0  0  0
 21 24  1  0  0  0  0
 22 27  1  0  0  0  0
 28 12  1  6  0  0  0
 28 29  1  0  0  0  0
 28 33  1  0  0  0  0
 29 30  1  0  0  0  0
 29 36  1  6  0  0  0
 30 31  1  0  0  0  0
 30 37  1  1  0  0  0
 31 32  1  0  0  0  0
 31 34  1  1  0  0  0
 32 33  1  0  0  0  0
 33 35  1  6  0  0  0
M  END
>  <CHROM.1>
-141.71347963,157.88219034,-153.15353165,168.89877009,61.94561015,139.25396559
19.70289042,-1.43545507,52.37451756,1.51460492,-1.10752962,1.00954919

>  <Name>
2oe5_lig

>  <RI>
0

>  <Rbt.Current_Directory>
/home/itssahil/PROJECTS/Mol_Feturizer/New_Systems/rnas/2oe5

>  <Rbt.Executable>
rbdock ($Id: //depot/dev/client3/rdock/2013.1/src/exe/rbdock.cxx#4 $)

>  <Rbt.Library>
libRbt.so (2013.1, Build901 2013/11/27)

>  <Rbt.Parameter_File>
/export/apps/rDock/src/rDock_2013.1_src/data/scripts/dock_solv.prm

>  <Rbt.Receptor>
prm/pocket_docking_3.prm

>  <SCORE>
-19.4007

>  <SCORE.INTER>
-19.5795

>  <SCORE.INTER.CONST>
1

>  <SCORE.INTER.POLAR>
-1.30082

>  <SCORE.INTER.ROT>
6

>  <SCORE.INTER.SOLV>
15.0209

>  <SCORE.INTER.VDW>
-21.3239

>  <SCORE.INTER.norm>
-0.529176

>  <SCORE.INTRA>
0.159975

>  <SCORE.INTRA.DIHEDRAL>
-1.59705

>  <SCORE.INTRA.DIHEDRAL.0>
16.2083

>  <SCORE.INTRA.POLAR>
0

>  <SCORE.INTRA.POLAR.0>
0

>  <SCORE.INTRA.REPUL>
0

>  <SCORE.INTRA.REPUL.0>
0

>  <SCORE.INTRA.SOLV>
1.94895

>  <SCORE.INTRA.SOLV.lig_0>
-89.8095

>  <SCORE.INTRA.VDW>
-0.0159748

>  <SCORE.INTRA.VDW.0>
-3.19502

>  <SCORE.INTRA.norm>
0.00432365

>  <SCORE.RESTR>
0.0188197

>  <SCORE.RESTR.CAVITY>
0.0188197

>  <SCORE.RESTR.norm>
0.00050864

>  <SCORE.SYSTEM>
0

>  <SCORE.SYSTEM.CONST>
0

>  <SCORE.SYSTEM.DIHEDRAL>
0

>  <SCORE.SYSTEM.SOLV>
0

>  <SCORE.SYSTEM.norm>
0

>  <SCORE.heavy>
37

>  <SCORE.norm>
-0.524344

>  <RMSD>
1.651

$$$$
2oe5_lig
 OpenBabel11021811463D
libRbt.so/2013.1/901 2013/11/27
 37 40  0  0  0  0  0  0  0  0999 V2000
   21.7273    1.3433   53.7621 C   0  0  1  0  0  0  0  0  0  0  0  0
   20.2731    1.6919   53.3734 C   0  0  1  0  0  0  0  0  0  0  0  0
   19.5423    0.3901   52.8752 C   0  0  0  0  0  0  0  0  0  0  0  0
   20.3685   -0.1045   51.6669 C   0  0  1  0  0  0  0  0  0  0  0  0
   21.8650   -0.4543   52.0846 C   0  0  1  0  0  0  0  0  0  0  0  0
   22.7114   -0.9609   50.8849 C   0  0  1  0  0  0  0  0  0  0  0  0
   22.0008   -2.2306   50.3359 C   0  0  1  0  0  0  0  0  0  0  0  0
   20.5138   -1.8516   49.9778 C   0  0  2  0  0  0  0  0  0  0  0  0
   23.2275   -4.1844   49.0946 C   0  0  0  0  0  0  0  0  0  0  0  0
   19.5544    2.2429   54.5453 N   0  0  0  0  0  0  0  0  0  0  0  0
   22.7349   -2.7631   49.1267 N   0  0  0  0  0  0  0  0  0  0  0  0
   21.7831    0.4148   54.8574 O   0  0  0  0  0  0  0  0  0  0  0  0
   22.4760    0.7542   52.6417 O   0  0  0  0  0  0  0  0  0  0  0  0
   19.7658   -1.3125   51.1301 O   0  0  0  0  0  0  0  0  0  0  0  0
   22.7611    0.0839   49.9081 O   0  0  0  0  0  0  0  0  0  0  0  0
   19.8162   -2.9984   49.5335 O   0  0  0  0  0  0  0  0  0  0  0  0
   19.0799   -2.6992   48.3625 C   0  0  2  0  0  0  0  0  0  0  0  0
   18.0590   -3.7852   48.0252 C   0  0  1  0  0  0  0  0  0  0  0  0
   18.7605   -5.1300   47.6900 C   0  0  2  0  0  0  0  0  0  0  0  0
   19.7403   -4.8661   46.5084 C   0  0  1  0  0  0  0  0  0  0  0  0
   20.7700   -3.7799   46.9623 C   0  0  1  0  0  0  0  0  0  0  0  0
   21.7454   -3.4044   45.8691 C   0  0  0  0  0  0  0  0  0  0  0  0
   20.4264   -6.1701   46.1724 N   0  0  0  0  0  0  0  0  0  0  0  0
   20.0245   -2.5502   47.2565 O   0  0  0  0  0  0  0  0  0  0  0  0
   17.1887   -3.9309   49.1650 O   0  0  0  0  0  0  0  0  0  0  0  0
   17.7508   -6.0693   47.2785 O   0  0  0  0  0  0  0  0  0  0  0  0
   22.5354   -4.4777   45.4862 O   0  0  0  0  0  0  0  0  0  0  0  0
   21.3804    0.9653   56.1117 C   0  0  1  0  0  0  0  0  0  0  0  0
   21.1847   -0.1863   57.1617 C   0  0  1  0  0  0  0  0  0  0  0  0
   20.7553    0.4445   58.5351 C   0  0  2  0  0  0  0  0  0  0  0  0
   21.8564    1.3983   59.0224 C   0  0  1  0  0  0  0  0  0  0  0  0
   22.0418    2.5621   57.9738 C   0  0  0  0  0  0  0  0  0  0  0  0
   22.4585    1.9294   56.5880 C   0  0  2  0  0  0  0  0  0  0  0  0
   21.4558    1.9603   60.3017 N   0  0  0  0  0  0  0  0  0  0  0  0
   22.6221    2.9944   55.5638 N   0  0  0  0  0  0  0  0  0  0  0  0
   20.1416   -1.0937   56.7033 O   0  0  0  0  0  0  0  0  0  0  0  0
   20.5973   -0.5794   59.4811 O   0  0  0  0  0  0  0  0  0  0  0  0
  1  2  1  0  0  0  0
  1 12  1  1  0  0  0
  1 13  1  0  0  0  0
  2  3  1  0  0  0  0
  2 10  1  1  0  0  0
  4  3  1  1  0  0  0
  4  5  1  0  0  0  0
  4 14  1  0  0  0  0
  5  6  1  0  0  0  0
  5 13  1  6  0  0  0
  6  7  1  0  0  0  0
  6 15  1  6  0  0  0
  7  8  1  0  0  0  0
  7 11  1  6  0  0  0
  8 14  1  0  0  0  0
  8 16  1  1  0  0  0
  9 11  1  0  0  0  0
 17 16  1  1  0  0  0
 17 18  1  0  0  0  0
 17 24  1  0  0  0  0
 18 19  1  0  0  0  0
 18 25  1  1  0  0  0
 19 20  1  0  0  0  0
 19 26  1  6  0  0  0
 20 21  1  0  0  0  0
 20 23  1  1  0  0  0
 21 22  1  6  0  0  0
 21 24  1  0  0  0  0
 22 27  1  0  0  0  0
 28 12  1  6  0  0  0
 28 29  1  0  0  0  0
 28 33  1  0  0  0  0
 29 30  1  0  0  0  0
 29 36  1  6  0  0  0
 30 31  1  0  0  0  0
 30 37  1  1  0  0  0
 31 32  1  0  0  0  0
 31 34  1  1  0  0  0
 32 33  1  0  0  0  0
 33 35  1  6  0  0  0
M  END
>  <CHROM.1>
-70.33419200,124.06684490,-133.92876713,-166.50418327,-63.02506216,168.01496221
20.84590182,-1.29587402,51.90310580,-1.44301761,-0.61726962,-1.99237496

>  <Name>
2oe5_lig

>  <RI>
0

>  <Rbt.Current_Directory>
/home/itssahil/PROJECTS/Mol_Feturizer/New_Systems/rnas/2oe5

>  <Rbt.Executable>
rbdock ($Id: //depot/dev/client3/rdock/2013.1/src/exe/rbdock.cxx#4 $)

>  <Rbt.Library>
libRbt.so (2013.1, Build901 2013/11/27)

>  <Rbt.Parameter_File>
/export/apps/rDock/src/rDock_2013.1_src/data/scripts/dock_solv.prm

>  <Rbt.Receptor>
prm/pocket_docking_6.prm

>  <SCORE>
-12.1022

>  <SCORE.INTER>
-12.1786

>  <SCORE.INTER.CONST>
1

>  <SCORE.INTER.POLAR>
-1.30592

>  <SCORE.INTER.ROT>
6

>  <SCORE.INTER.SOLV>
10.3544

>  <SCORE.INTER.VDW>
-14.8175

>  <SCORE.INTER.norm>
-0.329153

>  <SCORE.INTRA>
0.0764398

>  <SCORE.INTRA.DIHEDRAL>
-6.59952

>  <SCORE.INTRA.DIHEDRAL.0>
16.2083

>  <SCORE.INTRA.POLAR>
0

>  <SCORE.INTRA.POLAR.0>
0

>  <SCORE.INTRA.REPUL>
0

>  <SCORE.INTRA.REPUL.0>
0

>  <SCORE.INTRA.SOLV>
4.36555

>  <SCORE.INTRA.SOLV.lig_0>
-89.8095

>  <SCORE.INTRA.VDW>
1.19343

>  <SCORE.INTRA.VDW.0>
-3.19502

>  <SCORE.INTRA.norm>
0.00206594

>  <SCORE.RESTR>
0

>  <SCORE.RESTR.CAVITY>
0

>  <SCORE.RESTR.norm>
0

>  <SCORE.SYSTEM>
0

>  <SCORE.SYSTEM.CONST>
0

>  <SCORE.SYSTEM.DIHEDRAL>
0

>  <SCORE.SYSTEM.SOLV>
0

>  <SCORE.SYSTEM.norm>
0

>  <SCORE.heavy>
37

>  <SCORE.norm>
-0.327087

>  <RMSD>
1.676

$$$$
2oe5_lig
 OpenBabel11021811463D
libRbt.so/2013.1/901 2013/11/27
 37 40  0  0  0  0  0  0  0  0999 V2000
   21.0673    2.2186   53.3617 C   0  0  1  0  0  0  0  0  0  0  0  0
   19.6866    2.4196   52.6979 C   0  0  1  0  0  0  0  0  0  0  0  0
   19.1306    1.0257   52.2234 C   0  0  0  0  0  0  0  0  0  0  0  0
   20.1835    0.4827   51.2314 C   0  0  1  0  0  0  0  0  0  0  0  0
   21.6007    0.2865   51.9310 C   0  0  1  0  0  0  0  0  0  0  0  0
   22.6726   -0.2660   50.9523 C   0  0  1  0  0  0  0  0  0  0  0  0
   22.1435   -1.6313   50.4281 C   0  0  1  0  0  0  0  0  0  0  0  0
   20.7235   -1.3997   49.7854 C   0  0  2  0  0  0  0  0  0  0  0  0
   24.4032   -2.8366   49.8767 C   0  0  0  0  0  0  0  0  0  0  0  0
   18.7426    3.0232   53.6664 N   0  0  0  0  0  0  0  0  0  0  0  0
   23.1082   -2.2188   49.4237 N   0  0  0  0  0  0  0  0  0  0  0  0
   20.9826    1.4040   54.5424 O   0  0  0  0  0  0  0  0  0  0  0  0
   22.0340    1.5843   52.4528 O   0  0  0  0  0  0  0  0  0  0  0  0
   19.7548   -0.8120   50.7310 O   0  0  0  0  0  0  0  0  0  0  0  0
   22.8334    0.6830   49.8932 O   0  0  0  0  0  0  0  0  0  0  0  0
   20.1818   -2.6321   49.3530 O   0  0  0  0  0  0  0  0  0  0  0  0
   19.3715   -2.4353   48.2095 C   0  0  2  0  0  0  0  0  0  0  0  0
   18.3192   -3.5316   48.0478 C   0  0  1  0  0  0  0  0  0  0  0  0
   18.9829   -4.9141   47.8000 C   0  0  2  0  0  0  0  0  0  0  0  0
   19.8837   -4.7821   46.5363 C   0  0  1  0  0  0  0  0  0  0  0  0
   20.9527   -3.6745   46.8132 C   0  0  1  0  0  0  0  0  0  0  0  0
   21.8561   -3.4228   45.6267 C   0  0  0  0  0  0  0  0  0  0  0  0
   20.5323   -6.1238   46.2847 N   0  0  0  0  0  0  0  0  0  0  0  0
   20.2412   -2.4098   47.0344 O   0  0  0  0  0  0  0  0  0  0  0  0
   17.5261   -3.5518   49.2512 O   0  0  0  0  0  0  0  0  0  0  0  0
   17.9382   -5.8718   47.5495 O   0  0  0  0  0  0  0  0  0  0  0  0
   22.6314   -4.5307   45.3195 O   0  0  0  0  0  0  0  0  0  0  0  0
   22.2136    1.2769   55.2546 C   0  0  1  0  0  0  0  0  0  0  0  0
   22.5076    2.5978   56.0520 C   0  0  1  0  0  0  0  0  0  0  0  0
   23.8582    2.4288   56.8367 C   0  0  2  0  0  0  0  0  0  0  0  0
   23.7307    1.2560   57.8206 C   0  0  1  0  0  0  0  0  0  0  0  0
   23.4497   -0.0722   57.0172 C   0  0  0  0  0  0  0  0  0  0  0  0
   22.1003    0.1007   56.2150 C   0  0  2  0  0  0  0  0  0  0  0  0
   24.9792    1.1223   58.5530 N   0  0  0  0  0  0  0  0  0  0  0  0
   21.8100   -1.1246   55.4250 N   0  0  0  0  0  0  0  0  0  0  0  0
   22.6287    3.7130   55.1229 O   0  0  0  0  0  0  0  0  0  0  0  0
   24.1154    3.5999   57.5653 O   0  0  0  0  0  0  0  0  0  0  0  0
  1  2  1  0  0  0  0
  1 12  1  1  0  0  0
  1 13  1  0  0  0  0
  2  3  1  0  0  0  0
  2 10  1  1  0  0  0
  4  3  1  1  0  0  0
  4  5  1  0  0  0  0
  4 14  1  0  0  0  0
  5  6  1  0  0  0  0
  5 13  1  6  0  0  0
  6  7  1  0  0  0  0
  6 15  1  6  0  0  0
  7  8  1  0  0  0  0
  7 11  1  6  0  0  0
  8 14  1  0  0  0  0
  8 16  1  1  0  0  0
  9 11  1  0  0  0  0
 17 16  1  1  0  0  0
 17 18  1  0  0  0  0
 17 24  1  0  0  0  0
 18 19  1  0  0  0  0
 18 25  1  1  0  0  0
 19 20  1  0  0  0  0
 19 26  1  6  0  0  0
 20 21  1  0  0  0  0
 20 23  1  1  0  0  0
 21 22  1  6  0  0  0
 21 24  1  0  0  0  0
 22 27  1  0  0  0  0
 28 12  1  1  0  0  0
 28 29  1  0  0  0  0
 28 33  1  0  0  0  0
 29 30  1  0  0  0  0
 29 36  1  6  0  0  0
 30 31  1  0  0  0  0
 30 37  1  1  0  0  0
 31 32  1  0  0  0  0
 31 34  1  6  0  0  0
 32 33  1  0  0  0  0
 33 35  1  6  0  0  0
M  END
>  <CHROM.1>
-175.18387585,74.84993908,-147.99304330,-155.55183236,-64.49642930,75.85186250
21.31778429,-0.79615214,51.49620679,1.32364761,-0.28671485,0.90633870

>  <Name>
2oe5_lig

>  <RI>
0

>  <Rbt.Current_Directory>
/home/itssahil/PROJECTS/Mol_Feturizer/New_Systems/rnas/2oe5

>  <Rbt.Executable>
rbdock ($Id: //depot/dev/client3/rdock/2013.1/src/exe/rbdock.cxx#4 $)

>  <Rbt.Library>
libRbt.so (2013.1, Build901 2013/11/27)

>  <Rbt.Parameter_File>
/export/apps/rDock/src/rDock_2013.1_src/data/scripts/dock_solv.prm

>  <Rbt.Receptor>
prm/pocket_docking_8.prm

>  <SCORE>
-20.6997

>  <SCORE.INTER>
-16.3427

>  <SCORE.INTER.CONST>
1

>  <SCORE.INTER.POLAR>
-1.46

>  <SCORE.INTER.ROT>
6

>  <SCORE.INTER.SOLV>
16.7063

>  <SCORE.INTER.VDW>
-19.1972

>  <SCORE.INTER.norm>
-0.441695

>  <SCORE.INTRA>
-4.35701

>  <SCORE.INTRA.DIHEDRAL>
-8.06855

>  <SCORE.INTRA.DIHEDRAL.0>
16.2083

>  <SCORE.INTRA.POLAR>
0

>  <SCORE.INTRA.POLAR.0>
0

>  <SCORE.INTRA.REPUL>
0

>  <SCORE.INTRA.REPUL.0>
0

>  <SCORE.INTRA.SOLV>
-1.16902

>  <SCORE.INTRA.SOLV.lig_0>
-89.8095

>  <SCORE.INTRA.VDW>
0.261767

>  <SCORE.INTRA.VDW.0>
-3.19502

>  <SCORE.INTRA.norm>
-0.117757

>  <SCORE.RESTR>
0

>  <SCORE.RESTR.CAVITY>
0

>  <SCORE.RESTR.norm>
0

>  <SCORE.SYSTEM>
0

>  <SCORE.SYSTEM.CONST>
0

>  <SCORE.SYSTEM.DIHEDRAL>
0

>  <SCORE.SYSTEM.SOLV>
0

>  <SCORE.SYSTEM.norm>
0

>  <SCORE.heavy>
37

>  <SCORE.norm>
-0.559452

>  <RMSD>
1.683

$$$$
2oe5_lig
 OpenBabel11021811463D
libRbt.so/2013.1/901 2013/11/27
 37 40  0  0  0  0  0  0  0  0999 V2000
   20.4799    0.8443   54.2390 C   0  0  1  0  0  0  0  0  0  0  0  0
   19.4644    1.3692   53.1995 C   0  0  1  0  0  0  0  0  0  0  0  0
   19.0120    0.1823   52.2701 C   0  0  0  0  0  0  0  0  0  0  0  0
   20.3094   -0.3368   51.6107 C   0  0  1  0  0  0  0  0  0  0  0  0
   21.3458   -0.8689   52.6965 C   0  0  1  0  0  0  0  0  0  0  0  0
   22.6550   -1.4024   52.0536 C   0  0  1  0  0  0  0  0  0  0  0  0
   22.2484   -2.5571   51.0944 C   0  0  1  0  0  0  0  0  0  0  0  0
   21.1912   -2.0000   50.0672 C   0  0  2  0  0  0  0  0  0  0  0  0
   24.5310   -3.8414   51.1471 C   0  0  0  0  0  0  0  0  0  0  0  0
   18.2814    1.9343   53.8884 N   0  0  0  0  0  0  0  0  0  0  0  0
   23.4651   -3.1036   50.3834 N   0  0  0  0  0  0  0  0  0  0  0  0
   19.8980   -0.1398   55.1095 O   0  0  0  0  0  0  0  0  0  0  0  0
   21.6592    0.2354   53.6057 O   0  0  0  0  0  0  0  0  0  0  0  0
   19.9925   -1.4425   50.7232 O   0  0  0  0  0  0  0  0  0  0  0  0
   23.2733   -0.3204   51.3498 O   0  0  0  0  0  0  0  0  0  0  0  0
   20.7496   -3.0395   49.2164 O   0  0  0  0  0  0  0  0  0  0  0  0
   19.9205   -2.5163   48.1958 C   0  0  2  0  0  0  0  0  0  0  0  0
   18.6097   -3.2901   48.0589 C   0  0  1  0  0  0  0  0  0  0  0  0
   18.8674   -4.7560   47.6141 C   0  0  2  0  0  0  0  0  0  0  0  0
   19.6564   -4.7070   46.2721 C   0  0  1  0  0  0  0  0  0  0  0  0
   20.9963   -3.9399   46.5220 C   0  0  1  0  0  0  0  0  0  0  0  0
   21.8257   -3.7854   45.2667 C   0  0  0  0  0  0  0  0  0  0  0  0
   19.9099   -6.1295   45.8289 N   0  0  0  0  0  0  0  0  0  0  0  0
   20.6597   -2.5723   46.9355 O   0  0  0  0  0  0  0  0  0  0  0  0
   17.9480   -3.2514   49.3388 O   0  0  0  0  0  0  0  0  0  0  0  0
   17.5922   -5.3880   47.4008 O   0  0  0  0  0  0  0  0  0  0  0  0
   21.1411   -3.1038   44.2721 O   0  0  0  0  0  0  0  0  0  0  0  0
   20.5100   -0.2164   56.3972 C   0  0  1  0  0  0  0  0  0  0  0  0
   22.0654   -0.3687   56.2406 C   0  0  1  0  0  0  0  0  0  0  0  0
   22.7167   -0.4374   57.6687 C   0  0  2  0  0  0  0  0  0  0  0  0
   22.4048    0.8586   58.4321 C   0  0  1  0  0  0  0  0  0  0  0  0
   20.8431    1.0030   58.6011 C   0  0  0  0  0  0  0  0  0  0  0  0
   20.1843    1.0566   57.1667 C   0  0  2  0  0  0  0  0  0  0  0  0
   23.0282    0.7904   59.7435 N   0  0  0  0  0  0  0  0  0  0  0  0
   18.7066    1.1705   57.2824 N   0  0  0  0  0  0  0  0  0  0  0  0
   22.3659   -1.5963   55.5165 O   0  0  0  0  0  0  0  0  0  0  0  0
   24.1082   -0.5549   57.5335 O   0  0  0  0  0  0  0  0  0  0  0  0
  1  2  1  0  0  0  0
  1 12  1  6  0  0  0
  1 13  1  0  0  0  0
  2  3  1  0  0  0  0
  2 10  1  1  0  0  0
  4  3  1  1  0  0  0
  4  5  1  0  0  0  0
  4 14  1  0  0  0  0
  5  6  1  0  0  0  0
  5 13  1  1  0  0  0
  6  7  1  0  0  0  0
  6 15  1  6  0  0  0
  7  8  1  0  0  0  0
  7 11  1  6  0  0  0
  8 14  1  0  0  0  0
  8 16  1  6  0  0  0
  9 11  1  0  0  0  0
 17 16  1  1  0  0  0
 17 18  1  0  0  0  0
 17 24  1  0  0  0  0
 18 19  1  0  0  0  0
 18 25  1  1  0  0  0
 19 20  1  0  0  0  0
 19 26  1  6  0  0  0
 20 21  1  0  0  0  0
 20 23  1  1  0  0  0
 21 22  1  6  0  0  0
 21 24  1  0  0  0  0
 22 27  1  0  0  0  0
 28 12  1  6  0  0  0
 28 29  1  0  0  0  0
 28 33  1  0  0  0  0
 29 30  1  0  0  0  0
 29 36  1  6  0  0  0
 30 31  1  0  0  0  0
 30 37  1  6  0  0  0
 31 32  1  0  0  0  0
 31 34  1  1  0  0  0
 32 33  1  0  0  0  0
 33 35  1  1  0  0  0
M  END
>  <CHROM.1>
-152.95279299,67.30902326,-173.23295872,-130.41324181,58.89510582,-51.50334810
20.89001733,-1.54573958,51.92164907,1.44761757,-0.28207478,1.12796552

>  <Name>
2oe5_lig

>  <RI>
0

>  <Rbt.Current_Directory>
/home/itssahil/PROJECTS/Mol_Feturizer/New_Systems/rnas/2oe5

>  <Rbt.Executable>
rbdock ($Id: //depot/dev/client3/rdock/2013.1/src/exe/rbdock.cxx#4 $)

>  <Rbt.Library>
libRbt.so (2013.1, Build901 2013/11/27)

>  <Rbt.Parameter_File>
/export/apps/rDock/src/rDock_2013.1_src/data/scripts/dock_solv.prm

>  <Rbt.Receptor>
prm/pocket_docking_5.prm

>  <SCORE>
-19.2726

>  <SCORE.INTER>
-18.0021

>  <SCORE.INTER.CONST>
1

>  <SCORE.INTER.POLAR>
-1.79768

>  <SCORE.INTER.ROT>
6

>  <SCORE.INTER.SOLV>
18.05

>  <SCORE.INTER.VDW>
-19.6258

>  <SCORE.INTER.norm>
-0.486542

>  <SCORE.INTRA>
-1.27054

>  <SCORE.INTRA.DIHEDRAL>
-5.81435

>  <SCORE.INTRA.DIHEDRAL.0>
16.2083

>  <SCORE.INTRA.POLAR>
0

>  <SCORE.INTRA.POLAR.0>
0

>  <SCORE.INTRA.REPUL>
0

>  <SCORE.INTRA.REPUL.0>
0

>  <SCORE.INTRA.SOLV>
-0.203625

>  <SCORE.INTRA.SOLV.lig_0>
-89.8095

>  <SCORE.INTRA.VDW>
1.73845

>  <SCORE.INTRA.VDW.0>
-3.19502

>  <SCORE.INTRA.norm>
-0.0343389

>  <SCORE.RESTR>
0

>  <SCORE.RESTR.CAVITY>
0

>  <SCORE.RESTR.norm>
0

>  <SCORE.SYSTEM>
0

>  <SCORE.SYSTEM.CONST>
0

>  <SCORE.SYSTEM.DIHEDRAL>
0

>  <SCORE.SYSTEM.SOLV>
0

>  <SCORE.SYSTEM.norm>
0

>  <SCORE.heavy>
37

>  <SCORE.norm>
-0.520881

>  <RMSD>
1.696

$$$$
2oe5_lig
 OpenBabel11021811463D
libRbt.so/2013.1/901 2013/11/27
 37 40  0  0  0  0  0  0  0  0999 V2000
   20.4593    1.2640   54.0967 C   0  0  1  0  0  0  0  0  0  0  0  0
   19.8144    1.9951   52.8980 C   0  0  1  0  0  0  0  0  0  0  0  0
   18.7849    1.0336   52.1960 C   0  0  0  0  0  0  0  0  0  0  0  0
   19.6101   -0.1965   51.7562 C   0  0  1  0  0  0  0  0  0  0  0  0
   20.2711   -0.9344   53.0031 C   0  0  1  0  0  0  0  0  0  0  0  0
   21.0998   -2.1791   52.5833 C   0  0  1  0  0  0  0  0  0  0  0  0
   20.1249   -3.1431   51.8491 C   0  0  1  0  0  0  0  0  0  0  0  0
   19.4610   -2.3613   50.6528 C   0  0  2  0  0  0  0  0  0  0  0  0
   20.1163   -5.6214   51.0004 C   0  0  0  0  0  0  0  0  0  0  0  0
   19.1121    3.2122   53.3661 N   0  0  0  0  0  0  0  0  0  0  0  0
   20.8648   -4.3663   51.3583 N   0  0  0  0  0  0  0  0  0  0  0  0
   19.4908    0.9203   55.1011 O   0  0  0  0  0  0  0  0  0  0  0  0
   21.1382    0.0240   53.6915 O   0  0  0  0  0  0  0  0  0  0  0  0
   18.7401   -1.1497   51.0890 O   0  0  0  0  0  0  0  0  0  0  0  0
   22.1557   -1.7365   51.7247 O   0  0  0  0  0  0  0  0  0  0  0  0
   18.5190   -3.1883   49.9985 O   0  0  0  0  0  0  0  0  0  0  0  0
   18.4252   -2.8349   48.6312 C   0  0  2  0  0  0  0  0  0  0  0  0
   17.6110   -3.8459   47.8248 C   0  0  1  0  0  0  0  0  0  0  0  0
   18.3049   -5.2355   47.8031 C   0  0  2  0  0  0  0  0  0  0  0  0
   19.7331   -5.0374   47.2143 C   0  0  1  0  0  0  0  0  0  0  0  0
   20.5014   -4.0272   48.1283 C   0  0  1  0  0  0  0  0  0  0  0  0
   21.8917   -3.7177   47.6196 C   0  0  0  0  0  0  0  0  0  0  0  0
   20.4162   -6.3852   47.1861 N   0  0  0  0  0  0  0  0  0  0  0  0
   19.7805   -2.7493   48.0893 O   0  0  0  0  0  0  0  0  0  0  0  0
   16.3062   -3.9336   48.4310 O   0  0  0  0  0  0  0  0  0  0  0  0
   17.5437   -6.1007   46.9410 O   0  0  0  0  0  0  0  0  0  0  0  0
   22.7078   -4.8388   47.6228 O   0  0  0  0  0  0  0  0  0  0  0  0
   19.9731    1.0306   56.4405 C   0  0  1  0  0  0  0  0  0  0  0  0
   18.8435    1.6041   57.3689 C   0  0  1  0  0  0  0  0  0  0  0  0
   19.3930    1.7036   58.8374 C   0  0  2  0  0  0  0  0  0  0  0  0
   19.7936    0.3033   59.3258 C   0  0  1  0  0  0  0  0  0  0  0  0
   20.9381   -0.2654   58.4011 C   0  0  0  0  0  0  0  0  0  0  0  0
   20.3933   -0.3518   56.9212 C   0  0  2  0  0  0  0  0  0  0  0  0
   20.2822    0.4063   60.6909 N   0  0  0  0  0  0  0  0  0  0  0  0
   21.4517   -0.8639   56.0116 N   0  0  0  0  0  0  0  0  0  0  0  0
   18.4600    2.9319   56.9090 O   0  0  0  0  0  0  0  0  0  0  0  0
   18.3810    2.1982   59.6737 O   0  0  0  0  0  0  0  0  0  0  0  0
  1  2  1  0  0  0  0
  1 12  1  1  0  0  0
  1 13  1  0  0  0  0
  2  3  1  0  0  0  0
  2 10  1  1  0  0  0
  4  3  1  1  0  0  0
  4  5  1  0  0  0  0
  4 14  1  0  0  0  0
  5  6  1  0  0  0  0
  5 13  1  6  0  0  0
  6  7  1  0  0  0  0
  6 15  1  6  0  0  0
  7  8  1  0  0  0  0
  7 11  1  6  0  0  0
  8 14  1  0  0  0  0
  8 16  1  1  0  0  0
  9 11  1  0  0  0  0
 17 16  1  1  0  0  0
 17 18  1  0  0  0  0
 17 24  1  0  0  0  0
 18 19  1  0  0  0  0
 18 25  1  1  0  0  0
 19 20  1  0  0  0  0
 19 26  1  6  0  0  0
 20 21  1  0  0  0  0
 20 23  1  1  0  0  0
 21 22  1  6  0  0  0
 21 24  1  0  0  0  0
 22 27  1  0  0  0  0
 28 12  1  6  0  0  0
 28 29  1  0  0  0  0
 28 33  1  0  0  0  0
 29 30  1  0  0  0  0
 29 36  1  6  0  0  0
 30 31  1  0  0  0  0
 30 37  1  1  0  0  0
 31 32  1  0  0  0  0
 31 34  1  1  0  0  0
 32 33  1  0  0  0  0
 33 35  1  6  0  0  0
M  END
>  <CHROM.1>
-143.37096176,161.23163351,-150.44200278,169.97682270,-63.83718664,141.49107208
19.74299740,-1.54342857,52.45877976,1.54646391,-0.85098449,1.00434356

>  <Name>
2oe5_lig

>  <RI>
0

>  <Rbt.Current_Directory>
/home/itssahil/PROJECTS/Mol_Feturizer/New_Systems/rnas/2oe5

>  <Rbt.Executable>
rbdock ($Id: //depot/dev/client3/rdock/2013.1/src/exe/rbdock.cxx#4 $)

>  <Rbt.Library>
libRbt.so (2013.1, Build901 2013/11/27)

>  <Rbt.Parameter_File>
/export/apps/rDock/src/rDock_2013.1_src/data/scripts/dock_solv.prm

>  <Rbt.Receptor>
prm/pocket_docking_3.prm

>  <SCORE>
-18.7038

>  <SCORE.INTER>
-19.3208

>  <SCORE.INTER.CONST>
1

>  <SCORE.INTER.POLAR>
-1.3397

>  <SCORE.INTER.ROT>
6

>  <SCORE.INTER.SOLV>
14.391

>  <SCORE.INTER.VDW>
-20.8118

>  <SCORE.INTER.norm>
-0.522183

>  <SCORE.INTRA>
0.592626

>  <SCORE.INTRA.DIHEDRAL>
-1.90121

>  <SCORE.INTRA.DIHEDRAL.0>
16.2083

>  <SCORE.INTRA.POLAR>
0

>  <SCORE.INTRA.POLAR.0>
0

>  <SCORE.INTRA.REPUL>
0

>  <SCORE.INTRA.REPUL.0>
0

>  <SCORE.INTRA.SOLV>
2.71246

>  <SCORE.INTRA.SOLV.lig_0>
-89.8095

>  <SCORE.INTRA.VDW>
0.187

>  <SCORE.INTRA.VDW.0>
-3.19502

>  <SCORE.INTRA.norm>
0.0160169

>  <SCORE.RESTR>
0.0243969

>  <SCORE.RESTR.CAVITY>
0.0243969

>  <SCORE.RESTR.norm>
0.000659376

>  <SCORE.SYSTEM>
0

>  <SCORE.SYSTEM.CONST>
0

>  <SCORE.SYSTEM.DIHEDRAL>
0

>  <SCORE.SYSTEM.SOLV>
0

>  <SCORE.SYSTEM.norm>
0

>  <SCORE.heavy>
37

>  <SCORE.norm>
-0.505507

>  <RMSD>
1.718

$$$$
2oe5_lig
 OpenBabel11021811463D
libRbt.so/2013.1/901 2013/11/27
 37 40  0  0  0  0  0  0  0  0999 V2000
   20.5776    2.2088   54.3007 C   0  0  1  0  0  0  0  0  0  0  0  0
   19.5608    2.6020   53.2059 C   0  0  1  0  0  0  0  0  0  0  0  0
   18.8145    1.3110   52.7024 C   0  0  0  0  0  0  0  0  0  0  0  0
   19.9251    0.3819   52.1632 C   0  0  1  0  0  0  0  0  0  0  0  0
   20.9663   -0.0089   53.3032 C   0  0  1  0  0  0  0  0  0  0  0  0
   22.0879   -0.9491   52.7835 C   0  0  1  0  0  0  0  0  0  0  0  0
   21.3887   -2.2273   52.2394 C   0  0  1  0  0  0  0  0  0  0  0  0
   20.3378   -1.7923   51.1488 C   0  0  2  0  0  0  0  0  0  0  0  0
   23.3968   -3.8788   52.5600 C   0  0  0  0  0  0  0  0  0  0  0  0
   18.5732    3.5603   53.7533 N   0  0  0  0  0  0  0  0  0  0  0  0
   22.4101   -3.1811   51.6636 N   0  0  0  0  0  0  0  0  0  0  0  0
   19.9334    1.6484   55.4565 O   0  0  0  0  0  0  0  0  0  0  0  0
   21.5602    1.2260   53.8196 O   0  0  0  0  0  0  0  0  0  0  0  0
   19.3300   -0.8475   51.6681 O   0  0  0  0  0  0  0  0  0  0  0  0
   22.8024   -0.2564   51.7550 O   0  0  0  0  0  0  0  0  0  0  0  0
   19.6358   -2.9246   50.6752 O   0  0  0  0  0  0  0  0  0  0  0  0
   19.6445   -2.9481   49.2601 C   0  0  2  0  0  0  0  0  0  0  0  0
   18.7003   -4.0065   48.6912 C   0  0  1  0  0  0  0  0  0  0  0  0
   19.1556   -5.4371   49.0898 C   0  0  2  0  0  0  0  0  0  0  0  0
   20.6147   -5.6244   48.5781 C   0  0  1  0  0  0  0  0  0  0  0  0
   21.5102   -4.5305   49.2473 C   0  0  1  0  0  0  0  0  0  0  0  0
   22.9478   -4.5845   48.7805 C   0  0  0  0  0  0  0  0  0  0  0  0
   21.0665   -7.0155   48.9587 N   0  0  0  0  0  0  0  0  0  0  0  0
   21.0116   -3.2185   48.8178 O   0  0  0  0  0  0  0  0  0  0  0  0
   17.3805   -3.7280   49.1996 O   0  0  0  0  0  0  0  0  0  0  0  0
   18.2895   -6.3801   48.4327 O   0  0  0  0  0  0  0  0  0  0  0  0
   23.7082   -3.5580   49.3198 O   0  0  0  0  0  0  0  0  0  0  0  0
   20.8105    1.4131   56.5583 C   0  0  1  0  0  0  0  0  0  0  0  0
   20.9391    2.7162   57.4257 C   0  0  1  0  0  0  0  0  0  0  0  0
   21.8971    2.4288   58.6374 C   0  0  2  0  0  0  0  0  0  0  0  0
   21.3061    1.3001   59.4956 C   0  0  1  0  0  0  0  0  0  0  0  0
   21.1910   -0.0116   58.6271 C   0  0  0  0  0  0  0  0  0  0  0  0
   20.2406    0.2791   57.3997 C   0  0  2  0  0  0  0  0  0  0  0  0
   22.1916    1.0571   60.6225 N   0  0  0  0  0  0  0  0  0  0  0  0
   20.1230   -0.9292   56.5417 N   0  0  0  0  0  0  0  0  0  0  0  0
   21.4985    3.7896   56.6156 O   0  0  0  0  0  0  0  0  0  0  0  0
   22.0001    3.5850   59.4253 O   0  0  0  0  0  0  0  0  0  0  0  0
  1  2  1  0  0  0  0
  1 12  1  1  0  0  0
  1 13  1  0  0  0  0
  2  3  1  0  0  0  0
  2 10  1  1  0  0  0
  4  3  1  1  0  0  0
  4  5  1  0  0  0  0
  4 14  1  0  0  0  0
  5  6  1  0  0  0  0
  5 13  1  6  0  0  0
  6  7  1  0  0  0  0
  6 15  1  6  0  0  0
  7  8  1  0  0  0  0
  7 11  1  6  0  0  0
  8 14  1  0  0  0  0
  8 16  1  1  0  0  0
  9 11  1  0  0  0  0
 17 16  1  1  0  0  0
 17 18  1  0  0  0  0
 17 24  1  0  0  0  0
 18 19  1  0  0  0  0
 18 25  1  1  0  0  0
 19 20  1  0  0  0  0
 19 26  1  6  0  0  0
 20 21  1  0  0  0  0
 20 23  1  1  0  0  0
 21 22  1  6  0  0  0
 21 24  1  0  0  0  0
 22 27  1  0  0  0  0
 28 12  1  6  0  0  0
 28 29  1  0  0  0  0
 28 33  1  0  0  0  0
 29 30  1  0  0  0  0
 29 36  1  6  0  0  0
 30 31  1  0  0  0  0
 30 37  1  1  0  0  0
 31 32  1  0  0  0  0
 31 34  1  1  0  0  0
 32 33  1  0  0  0  0
 33 35  1  6  0  0  0
M  END
>  <CHROM.1>
-173.04177164,68.23630627,-129.86124944,-169.98504880,176.28665500,86.31553713
20.75091378,-1.05054221,53.01606972,1.48136337,-0.78048713,0.83821341

>  <Name>
2oe5_lig

>  <RI>
0

>  <Rbt.Current_Directory>
/home/itssahil/PROJECTS/Mol_Feturizer/New_Systems/rnas/2oe5

>  <Rbt.Executable>
rbdock ($Id: //depot/dev/client3/rdock/2013.1/src/exe/rbdock.cxx#4 $)

>  <Rbt.Library>
libRbt.so (2013.1, Build901 2013/11/27)

>  <Rbt.Parameter_File>
/export/apps/rDock/src/rDock_2013.1_src/data/scripts/dock_solv.prm

>  <Rbt.Receptor>
prm/pocket_docking_3.prm

>  <SCORE>
-14.2434

>  <SCORE.INTER>
-10.8878

>  <SCORE.INTER.CONST>
1

>  <SCORE.INTER.POLAR>
-1.35066

>  <SCORE.INTER.ROT>
6

>  <SCORE.INTER.SOLV>
13.8505

>  <SCORE.INTER.VDW>
-14.9732

>  <SCORE.INTER.norm>
-0.294264

>  <SCORE.INTRA>
-3.35562

>  <SCORE.INTRA.DIHEDRAL>
-5.69959

>  <SCORE.INTRA.DIHEDRAL.0>
16.2083

>  <SCORE.INTRA.POLAR>
0

>  <SCORE.INTRA.POLAR.0>
0

>  <SCORE.INTRA.REPUL>
0

>  <SCORE.INTRA.REPUL.0>
0

>  <SCORE.INTRA.SOLV>
0.285685

>  <SCORE.INTRA.SOLV.lig_0>
-89.8095

>  <SCORE.INTRA.VDW>
-0.648666

>  <SCORE.INTRA.VDW.0>
-3.19502

>  <SCORE.INTRA.norm>
-0.0906924

>  <SCORE.RESTR>
0

>  <SCORE.RESTR.CAVITY>
0

>  <SCORE.RESTR.norm>
0

>  <SCORE.SYSTEM>
0

>  <SCORE.SYSTEM.CONST>
0

>  <SCORE.SYSTEM.DIHEDRAL>
0

>  <SCORE.SYSTEM.SOLV>
0

>  <SCORE.SYSTEM.norm>
0

>  <SCORE.heavy>
37

>  <SCORE.norm>
-0.384956

>  <RMSD>
1.738

$$$$
2oe5_lig
 OpenBabel11021811463D
libRbt.so/2013.1/901 2013/11/27
 37 40  0  0  0  0  0  0  0  0999 V2000
   20.9915    1.9701   53.3827 C   0  0  1  0  0  0  0  0  0  0  0  0
   19.6299    2.1442   52.6736 C   0  0  1  0  0  0  0  0  0  0  0  0
   19.1863    0.7665   52.0553 C   0  0  0  0  0  0  0  0  0  0  0  0
   20.3132    0.3791   51.0717 C   0  0  1  0  0  0  0  0  0  0  0  0
   21.7094    0.2087   51.8186 C   0  0  1  0  0  0  0  0  0  0  0  0
   22.8553   -0.1882   50.8483 C   0  0  1  0  0  0  0  0  0  0  0  0
   22.4388   -1.5314   50.1842 C   0  0  1  0  0  0  0  0  0  0  0  0
   21.0351   -1.3311   49.4968 C   0  0  2  0  0  0  0  0  0  0  0  0
   23.6632   -1.2152   47.8899 C   0  0  0  0  0  0  0  0  0  0  0  0
   18.6086    2.6006   53.6442 N   0  0  0  0  0  0  0  0  0  0  0  0
   23.4812   -1.9674   49.1802 N   0  0  0  0  0  0  0  0  0  0  0  0
   20.9104    1.0503   54.4839 O   0  0  0  0  0  0  0  0  0  0  0  0
   22.0348    1.4792   52.4699 O   0  0  0  0  0  0  0  0  0  0  0  0
   19.9912   -0.8900   50.4421 O   0  0  0  0  0  0  0  0  0  0  0  0
   22.9984    0.8590   49.8834 O   0  0  0  0  0  0  0  0  0  0  0  0
   20.5935   -2.5512   48.9350 O   0  0  0  0  0  0  0  0  0  0  0  0
   19.2999   -2.3948   48.3825 C   0  0  2  0  0  0  0  0  0  0  0  0
   18.3149   -3.4397   48.9056 C   0  0  1  0  0  0  0  0  0  0  0  0
   18.7336   -4.8716   48.4727 C   0  0  2  0  0  0  0  0  0  0  0  0
   18.8232   -4.8841   46.9178 C   0  0  1  0  0  0  0  0  0  0  0  0
   19.8837   -3.8203   46.4820 C   0  0  1  0  0  0  0  0  0  0  0  0
   20.0176   -3.7081   44.9797 C   0  0  0  0  0  0  0  0  0  0  0  0
   19.2274   -6.2748   46.4859 N   0  0  0  0  0  0  0  0  0  0  0  0
   19.4095   -2.5051   46.9287 O   0  0  0  0  0  0  0  0  0  0  0  0
   18.2853   -3.3263   50.3422 O   0  0  0  0  0  0  0  0  0  0  0  0
   17.7089   -5.7854   48.9039 O   0  0  0  0  0  0  0  0  0  0  0  0
   20.2496   -2.4025   44.5746 O   0  0  0  0  0  0  0  0  0  0  0  0
   22.0873    0.9987   55.2905 C   0  0  1  0  0  0  0  0  0  0  0  0
   22.1753    2.2840   56.1890 C   0  0  1  0  0  0  0  0  0  0  0  0
   23.4694    2.1979   57.0756 C   0  0  2  0  0  0  0  0  0  0  0  0
   23.3893    0.9528   57.9718 C   0  0  1  0  0  0  0  0  0  0  0  0
   23.3155   -0.3380   57.0681 C   0  0  0  0  0  0  0  0  0  0  0  0
   22.0234   -0.2466   56.1644 C   0  0  2  0  0  0  0  0  0  0  0  0
   24.5827    0.8950   58.7997 N   0  0  0  0  0  0  0  0  0  0  0  0
   21.9286   -1.4373   55.2793 N   0  0  0  0  0  0  0  0  0  0  0  0
   22.2508    3.4675   55.3433 O   0  0  0  0  0  0  0  0  0  0  0  0
   23.5422    3.3356   57.8933 O   0  0  0  0  0  0  0  0  0  0  0  0
  1  2  1  0  0  0  0
  1 12  1  1  0  0  0
  1 13  1  0  0  0  0
  2  3  1  0  0  0  0
  2 10  1  1  0  0  0
  4  3  1  1  0  0  0
  4  5  1  0  0  0  0
  4 14  1  0  0  0  0
  5  6  1  0  0  0  0
  5 13  1  6  0  0  0
  6  7  1  0  0  0  0
  6 15  1  6  0  0  0
  7  8  1  0  0  0  0
  7 11  1  6  0  0  0
  8 14  1  0  0  0  0
  8 16  1  1  0  0  0
  9 11  1  0  0  0  0
 17 16  1  1  0  0  0
 17 18  1  0  0  0  0
 17 24  1  0  0  0  0
 18 19  1  0  0  0  0
 18 25  1  1  0  0  0
 19 20  1  0  0  0  0
 19 26  1  6  0  0  0
 20 21  1  0  0  0  0
 20 23  1  1  0  0  0
 21 22  1  6  0  0  0
 21 24  1  0  0  0  0
 22 27  1  0  0  0  0
 28 12  1  1  0  0  0
 28 29  1  0  0  0  0
 28 33  1  0  0  0  0
 29 30  1  0  0  0  0
 29 36  1  6  0  0  0
 30 31  1  0  0  0  0
 30 37  1  1  0  0  0
 31 32  1  0  0  0  0
 31 34  1  1  0  0  0
 32 33  1  0  0  0  0
 33 35  1  6  0  0  0
M  END
>  <CHROM.1>
-171.43812053,-70.06704195,176.71010258,-127.13810702,143.84433076,74.61041196
21.05102543,-0.79671192,51.49565112,-1.12518039,-0.88322591,-1.75039419

>  <Name>
2oe5_lig

>  <RI>
0

>  <Rbt.Current_Directory>
/home/itssahil/PROJECTS/Mol_Feturizer/New_Systems/rnas/2oe5

>  <Rbt.Executable>
rbdock ($Id: //depot/dev/client3/rdock/2013.1/src/exe/rbdock.cxx#4 $)

>  <Rbt.Library>
libRbt.so (2013.1, Build901 2013/11/27)

>  <Rbt.Parameter_File>
/export/apps/rDock/src/rDock_2013.1_src/data/scripts/dock_solv.prm

>  <Rbt.Receptor>
prm/pocket_docking_7.prm

>  <SCORE>
-15.484

>  <SCORE.INTER>
-14.6436

>  <SCORE.INTER.CONST>
1

>  <SCORE.INTER.POLAR>
-1.52265

>  <SCORE.INTER.ROT>
6

>  <SCORE.INTER.SOLV>
16.801

>  <SCORE.INTER.VDW>
-17.8872

>  <SCORE.INTER.norm>
-0.395772

>  <SCORE.INTRA>
-0.840393

>  <SCORE.INTRA.DIHEDRAL>
-4.21217

>  <SCORE.INTRA.DIHEDRAL.0>
16.2083

>  <SCORE.INTRA.POLAR>
0

>  <SCORE.INTRA.POLAR.0>
0

>  <SCORE.INTRA.REPUL>
0

>  <SCORE.INTRA.REPUL.0>
0

>  <SCORE.INTRA.SOLV>
-2.33831

>  <SCORE.INTRA.SOLV.lig_0>
-89.8095

>  <SCORE.INTRA.VDW>
2.43485

>  <SCORE.INTRA.VDW.0>
-3.19502

>  <SCORE.INTRA.norm>
-0.0227133

>  <SCORE.RESTR>
0

>  <SCORE.RESTR.CAVITY>
0

>  <SCORE.RESTR.norm>
0

>  <SCORE.SYSTEM>
0

>  <SCORE.SYSTEM.CONST>
0

>  <SCORE.SYSTEM.DIHEDRAL>
0

>  <SCORE.SYSTEM.SOLV>
0

>  <SCORE.SYSTEM.norm>
0

>  <SCORE.heavy>
37

>  <SCORE.norm>
-0.418485

>  <RMSD>
1.738

$$$$
2oe5_lig
 OpenBabel11021811463D
libRbt.so/2013.1/901 2013/11/27
 37 40  0  0  0  0  0  0  0  0999 V2000
   20.2833    1.7983   54.3526 C   0  0  1  0  0  0  0  0  0  0  0  0
   19.6245    2.3813   53.0824 C   0  0  1  0  0  0  0  0  0  0  0  0
   18.8091    1.2492   52.3539 C   0  0  0  0  0  0  0  0  0  0  0  0
   19.8430    0.1491   52.0247 C   0  0  1  0  0  0  0  0  0  0  0  0
   20.5151   -0.4365   53.3445 C   0  0  1  0  0  0  0  0  0  0  0  0
   21.5532   -1.5498   53.0362 C   0  0  1  0  0  0  0  0  0  0  0  0
   20.7944   -2.6768   52.2794 C   0  0  1  0  0  0  0  0  0  0  0  0
   20.1090   -2.0467   51.0080 C   0  0  2  0  0  0  0  0  0  0  0  0
   22.8581   -3.5319   50.9109 C   0  0  0  0  0  0  0  0  0  0  0  0
   18.7116    3.4885   53.4486 N   0  0  0  0  0  0  0  0  0  0  0  0
   21.7470   -3.7850   51.8934 N   0  0  0  0  0  0  0  0  0  0  0  0
   19.3071    1.3403   55.3026 O   0  0  0  0  0  0  0  0  0  0  0  0
   21.1720    0.6667   54.0485 O   0  0  0  0  0  0  0  0  0  0  0  0
   19.1810   -0.9488   51.3415 O   0  0  0  0  0  0  0  0  0  0  0  0
   22.5896   -0.9759   52.2332 O   0  0  0  0  0  0  0  0  0  0  0  0
   19.3557   -3.0308   50.3273 O   0  0  0  0  0  0  0  0  0  0  0  0
   18.9325   -2.5387   49.0697 C   0  0  2  0  0  0  0  0  0  0  0  0
   18.2576   -3.6163   48.2218 C   0  0  1  0  0  0  0  0  0  0  0  0
   19.2541   -4.7520   47.8607 C   0  0  2  0  0  0  0  0  0  0  0  0
   20.4597   -4.1003   47.1207 C   0  0  1  0  0  0  0  0  0  0  0  0
   21.1105   -3.0500   48.0797 C   0  0  1  0  0  0  0  0  0  0  0  0
   22.2674   -2.3129   47.4426 C   0  0  0  0  0  0  0  0  0  0  0  0
   21.4346   -5.1981   46.7622 N   0  0  0  0  0  0  0  0  0  0  0  0
   20.1046   -2.0202   48.3660 O   0  0  0  0  0  0  0  0  0  0  0  0
   17.1458   -4.1317   48.9807 O   0  0  0  0  0  0  0  0  0  0  0  0
   18.5842   -5.6687   46.9766 O   0  0  0  0  0  0  0  0  0  0  0  0
   22.9491   -1.5254   48.3579 O   0  0  0  0  0  0  0  0  0  0  0  0
   19.7619    1.3438   56.6560 C   0  0  1  0  0  0  0  0  0  0  0  0
   18.6534    1.9490   57.5898 C   0  0  1  0  0  0  0  0  0  0  0  0
   19.1711    1.9299   59.0731 C   0  0  2  0  0  0  0  0  0  0  0  0
   19.4567    0.4801   59.4927 C   0  0  1  0  0  0  0  0  0  0  0  0
   20.5802   -0.1216   58.5633 C   0  0  0  0  0  0  0  0  0  0  0  0
   20.0685   -0.0893   57.0694 C   0  0  2  0  0  0  0  0  0  0  0  0
   19.9165    0.4745   60.8717 N   0  0  0  0  0  0  0  0  0  0  0  0
   21.1100   -0.6291   56.1563 N   0  0  0  0  0  0  0  0  0  0  0  0
   18.3788    3.3239   57.1950 O   0  0  0  0  0  0  0  0  0  0  0  0
   18.1765    2.4528   59.9131 O   0  0  0  0  0  0  0  0  0  0  0  0
  1  2  1  0  0  0  0
  1 12  1  1  0  0  0
  1 13  1  0  0  0  0
  2  3  1  0  0  0  0
  2 10  1  1  0  0  0
  4  3  1  1  0  0  0
  4  5  1  0  0  0  0
  4 14  1  0  0  0  0
  5  6  1  0  0  0  0
  5 13  1  6  0  0  0
  6  7  1  0  0  0  0
  6 15  1  6  0  0  0
  7  8  1  0  0  0  0
  7 11  1  6  0  0  0
  8 14  1  0  0  0  0
  8 16  1  1  0  0  0
  9 11  1  0  0  0  0
 17 16  1  1  0  0  0
 17 18  1  0  0  0  0
 17 24  1  0  0  0  0
 18 19  1  0  0  0  0
 18 25  1  1  0  0  0
 19 20  1  0  0  0  0
 19 26  1  6  0  0  0
 20 21  1  0  0  0  0
 20 23  1  1  0  0  0
 21 22  1  6  0  0  0
 21 24  1  0  0  0  0
 22 27  1  0  0  0  0
 28 12  1  6  0  0  0
 28 29  1  0  0  0  0
 28 33  1  0  0  0  0
 29 30  1  0  0  0  0
 29 36  1  6  0  0  0
 30 31  1  0  0  0  0
 30 37  1  1  0  0  0
 31 32  1  0  0  0  0
 31 34  1  1  0  0  0
 32 33  1  0  0  0  0
 33 35  1  6  0  0  0
M  END
>  <CHROM.1>
-154.08042604,-64.95714008,-169.80030249,173.15086586,-171.57724708,135.35600744
20.05759292,-0.97268536,52.68889545,1.68708347,-0.85745334,1.16535571

>  <Name>
2oe5_lig

>  <RI>
0

>  <Rbt.Current_Directory>
/home/itssahil/PROJECTS/Mol_Feturizer/New_Systems/rnas/2oe5

>  <Rbt.Executable>
rbdock ($Id: //depot/dev/client3/rdock/2013.1/src/exe/rbdock.cxx#4 $)

>  <Rbt.Library>
libRbt.so (2013.1, Build901 2013/11/27)

>  <Rbt.Parameter_File>
/export/apps/rDock/src/rDock_2013.1_src/data/scripts/dock_solv.prm

>  <Rbt.Receptor>
prm/pocket_docking_3.prm

>  <SCORE>
-16.2394

>  <SCORE.INTER>
-15.7674

>  <SCORE.INTER.CONST>
1

>  <SCORE.INTER.POLAR>
-1.01549

>  <SCORE.INTER.ROT>
6

>  <SCORE.INTER.SOLV>
15.6965

>  <SCORE.INTER.VDW>
-19.9588

>  <SCORE.INTER.norm>
-0.426147

>  <SCORE.INTRA>
-0.493114

>  <SCORE.INTRA.DIHEDRAL>
-6.2245

>  <SCORE.INTRA.DIHEDRAL.0>
16.2083

>  <SCORE.INTRA.POLAR>
0

>  <SCORE.INTRA.POLAR.0>
0

>  <SCORE.INTRA.REPUL>
0.0348695

>  <SCORE.INTRA.REPUL.0>
0

>  <SCORE.INTRA.SOLV>
1.28412

>  <SCORE.INTRA.SOLV.lig_0>
-89.8095

>  <SCORE.INTRA.VDW>
1.80273

>  <SCORE.INTRA.VDW.0>
-3.19502

>  <SCORE.INTRA.norm>
-0.0133274

>  <SCORE.RESTR>
0.0211731

>  <SCORE.RESTR.CAVITY>
0.0211731

>  <SCORE.RESTR.norm>
0.000572245

>  <SCORE.SYSTEM>
0

>  <SCORE.SYSTEM.CONST>
0

>  <SCORE.SYSTEM.DIHEDRAL>
0

>  <SCORE.SYSTEM.SOLV>
0

>  <SCORE.SYSTEM.norm>
0

>  <SCORE.heavy>
37

>  <SCORE.norm>
-0.438902

>  <RMSD>
1.739

$$$$
2oe5_lig
 OpenBabel11021811463D
libRbt.so/2013.1/901 2013/11/27
 37 40  0  0  0  0  0  0  0  0999 V2000
   20.8677    0.8426   53.9089 C   0  0  1  0  0  0  0  0  0  0  0  0
   20.2745    1.6649   52.7430 C   0  0  1  0  0  0  0  0  0  0  0  0
   19.1446    0.8263   52.0380 C   0  0  0  0  0  0  0  0  0  0  0  0
   19.8392   -0.4647   51.5497 C   0  0  1  0  0  0  0  0  0  0  0  0
   20.4486   -1.2966   52.7633 C   0  0  1  0  0  0  0  0  0  0  0  0
   21.1456   -2.6030   52.2946 C   0  0  1  0  0  0  0  0  0  0  0  0
   20.0692   -3.4485   51.5563 C   0  0  1  0  0  0  0  0  0  0  0  0
   19.4620   -2.5741   50.3945 C   0  0  2  0  0  0  0  0  0  0  0  0
   19.9933   -6.0463   51.2268 C   0  0  0  0  0  0  0  0  0  0  0  0
   19.7015    2.9304   53.2566 N   0  0  0  0  0  0  0  0  0  0  0  0
   20.6787   -4.7231   51.0190 N   0  0  0  0  0  0  0  0  0  0  0  0
   19.8890    0.5658   54.9240 O   0  0  0  0  0  0  0  0  0  0  0  0
   21.4164   -0.4452   53.4580 O   0  0  0  0  0  0  0  0  0  0  0  0
   18.8694   -1.3114   50.8765 O   0  0  0  0  0  0  0  0  0  0  0  0
   22.2235   -2.2403   51.4259 O   0  0  0  0  0  0  0  0  0  0  0  0
   18.4330   -3.2886   49.7389 O   0  0  0  0  0  0  0  0  0  0  0  0
   18.2515   -2.7900   48.4268 C   0  0  2  0  0  0  0  0  0  0  0  0
   17.5064   -3.7767   47.5286 C   0  0  1  0  0  0  0  0  0  0  0  0
   18.3289   -5.0782   47.3216 C   0  0  2  0  0  0  0  0  0  0  0  0
   19.7070   -4.6715   46.7207 C   0  0  1  0  0  0  0  0  0  0  0  0
   20.4108   -3.7026   47.7268 C   0  0  1  0  0  0  0  0  0  0  0  0
   21.7437   -3.1990   47.2198 C   0  0  0  0  0  0  0  0  0  0  0  0
   20.5144   -5.9320   46.5126 N   0  0  0  0  0  0  0  0  0  0  0  0
   19.5697   -2.5072   47.8610 O   0  0  0  0  0  0  0  0  0  0  0  0
   16.2412   -4.0640   48.1565 O   0  0  0  0  0  0  0  0  0  0  0  0
   17.6204   -5.9090   46.3841 O   0  0  0  0  0  0  0  0  0  0  0  0
   22.2774   -2.2205   48.0447 O   0  0  0  0  0  0  0  0  0  0  0  0
   20.3569    0.7676   56.2578 C   0  0  1  0  0  0  0  0  0  0  0  0
   19.1887    1.3097   57.1568 C   0  0  1  0  0  0  0  0  0  0  0  0
   19.7238    1.5108   58.6203 C   0  0  2  0  0  0  0  0  0  0  0  0
   20.2102    0.1626   59.1730 C   0  0  1  0  0  0  0  0  0  0  0  0
   21.3929   -0.3736   58.2775 C   0  0  0  0  0  0  0  0  0  0  0  0
   20.8618   -0.5619   56.8021 C   0  0  2  0  0  0  0  0  0  0  0  0
   20.6847    0.3586   60.5330 N   0  0  0  0  0  0  0  0  0  0  0  0
   21.9550   -1.0465   55.9189 N   0  0  0  0  0  0  0  0  0  0  0  0
   18.7238    2.5880   56.6360 O   0  0  0  0  0  0  0  0  0  0  0  0
   18.6783    1.9775   59.4312 O   0  0  0  0  0  0  0  0  0  0  0  0
  1  2  1  0  0  0  0
  1 12  1  1  0  0  0
  1 13  1  0  0  0  0
  2  3  1  0  0  0  0
  2 10  1  1  0  0  0
  4  3  1  1  0  0  0
  4  5  1  0  0  0  0
  4 14  1  0  0  0  0
  5  6  1  0  0  0  0
  5 13  1  6  0  0  0
  6  7  1  0  0  0  0
  6 15  1  6  0  0  0
  7  8  1  0  0  0  0
  7 11  1  6  0  0  0
  8 14  1  0  0  0  0
  8 16  1  1  0  0  0
  9 11  1  0  0  0  0
 17 16  1  1  0  0  0
 17 18  1  0  0  0  0
 17 24  1  0  0  0  0
 18 19  1  0  0  0  0
 18 25  1  1  0  0  0
 19 20  1  0  0  0  0
 19 26  1  6  0  0  0
 20 21  1  0  0  0  0
 20 23  1  1  0  0  0
 21 22  1  6  0  0  0
 21 24  1  0  0  0  0
 22 27  1  0  0  0  0
 28 12  1  6  0  0  0
 28 29  1  0  0  0  0
 28 33  1  0  0  0  0
 29 30  1  0  0  0  0
 29 36  1  6  0  0  0
 30 31  1  0  0  0  0
 30 37  1  1  0  0  0
 31 32  1  0  0  0  0
 31 34  1  1  0  0  0
 32 33  1  0  0  0  0
 33 35  1  6  0  0  0
M  END
>  <CHROM.1>
-135.38660408,133.03318379,-156.75719916,161.32538070,172.70743790,145.28669338
19.88731265,-1.59900730,52.23018437,1.42627212,-1.03968390,0.95191204

>  <Name>
2oe5_lig

>  <RI>
0

>  <Rbt.Current_Directory>
/home/itssahil/PROJECTS/Mol_Feturizer/New_Systems/rnas/2oe5

>  <Rbt.Executable>
rbdock ($Id: //depot/dev/client3/rdock/2013.1/src/exe/rbdock.cxx#4 $)

>  <Rbt.Library>
libRbt.so (2013.1, Build901 2013/11/27)

>  <Rbt.Parameter_File>
/export/apps/rDock/src/rDock_2013.1_src/data/scripts/dock_solv.prm

>  <Rbt.Receptor>
prm/pocket_docking_6.prm

>  <SCORE>
-19.1718

>  <SCORE.INTER>
-20.3328

>  <SCORE.INTER.CONST>
1

>  <SCORE.INTER.POLAR>
-1.43648

>  <SCORE.INTER.ROT>
6

>  <SCORE.INTER.SOLV>
13.9289

>  <SCORE.INTER.VDW>
-21.0099

>  <SCORE.INTER.norm>
-0.549536

>  <SCORE.INTRA>
1.16099

>  <SCORE.INTRA.DIHEDRAL>
-0.435516

>  <SCORE.INTRA.DIHEDRAL.0>
16.2083

>  <SCORE.INTRA.POLAR>
0

>  <SCORE.INTRA.POLAR.0>
0

>  <SCORE.INTRA.REPUL>
0.0535116

>  <SCORE.INTRA.REPUL.0>
0

>  <SCORE.INTRA.SOLV>
1.09913

>  <SCORE.INTRA.SOLV.lig_0>
-89.8095

>  <SCORE.INTRA.VDW>
0.561624

>  <SCORE.INTRA.VDW.0>
-3.19502

>  <SCORE.INTRA.norm>
0.0313781

>  <SCORE.RESTR>
0

>  <SCORE.RESTR.CAVITY>
0

>  <SCORE.RESTR.norm>
0

>  <SCORE.SYSTEM>
0

>  <SCORE.SYSTEM.CONST>
0

>  <SCORE.SYSTEM.DIHEDRAL>
0

>  <SCORE.SYSTEM.SOLV>
0

>  <SCORE.SYSTEM.norm>
0

>  <SCORE.heavy>
37

>  <SCORE.norm>
-0.518158

>  <RMSD>
1.744

$$$$
2oe5_lig
 OpenBabel11021811463D
libRbt.so/2013.1/901 2013/11/27
 37 40  0  0  0  0  0  0  0  0999 V2000
   20.4187    1.2593   54.1172 C   0  0  1  0  0  0  0  0  0  0  0  0
   19.7316    1.9954   52.9453 C   0  0  1  0  0  0  0  0  0  0  0  0
   18.7129    1.0208   52.2456 C   0  0  0  0  0  0  0  0  0  0  0  0
   19.5599   -0.1795   51.7668 C   0  0  1  0  0  0  0  0  0  0  0  0
   20.2642   -0.9229   52.9865 C   0  0  1  0  0  0  0  0  0  0  0  0
   21.1154   -2.1381   52.5273 C   0  0  1  0  0  0  0  0  0  0  0  0
   20.1507   -3.1132   51.7943 C   0  0  1  0  0  0  0  0  0  0  0  0
   19.4434   -2.3270   50.6261 C   0  0  2  0  0  0  0  0  0  0  0  0
   20.2060   -5.6119   51.0093 C   0  0  0  0  0  0  0  0  0  0  0  0
   19.0083    3.1853   53.4497 N   0  0  0  0  0  0  0  0  0  0  0  0
   20.9113   -4.3079   51.2663 N   0  0  0  0  0  0  0  0  0  0  0  0
   19.4795    0.8726   55.1338 O   0  0  0  0  0  0  0  0  0  0  0  0
   21.1204    0.0447   53.6756 O   0  0  0  0  0  0  0  0  0  0  0  0
   18.7010   -1.1424   51.0990 O   0  0  0  0  0  0  0  0  0  0  0  0
   22.1424   -1.6530   51.6566 O   0  0  0  0  0  0  0  0  0  0  0  0
   18.5097   -3.1657   49.9749 O   0  0  0  0  0  0  0  0  0  0  0  0
   18.3645   -2.7771   48.6218 C   0  0  2  0  0  0  0  0  0  0  0  0
   17.5945   -3.8105   47.8004 C   0  0  1  0  0  0  0  0  0  0  0  0
   18.3697   -5.1543   47.7205 C   0  0  2  0  0  0  0  0  0  0  0  0
   19.7700   -4.8523   47.1093 C   0  0  1  0  0  0  0  0  0  0  0  0
   20.4967   -3.8258   48.0391 C   0  0  1  0  0  0  0  0  0  0  0  0
   21.8543   -3.4174   47.5123 C   0  0  0  0  0  0  0  0  0  0  0  0
   20.5318   -6.1548   47.0245 N   0  0  0  0  0  0  0  0  0  0  0  0
   19.6999   -2.5932   48.0554 O   0  0  0  0  0  0  0  0  0  0  0  0
   16.3111   -3.9955   48.4300 O   0  0  0  0  0  0  0  0  0  0  0  0
   17.6427   -6.0373   46.8470 O   0  0  0  0  0  0  0  0  0  0  0  0
   22.4844   -2.5085   48.3488 O   0  0  0  0  0  0  0  0  0  0  0  0
   19.9787    0.9904   56.4663 C   0  0  1  0  0  0  0  0  0  0  0  0
   18.8453    1.5204   57.4158 C   0  0  1  0  0  0  0  0  0  0  0  0
   19.4140    1.6287   58.8764 C   0  0  2  0  0  0  0  0  0  0  0  0
   19.8681    0.2394   59.3490 C   0  0  1  0  0  0  0  0  0  0  0  0
   21.0162   -0.2853   58.4030 C   0  0  0  0  0  0  0  0  0  0  0  0
   20.4516   -0.3804   56.9311 C   0  0  2  0  0  0  0  0  0  0  0  0
   20.3742    0.3499   60.7072 N   0  0  0  0  0  0  0  0  0  0  0  0
   21.5121   -0.8515   56.0020 N   0  0  0  0  0  0  0  0  0  0  0  0
   18.4111    2.8376   56.9709 O   0  0  0  0  0  0  0  0  0  0  0  0
   18.3993    2.0843   59.7314 O   0  0  0  0  0  0  0  0  0  0  0  0
  1  2  1  0  0  0  0
  1 12  1  1  0  0  0
  1 13  1  0  0  0  0
  2  3  1  0  0  0  0
  2 10  1  1  0  0  0
  4  3  1  1  0  0  0
  4  5  1  0  0  0  0
  4 14  1  0  0  0  0
  5  6  1  0  0  0  0
  5 13  1  6  0  0  0
  6  7  1  0  0  0  0
  6 15  1  6  0  0  0
  7  8  1  0  0  0  0
  7 11  1  6  0  0  0
  8 14  1  0  0  0  0
  8 16  1  1  0  0  0
  9 11  1  0  0  0  0
 17 16  1  1  0  0  0
 17 18  1  0  0  0  0
 17 24  1  0  0  0  0
 18 19  1  0  0  0  0
 18 25  1  1  0  0  0
 19 20  1  0  0  0  0
 19 26  1  6  0  0  0
 20 21  1  0  0  0  0
 20 23  1  1  0  0  0
 21 22  1  6  0  0  0
 21 24  1  0  0  0  0
 22 27  1  0  0  0  0
 28 12  1  6  0  0  0
 28 29  1  0  0  0  0
 28 33  1  0  0  0  0
 29 30  1  0  0  0  0
 29 36  1  6  0  0  0
 30 31  1  0  0  0  0
 30 37  1  1  0  0  0
 31 32  1  0  0  0  0
 31 34  1  1  0  0  0
 32 33  1  0  0  0  0
 33 35  1  6  0  0  0
M  END
>  <CHROM.1>
-142.45359858,156.04509772,-151.32341463,168.32623061,-179.95237283,141.26679675
19.74114593,-1.44809606,52.46706888,1.52706437,-0.91865852,1.01674930

>  <Name>
2oe5_lig

>  <RI>
0

>  <Rbt.Current_Directory>
/home/itssahil/PROJECTS/Mol_Feturizer/New_Systems/rnas/2oe5

>  <Rbt.Executable>
rbdock ($Id: //depot/dev/client3/rdock/2013.1/src/exe/rbdock.cxx#4 $)

>  <Rbt.Library>
libRbt.so (2013.1, Build901 2013/11/27)

>  <Rbt.Parameter_File>
/export/apps/rDock/src/rDock_2013.1_src/data/scripts/dock_solv.prm

>  <Rbt.Receptor>
prm/pocket_docking_3.prm

>  <SCORE>
-19.2856

>  <SCORE.INTER>
-19.6686

>  <SCORE.INTER.CONST>
1

>  <SCORE.INTER.POLAR>
-1.28751

>  <SCORE.INTER.ROT>
6

>  <SCORE.INTER.SOLV>
14.7532

>  <SCORE.INTER.VDW>
-21.3384

>  <SCORE.INTER.norm>
-0.531583

>  <SCORE.INTRA>
0.363031

>  <SCORE.INTRA.DIHEDRAL>
-1.6117

>  <SCORE.INTRA.DIHEDRAL.0>
16.2083

>  <SCORE.INTRA.POLAR>
0

>  <SCORE.INTRA.POLAR.0>
0

>  <SCORE.INTRA.REPUL>
0.0792481

>  <SCORE.INTRA.REPUL.0>
0

>  <SCORE.INTRA.SOLV>
2.04978

>  <SCORE.INTRA.SOLV.lig_0>
-89.8095

>  <SCORE.INTRA.VDW>
-0.252249

>  <SCORE.INTRA.VDW.0>
-3.19502

>  <SCORE.INTRA.norm>
0.00981166

>  <SCORE.RESTR>
0.0199645

>  <SCORE.RESTR.CAVITY>
0.0199645

>  <SCORE.RESTR.norm>
0.000539581

>  <SCORE.SYSTEM>
0

>  <SCORE.SYSTEM.CONST>
0

>  <SCORE.SYSTEM.DIHEDRAL>
0

>  <SCORE.SYSTEM.SOLV>
0

>  <SCORE.SYSTEM.norm>
0

>  <SCORE.heavy>
37

>  <SCORE.norm>
-0.521231

>  <RMSD>
1.746

$$$$
2oe5_lig
 OpenBabel11021811463D
libRbt.so/2013.1/901 2013/11/27
 37 40  0  0  0  0  0  0  0  0999 V2000
   20.9392    2.1659   53.4739 C   0  0  1  0  0  0  0  0  0  0  0  0
   19.6172    2.4173   52.7147 C   0  0  1  0  0  0  0  0  0  0  0  0
   19.0407    1.0438   52.2065 C   0  0  0  0  0  0  0  0  0  0  0  0
   20.1378    0.4542   51.2921 C   0  0  1  0  0  0  0  0  0  0  0  0
   21.4939    0.2063   52.0896 C   0  0  1  0  0  0  0  0  0  0  0  0
   22.6086   -0.3935   51.1896 C   0  0  1  0  0  0  0  0  0  0  0  0
   22.0636   -1.7398   50.6336 C   0  0  1  0  0  0  0  0  0  0  0  0
   20.7022   -1.4561   49.8926 C   0  0  2  0  0  0  0  0  0  0  0  0
   24.3555   -2.9448   50.2359 C   0  0  0  0  0  0  0  0  0  0  0  0
   18.6326    3.0630   53.6132 N   0  0  0  0  0  0  0  0  0  0  0  0
   23.0719   -2.3704   49.7008 N   0  0  0  0  0  0  0  0  0  0  0  0
   20.7402    1.3619   54.6482 O   0  0  0  0  0  0  0  0  0  0  0  0
   21.9409    1.4889   52.6366 O   0  0  0  0  0  0  0  0  0  0  0  0
   19.6940   -0.8255   50.7666 O   0  0  0  0  0  0  0  0  0  0  0  0
   22.8804    0.5425   50.1417 O   0  0  0  0  0  0  0  0  0  0  0  0
   20.1435   -2.6686   49.4270 O   0  0  0  0  0  0  0  0  0  0  0  0
   19.3588   -2.4335   48.2729 C   0  0  2  0  0  0  0  0  0  0  0  0
   18.2998   -3.5147   48.0606 C   0  0  1  0  0  0  0  0  0  0  0  0
   18.9554   -4.8967   47.7896 C   0  0  2  0  0  0  0  0  0  0  0  0
   19.8833   -4.7403   46.5485 C   0  0  1  0  0  0  0  0  0  0  0  0
   20.9567   -3.6510   46.8766 C   0  0  1  0  0  0  0  0  0  0  0  0
   21.8868   -3.3771   45.7158 C   0  0  0  0  0  0  0  0  0  0  0  0
   20.5243   -6.0812   46.2745 N   0  0  0  0  0  0  0  0  0  0  0  0
   20.2528   -2.3857   47.1168 O   0  0  0  0  0  0  0  0  0  0  0  0
   17.4819   -3.5589   49.2467 O   0  0  0  0  0  0  0  0  0  0  0  0
   17.9072   -5.8369   47.4925 O   0  0  0  0  0  0  0  0  0  0  0  0
   22.5954   -4.5080   45.3395 O   0  0  0  0  0  0  0  0  0  0  0  0
   20.5918    2.1134   55.8531 C   0  0  1  0  0  0  0  0  0  0  0  0
   19.8600    1.2442   56.9375 C   0  0  1  0  0  0  0  0  0  0  0  0
   19.7207    2.0867   58.2563 C   0  0  2  0  0  0  0  0  0  0  0  0
   21.1189    2.4679   58.7657 C   0  0  1  0  0  0  0  0  0  0  0  0
   21.8470    3.3527   57.6816 C   0  0  0  0  0  0  0  0  0  0  0  0
   21.9746    2.5135   56.3498 C   0  0  2  0  0  0  0  0  0  0  0  0
   20.9768    3.2302   59.9952 N   0  0  0  0  0  0  0  0  0  0  0  0
   22.6376    3.3219   55.2930 N   0  0  0  0  0  0  0  0  0  0  0  0
   18.5337    0.8798   56.4584 O   0  0  0  0  0  0  0  0  0  0  0  0
   19.0839    1.3074   59.2338 O   0  0  0  0  0  0  0  0  0  0  0  0
  1  2  1  0  0  0  0
  1 12  1  1  0  0  0
  1 13  1  0  0  0  0
  2  3  1  0  0  0  0
  2 10  1  1  0  0  0
  4  3  1  1  0  0  0
  4  5  1  0  0  0  0
  4 14  1  0  0  0  0
  5  6  1  0  0  0  0
  5 13  1  6  0  0  0
  6  7  1  0  0  0  0
  6 15  1  6  0  0  0
  7  8  1  0  0  0  0
  7 11  1  6  0  0  0
  8 14  1  0  0  0  0
  8 16  1  1  0  0  0
  9 11  1  0  0  0  0
 17 16  1  1  0  0  0
 17 18  1  0  0  0  0
 17 24  1  0  0  0  0
 18 19  1  0  0  0  0
 18 25  1  1  0  0  0
 19 20  1  0  0  0  0
 19 26  1  6  0  0  0
 20 21  1  0  0  0  0
 20 23  1  1  0  0  0
 21 22  1  6  0  0  0
 21 24  1  0  0  0  0
 22 27  1  0  0  0  0
 28 12  1  6  0  0  0
 28 29  1  0  0  0  0
 28 33  1  0  0  0  0
 29 30  1  0  0  0  0
 29 36  1  6  0  0  0
 30 31  1  0  0  0  0
 30 37  1  1  0  0  0
 31 32  1  0  0  0  0
 31 34  1  1  0  0  0
 32 33  1  0  0  0  0
 33 35  1  6  0  0  0
M  END
>  <CHROM.1>
-95.89702140,70.24952772,-151.39920508,-156.32845940,-60.62331577,158.65993584
20.59896149,-0.63700961,51.80424752,-1.55698891,-0.36960306,-2.14186973

>  <Name>
2oe5_lig

>  <RI>
0

>  <Rbt.Current_Directory>
/home/itssahil/PROJECTS/Mol_Feturizer/New_Systems/rnas/2oe5

>  <Rbt.Executable>
rbdock ($Id: //depot/dev/client3/rdock/2013.1/src/exe/rbdock.cxx#4 $)

>  <Rbt.Library>
libRbt.so (2013.1, Build901 2013/11/27)

>  <Rbt.Parameter_File>
/export/apps/rDock/src/rDock_2013.1_src/data/scripts/dock_solv.prm

>  <Rbt.Receptor>
prm/pocket_docking_4.prm

>  <SCORE>
-19.5155

>  <SCORE.INTER>
-18.7944

>  <SCORE.INTER.CONST>
1

>  <SCORE.INTER.POLAR>
-2.15042

>  <SCORE.INTER.ROT>
6

>  <SCORE.INTER.SOLV>
13.164

>  <SCORE.INTER.VDW>
-17.3495

>  <SCORE.INTER.norm>
-0.507956

>  <SCORE.INTRA>
-0.721161

>  <SCORE.INTRA.DIHEDRAL>
-3.63188

>  <SCORE.INTRA.DIHEDRAL.0>
16.2083

>  <SCORE.INTRA.POLAR>
0

>  <SCORE.INTRA.POLAR.0>
0

>  <SCORE.INTRA.REPUL>
0

>  <SCORE.INTRA.REPUL.0>
0

>  <SCORE.INTRA.SOLV>
1.15846

>  <SCORE.INTRA.SOLV.lig_0>
-89.8095

>  <SCORE.INTRA.VDW>
0.515553

>  <SCORE.INTRA.VDW.0>
-3.19502

>  <SCORE.INTRA.norm>
-0.0194908

>  <SCORE.RESTR>
0

>  <SCORE.RESTR.CAVITY>
0

>  <SCORE.RESTR.norm>
0

>  <SCORE.SYSTEM>
0

>  <SCORE.SYSTEM.CONST>
0

>  <SCORE.SYSTEM.DIHEDRAL>
0

>  <SCORE.SYSTEM.SOLV>
0

>  <SCORE.SYSTEM.norm>
0

>  <SCORE.heavy>
37

>  <SCORE.norm>
-0.527447

>  <RMSD>
1.754

$$$$
2oe5_lig
 OpenBabel11021811463D
libRbt.so/2013.1/901 2013/11/27
 37 40  0  0  0  0  0  0  0  0999 V2000
   20.9853    0.1140   53.3750 C   0  0  1  0  0  0  0  0  0  0  0  0
   19.9441    0.7254   52.4110 C   0  0  1  0  0  0  0  0  0  0  0  0
   18.9801   -0.4091   51.9003 C   0  0  0  0  0  0  0  0  0  0  0  0
   19.8955   -1.4368   51.1979 C   0  0  1  0  0  0  0  0  0  0  0  0
   20.9649   -2.0526   52.2047 C   0  0  1  0  0  0  0  0  0  0  0  0
   21.8913   -3.0943   51.5199 C   0  0  1  0  0  0  0  0  0  0  0  0
   20.9720   -4.2195   50.9653 C   0  0  1  0  0  0  0  0  0  0  0  0
   19.9035   -3.5624   50.0114 C   0  0  2  0  0  0  0  0  0  0  0  0
   21.2563   -6.6459   50.0196 C   0  0  0  0  0  0  0  0  0  0  0  0
   19.1549    1.7646   53.1114 N   0  0  0  0  0  0  0  0  0  0  0  0
   21.7927   -5.2566   50.2336 N   0  0  0  0  0  0  0  0  0  0  0  0
   20.3702   -0.4404   54.5494 O   0  0  0  0  0  0  0  0  0  0  0  0
   21.7718   -0.9537   52.7393 O   0  0  0  0  0  0  0  0  0  0  0  0
   19.0900   -2.5317   50.6849 O   0  0  0  0  0  0  0  0  0  0  0  0
   22.6057   -2.4285   50.4737 O   0  0  0  0  0  0  0  0  0  0  0  0
   19.0084   -4.5485   49.5362 O   0  0  0  0  0  0  0  0  0  0  0  0
   18.0348   -3.9597   48.6946 C   0  0  2  0  0  0  0  0  0  0  0  0
   17.1290   -5.0007   48.0379 C   0  0  1  0  0  0  0  0  0  0  0  0
   17.9354   -5.9244   47.0843 C   0  0  2  0  0  0  0  0  0  0  0  0
   18.6348   -5.0151   46.0308 C   0  0  1  0  0  0  0  0  0  0  0  0
   19.5708   -4.0191   46.7913 C   0  0  1  0  0  0  0  0  0  0  0  0
   20.2667   -3.0465   45.8654 C   0  0  0  0  0  0  0  0  0  0  0  0
   19.4204   -5.9052   45.0957 N   0  0  0  0  0  0  0  0  0  0  0  0
   18.7298   -3.1905   47.6635 O   0  0  0  0  0  0  0  0  0  0  0  0
   16.5122   -5.7654   49.0925 O   0  0  0  0  0  0  0  0  0  0  0  0
   17.0066   -6.8022   46.4226 O   0  0  0  0  0  0  0  0  0  0  0  0
   19.3652   -2.2545   45.1706 O   0  0  0  0  0  0  0  0  0  0  0  0
   21.0072   -0.0714   55.7727 C   0  0  1  0  0  0  0  0  0  0  0  0
   19.9233    0.2666   56.8580 C   0  0  1  0  0  0  0  0  0  0  0  0
   20.6474    0.6562   58.1967 C   0  0  2  0  0  0  0  0  0  0  0  0
   21.4989   -0.5287   58.6771 C   0  0  1  0  0  0  0  0  0  0  0  0
   22.5961   -0.8577   57.5926 C   0  0  0  0  0  0  0  0  0  0  0  0
   21.8710   -1.2347   56.2411 C   0  0  2  0  0  0  0  0  0  0  0  0
   22.1480   -0.1624   59.9251 N   0  0  0  0  0  0  0  0  0  0  0  0
   22.8732   -1.5311   55.1840 N   0  0  0  0  0  0  0  0  0  0  0  0
   19.1129    1.3895   56.4063 O   0  0  0  0  0  0  0  0  0  0  0  0
   19.6824    0.9411   59.1745 O   0  0  0  0  0  0  0  0  0  0  0  0
  1  2  1  0  0  0  0
  1 12  1  1  0  0  0
  1 13  1  0  0  0  0
  2  3  1  0  0  0  0
  2 10  1  1  0  0  0
  4  3  1  1  0  0  0
  4  5  1  0  0  0  0
  4 14  1  0  0  0  0
  5  6  1  0  0  0  0
  5 13  1  6  0  0  0
  6  7  1  0  0  0  0
  6 15  1  6  0  0  0
  7  8  1  0  0  0  0
  7 11  1  6  0  0  0
  8 14  1  0  0  0  0
  8 16  1  1  0  0  0
  9 11  1  0  0  0  0
 17 16  1  1  0  0  0
 17 18  1  0  0  0  0
 17 24  1  0  0  0  0
 18 19  1  0  0  0  0
 18 25  1  1  0  0  0
 19 20  1  0  0  0  0
 19 26  1  6  0  0  0
 20 21  1  0  0  0  0
 20 23  1  6  0  0  0
 21 22  1  6  0  0  0
 21 24  1  0  0  0  0
 22 27  1  0  0  0  0
 28 12  1  6  0  0  0
 28 29  1  0  0  0  0
 28 33  1  0  0  0  0
 29 30  1  0  0  0  0
 29 36  1  6  0  0  0
 30 31  1  0  0  0  0
 30 37  1  1  0  0  0
 31 32  1  0  0  0  0
 31 34  1  1  0  0  0
 32 33  1  0  0  0  0
 33 35  1  6  0  0  0
M  END
>  <CHROM.1>
-133.25880010,158.79515308,179.13863200,174.07547069,61.02332236,138.02716782
20.04354613,-2.36522774,51.71489124,1.25905603,-0.89324481,0.86233270

>  <Name>
2oe5_lig

>  <RI>
0

>  <Rbt.Current_Directory>
/home/itssahil/PROJECTS/Mol_Feturizer/New_Systems/rnas/2oe5

>  <Rbt.Executable>
rbdock ($Id: //depot/dev/client3/rdock/2013.1/src/exe/rbdock.cxx#4 $)

>  <Rbt.Library>
libRbt.so (2013.1, Build901 2013/11/27)

>  <Rbt.Parameter_File>
/export/apps/rDock/src/rDock_2013.1_src/data/scripts/dock_solv.prm

>  <Rbt.Receptor>
prm/pocket_docking_4.prm

>  <SCORE>
-15.1651

>  <SCORE.INTER>
-14.4452

>  <SCORE.INTER.CONST>
1

>  <SCORE.INTER.POLAR>
-1

>  <SCORE.INTER.ROT>
6

>  <SCORE.INTER.SOLV>
15.9656

>  <SCORE.INTER.VDW>
-19.2186

>  <SCORE.INTER.norm>
-0.390411

>  <SCORE.INTRA>
-0.719904

>  <SCORE.INTRA.DIHEDRAL>
-3.60348

>  <SCORE.INTRA.DIHEDRAL.0>
16.2083

>  <SCORE.INTRA.POLAR>
0

>  <SCORE.INTRA.POLAR.0>
0

>  <SCORE.INTRA.REPUL>
0

>  <SCORE.INTRA.REPUL.0>
0

>  <SCORE.INTRA.SOLV>
0.529088

>  <SCORE.INTRA.SOLV.lig_0>
-89.8095

>  <SCORE.INTRA.VDW>
0.817294

>  <SCORE.INTRA.VDW.0>
-3.19502

>  <SCORE.INTRA.norm>
-0.0194569

>  <SCORE.RESTR>
0

>  <SCORE.RESTR.CAVITY>
0

>  <SCORE.RESTR.norm>
0

>  <SCORE.SYSTEM>
0

>  <SCORE.SYSTEM.CONST>
0

>  <SCORE.SYSTEM.DIHEDRAL>
0

>  <SCORE.SYSTEM.SOLV>
0

>  <SCORE.SYSTEM.norm>
0

>  <SCORE.heavy>
37

>  <SCORE.norm>
-0.409867

>  <RMSD>
1.755

$$$$
2oe5_lig
 OpenBabel11021811463D
libRbt.so/2013.1/901 2013/11/27
 37 40  0  0  0  0  0  0  0  0999 V2000
   20.9651    2.2371   53.4289 C   0  0  1  0  0  0  0  0  0  0  0  0
   19.6192    2.4487   52.7002 C   0  0  1  0  0  0  0  0  0  0  0  0
   19.0739    1.0588   52.2024 C   0  0  0  0  0  0  0  0  0  0  0  0
   20.1676    0.5045   51.2622 C   0  0  1  0  0  0  0  0  0  0  0  0
   21.5484    0.2974   52.0283 C   0  0  1  0  0  0  0  0  0  0  0  0
   22.6604   -0.2665   51.1022 C   0  0  1  0  0  0  0  0  0  0  0  0
   22.1447   -1.6282   50.5559 C   0  0  1  0  0  0  0  0  0  0  0  0
   20.7587   -1.3856   49.8464 C   0  0  2  0  0  0  0  0  0  0  0  0
   24.4826   -2.7175   50.0973 C   0  0  0  0  0  0  0  0  0  0  0  0
   18.6358    3.0625   53.6220 N   0  0  0  0  0  0  0  0  0  0  0  0
   23.1505   -2.2262   49.5992 N   0  0  0  0  0  0  0  0  0  0  0  0
   20.8176    1.4258   54.6057 O   0  0  0  0  0  0  0  0  0  0  0  0
   21.9680    1.5925   52.5678 O   0  0  0  0  0  0  0  0  0  0  0  0
   19.7517   -0.7875   50.7442 O   0  0  0  0  0  0  0  0  0  0  0  0
   22.8794    0.6789   50.0503 O   0  0  0  0  0  0  0  0  0  0  0  0
   20.2272   -2.6142   49.3911 O   0  0  0  0  0  0  0  0  0  0  0  0
   19.4362   -2.4061   48.2361 C   0  0  2  0  0  0  0  0  0  0  0  0
   18.3592   -3.4774   48.0692 C   0  0  1  0  0  0  0  0  0  0  0  0
   18.9916   -4.8776   47.8397 C   0  0  2  0  0  0  0  0  0  0  0  0
   19.9109   -4.7773   46.5864 C   0  0  1  0  0  0  0  0  0  0  0  0
   21.0034   -3.6942   46.8687 C   0  0  1  0  0  0  0  0  0  0  0  0
   21.9273   -3.4737   45.6917 C   0  0  0  0  0  0  0  0  0  0  0  0
   20.5293   -6.1363   46.3526 N   0  0  0  0  0  0  0  0  0  0  0  0
   20.3206   -2.4108   47.0718 O   0  0  0  0  0  0  0  0  0  0  0  0
   17.5511   -3.4691   49.2627 O   0  0  0  0  0  0  0  0  0  0  0  0
   17.9269   -5.8112   47.5830 O   0  0  0  0  0  0  0  0  0  0  0  0
   21.2308   -3.1452   44.5386 O   0  0  0  0  0  0  0  0  0  0  0  0
   20.6786    2.1707   55.8158 C   0  0  1  0  0  0  0  0  0  0  0  0
   19.9149    1.3119   56.8864 C   0  0  1  0  0  0  0  0  0  0  0  0
   19.7863    2.1466   58.2112 C   0  0  2  0  0  0  0  0  0  0  0  0
   21.1896    2.4866   58.7356 C   0  0  1  0  0  0  0  0  0  0  0  0
   21.9500    3.3611   57.6655 C   0  0  0  0  0  0  0  0  0  0  0  0
   22.0670    2.5302   56.3275 C   0  0  2  0  0  0  0  0  0  0  0  0
   21.0569    3.2420   59.9705 N   0  0  0  0  0  0  0  0  0  0  0  0
   22.7600    3.3298   55.2834 N   0  0  0  0  0  0  0  0  0  0  0  0
   18.5837    0.9865   56.3930 O   0  0  0  0  0  0  0  0  0  0  0  0
   19.1209    1.3760   59.1765 O   0  0  0  0  0  0  0  0  0  0  0  0
  1  2  1  0  0  0  0
  1 12  1  1  0  0  0
  1 13  1  0  0  0  0
  2  3  1  0  0  0  0
  2 10  1  1  0  0  0
  4  3  1  1  0  0  0
  4  5  1  0  0  0  0
  4 14  1  0  0  0  0
  5  6  1  0  0  0  0
  5 13  1  6  0  0  0
  6  7  1  0  0  0  0
  6 15  1  6  0  0  0
  7  8  1  0  0  0  0
  7 11  1  6  0  0  0
  8 14  1  0  0  0  0
  8 16  1  1  0  0  0
  9 11  1  0  0  0  0
 17 16  1  1  0  0  0
 17 18  1  0  0  0  0
 17 24  1  0  0  0  0
 18 19  1  0  0  0  0
 18 25  1  1  0  0  0
 19 20  1  0  0  0  0
 19 26  1  6  0  0  0
 20 21  1  0  0  0  0
 20 23  1  1  0  0  0
 21 22  1  6  0  0  0
 21 24  1  0  0  0  0
 22 27  1  0  0  0  0
 28 12  1  6  0  0  0
 28 29  1  0  0  0  0
 28 33  1  0  0  0  0
 29 30  1  0  0  0  0
 29 36  1  6  0  0  0
 30 31  1  0  0  0  0
 30 37  1  1  0  0  0
 31 32  1  0  0  0  0
 31 34  1  1  0  0  0
 32 33  1  0  0  0  0
 33 35  1  6  0  0  0
M  END
>  <CHROM.1>
-96.12203644,68.09460141,-149.97730281,-153.66825493,55.67210278,155.01527156
20.61115232,-0.54850074,51.75121413,-1.53912318,-0.44108157,-2.12135637

>  <Name>
2oe5_lig

>  <RI>
0

>  <Rbt.Current_Directory>
/home/itssahil/PROJECTS/Mol_Feturizer/New_Systems/rnas/2oe5

>  <Rbt.Executable>
rbdock ($Id: //depot/dev/client3/rdock/2013.1/src/exe/rbdock.cxx#4 $)

>  <Rbt.Library>
libRbt.so (2013.1, Build901 2013/11/27)

>  <Rbt.Parameter_File>
/export/apps/rDock/src/rDock_2013.1_src/data/scripts/dock_solv.prm

>  <Rbt.Receptor>
prm/pocket_docking_5.prm

>  <SCORE>
-19.3557

>  <SCORE.INTER>
-18.9139

>  <SCORE.INTER.CONST>
1

>  <SCORE.INTER.POLAR>
-2.15265

>  <SCORE.INTER.ROT>
6

>  <SCORE.INTER.SOLV>
12.7544

>  <SCORE.INTER.VDW>
-17.2853

>  <SCORE.INTER.norm>
-0.511187

>  <SCORE.INTRA>
-0.44176

>  <SCORE.INTRA.DIHEDRAL>
-2.16303

>  <SCORE.INTRA.DIHEDRAL.0>
16.2083

>  <SCORE.INTRA.POLAR>
0

>  <SCORE.INTRA.POLAR.0>
0

>  <SCORE.INTRA.REPUL>
0

>  <SCORE.INTRA.REPUL.0>
0

>  <SCORE.INTRA.SOLV>
0.776171

>  <SCORE.INTRA.SOLV.lig_0>
-89.8095

>  <SCORE.INTRA.VDW>
0.251669

>  <SCORE.INTRA.VDW.0>
-3.19502

>  <SCORE.INTRA.norm>
-0.0119395

>  <SCORE.RESTR>
0

>  <SCORE.RESTR.CAVITY>
0

>  <SCORE.RESTR.norm>
0

>  <SCORE.SYSTEM>
0

>  <SCORE.SYSTEM.CONST>
0

>  <SCORE.SYSTEM.DIHEDRAL>
0

>  <SCORE.SYSTEM.SOLV>
0

>  <SCORE.SYSTEM.norm>
0

>  <SCORE.heavy>
37

>  <SCORE.norm>
-0.523127

>  <RMSD>
1.767

$$$$
2oe5_lig
 OpenBabel11021811463D
libRbt.so/2013.1/901 2013/11/27
 37 40  0  0  0  0  0  0  0  0999 V2000
   20.4463    0.7391   54.2493 C   0  0  1  0  0  0  0  0  0  0  0  0
   19.4447    1.3086   53.2199 C   0  0  1  0  0  0  0  0  0  0  0  0
   18.9717    0.1533   52.2614 C   0  0  0  0  0  0  0  0  0  0  0  0
   20.2606   -0.3757   51.5932 C   0  0  1  0  0  0  0  0  0  0  0  0
   21.2829   -0.9539   52.6688 C   0  0  1  0  0  0  0  0  0  0  0  0
   22.5833   -1.4979   52.0168 C   0  0  1  0  0  0  0  0  0  0  0  0
   22.1568   -2.6212   51.0293 C   0  0  1  0  0  0  0  0  0  0  0  0
   21.1140   -2.0191   50.0129 C   0  0  2  0  0  0  0  0  0  0  0  0
   24.1744   -2.3014   49.3893 C   0  0  0  0  0  0  0  0  0  0  0  0
   18.2710    1.8806   53.9190 N   0  0  0  0  0  0  0  0  0  0  0  0
   23.3647   -3.1748   50.3087 N   0  0  0  0  0  0  0  0  0  0  0  0
   19.8424   -0.2536   55.0946 O   0  0  0  0  0  0  0  0  0  0  0  0
   21.6153    0.1221   53.6047 O   0  0  0  0  0  0  0  0  0  0  0  0
   19.9247   -1.4536   50.6789 O   0  0  0  0  0  0  0  0  0  0  0  0
   23.2250   -0.4121   51.3405 O   0  0  0  0  0  0  0  0  0  0  0  0
   20.6546   -3.0291   49.1365 O   0  0  0  0  0  0  0  0  0  0  0  0
   19.7730   -2.4785   48.1760 C   0  0  2  0  0  0  0  0  0  0  0  0
   18.4446   -3.2310   48.1084 C   0  0  1  0  0  0  0  0  0  0  0  0
   18.6522   -4.6935   47.6277 C   0  0  2  0  0  0  0  0  0  0  0  0
   19.3587   -4.6355   46.2408 C   0  0  1  0  0  0  0  0  0  0  0  0
   20.7229   -3.8917   46.4194 C   0  0  1  0  0  0  0  0  0  0  0  0
   21.4766   -3.7302   45.1182 C   0  0  0  0  0  0  0  0  0  0  0  0
   19.5628   -6.0546   45.7626 N   0  0  0  0  0  0  0  0  0  0  0  0
   20.4332   -2.5259   46.8723 O   0  0  0  0  0  0  0  0  0  0  0  0
   17.8627   -3.2022   49.4268 O   0  0  0  0  0  0  0  0  0  0  0  0
   17.3568   -5.3037   47.4837 O   0  0  0  0  0  0  0  0  0  0  0  0
   22.7253   -3.1581   45.3084 O   0  0  0  0  0  0  0  0  0  0  0  0
   20.4420   -0.3654   56.3856 C   0  0  1  0  0  0  0  0  0  0  0  0
   21.9850   -0.6186   56.2372 C   0  0  1  0  0  0  0  0  0  0  0  0
   22.6236   -0.7245   57.6688 C   0  0  2  0  0  0  0  0  0  0  0  0
   22.3925    0.5914   58.4268 C   0  0  1  0  0  0  0  0  0  0  0  0
   20.8426    0.8370   58.5875 C   0  0  0  0  0  0  0  0  0  0  0  0
   20.1956    0.9285   57.1497 C   0  0  2  0  0  0  0  0  0  0  0  0
   23.0038    0.4873   59.7415 N   0  0  0  0  0  0  0  0  0  0  0  0
   18.7278    1.1381   57.2576 N   0  0  0  0  0  0  0  0  0  0  0  0
   22.2089   -1.8654   55.5183 O   0  0  0  0  0  0  0  0  0  0  0  0
   24.0052   -0.9322   57.5409 O   0  0  0  0  0  0  0  0  0  0  0  0
  1  2  1  0  0  0  0
  1 12  1  6  0  0  0
  1 13  1  0  0  0  0
  2  3  1  0  0  0  0
  2 10  1  1  0  0  0
  4  3  1  1  0  0  0
  4  5  1  0  0  0  0
  4 14  1  0  0  0  0
  5  6  1  0  0  0  0
  5 13  1  1  0  0  0
  6  7  1  0  0  0  0
  6 15  1  6  0  0  0
  7  8  1  0  0  0  0
  7 11  1  6  0  0  0
  8 14  1  0  0  0  0
  8 16  1  6  0  0  0
  9 11  1  0  0  0  0
 17 16  1  1  0  0  0
 17 18  1  0  0  0  0
 17 24  1  0  0  0  0
 18 19  1  0  0  0  0
 18 25  1  1  0  0  0
 19 20  1  0  0  0  0
 19 26  1  6  0  0  0
 20 21  1  0  0  0  0
 20 23  1  1  0  0  0
 21 22  1  6  0  0  0
 21 24  1  0  0  0  0
 22 27  1  0  0  0  0
 28 12  1  6  0  0  0
 28 29  1  0  0  0  0
 28 33  1  0  0  0  0
 29 30  1  0  0  0  0
 29 36  1  6  0  0  0
 30 31  1  0  0  0  0
 30 37  1  6  0  0  0
 31 32  1  0  0  0  0
 31 34  1  1  0  0  0
 32 33  1  0  0  0  0
 33 35  1  1  0  0  0
M  END
>  <CHROM.1>
-152.47717157,-63.83047236,-176.84320488,-127.66449053,-175.57128725,-54.66512750
20.82792687,-1.57279905,51.88624020,1.45576079,-0.14021221,1.16545134

>  <Name>
2oe5_lig

>  <RI>
0

>  <Rbt.Current_Directory>
/home/itssahil/PROJECTS/Mol_Feturizer/New_Systems/rnas/2oe5

>  <Rbt.Executable>
rbdock ($Id: //depot/dev/client3/rdock/2013.1/src/exe/rbdock.cxx#4 $)

>  <Rbt.Library>
libRbt.so (2013.1, Build901 2013/11/27)

>  <Rbt.Parameter_File>
/export/apps/rDock/src/rDock_2013.1_src/data/scripts/dock_solv.prm

>  <Rbt.Receptor>
prm/pocket_docking_3.prm

>  <SCORE>
-18.0215

>  <SCORE.INTER>
-17.2901

>  <SCORE.INTER.CONST>
1

>  <SCORE.INTER.POLAR>
-1.70861

>  <SCORE.INTER.ROT>
6

>  <SCORE.INTER.SOLV>
19.7936

>  <SCORE.INTER.VDW>
-20.0293

>  <SCORE.INTER.norm>
-0.467301

>  <SCORE.INTRA>
-0.731326

>  <SCORE.INTRA.DIHEDRAL>
-5.84556

>  <SCORE.INTRA.DIHEDRAL.0>
16.2083

>  <SCORE.INTRA.POLAR>
0

>  <SCORE.INTRA.POLAR.0>
0

>  <SCORE.INTRA.REPUL>
0

>  <SCORE.INTRA.REPUL.0>
0

>  <SCORE.INTRA.SOLV>
-0.515097

>  <SCORE.INTRA.SOLV.lig_0>
-89.8095

>  <SCORE.INTRA.VDW>
2.449

>  <SCORE.INTRA.VDW.0>
-3.19502

>  <SCORE.INTRA.norm>
-0.0197656

>  <SCORE.RESTR>
0

>  <SCORE.RESTR.CAVITY>
0

>  <SCORE.RESTR.norm>
0

>  <SCORE.SYSTEM>
0

>  <SCORE.SYSTEM.CONST>
0

>  <SCORE.SYSTEM.DIHEDRAL>
0

>  <SCORE.SYSTEM.SOLV>
0

>  <SCORE.SYSTEM.norm>
0

>  <SCORE.heavy>
37

>  <SCORE.norm>
-0.487067

>  <RMSD>
1.780

$$$$
2oe5_lig
 OpenBabel11021811463D
libRbt.so/2013.1/901 2013/11/27
 37 40  0  0  0  0  0  0  0  0999 V2000
   20.3908    0.7572   54.0455 C   0  0  1  0  0  0  0  0  0  0  0  0
   19.3405    1.3547   53.0825 C   0  0  1  0  0  0  0  0  0  0  0  0
   18.7576    0.2091   52.1742 C   0  0  0  0  0  0  0  0  0  0  0  0
   19.9749   -0.3753   51.4232 C   0  0  1  0  0  0  0  0  0  0  0  0
   21.0486   -0.9818   52.4309 C   0  0  1  0  0  0  0  0  0  0  0  0
   22.2780   -1.5816   51.6954 C   0  0  1  0  0  0  0  0  0  0  0  0
   21.7405   -2.6972   50.7545 C   0  0  1  0  0  0  0  0  0  0  0  0
   20.6514   -2.0654   49.8070 C   0  0  2  0  0  0  0  0  0  0  0  0
   23.5774   -4.5395   50.4466 C   0  0  0  0  0  0  0  0  0  0  0  0
   18.2418    1.9780   53.8557 N   0  0  0  0  0  0  0  0  0  0  0  0
   22.8724   -3.3036   49.9572 N   0  0  0  0  0  0  0  0  0  0  0  0
   19.8116   -0.2034   54.9437 O   0  0  0  0  0  0  0  0  0  0  0  0
   21.4870    0.0896   53.3276 O   0  0  0  0  0  0  0  0  0  0  0  0
   19.5345   -1.4483   50.5483 O   0  0  0  0  0  0  0  0  0  0  0  0
   22.9103   -0.5278   50.9620 O   0  0  0  0  0  0  0  0  0  0  0  0
   20.0932   -3.0655   48.9778 O   0  0  0  0  0  0  0  0  0  0  0  0
   19.2535   -2.4781   48.0017 C   0  0  2  0  0  0  0  0  0  0  0  0
   18.0087   -3.3201   47.7241 C   0  0  1  0  0  0  0  0  0  0  0  0
   18.3874   -4.6958   47.1099 C   0  0  2  0  0  0  0  0  0  0  0  0
   19.2046   -4.4213   45.8128 C   0  0  1  0  0  0  0  0  0  0  0  0
   20.4760   -3.5980   46.2027 C   0  0  1  0  0  0  0  0  0  0  0  0
   21.3234   -3.2272   45.0060 C   0  0  0  0  0  0  0  0  0  0  0  0
   19.5757   -5.7545   45.2055 N   0  0  0  0  0  0  0  0  0  0  0  0
   20.0269   -2.3213   46.7708 O   0  0  0  0  0  0  0  0  0  0  0  0
   17.3133   -3.4909   48.9751 O   0  0  0  0  0  0  0  0  0  0  0  0
   17.1693   -5.3853   46.7755 O   0  0  0  0  0  0  0  0  0  0  0  0
   21.9549   -4.3315   44.4542 O   0  0  0  0  0  0  0  0  0  0  0  0
   20.4413   -0.2608   56.2239 C   0  0  1  0  0  0  0  0  0  0  0  0
   21.9983   -0.3688   56.0483 C   0  0  1  0  0  0  0  0  0  0  0  0
   22.6687   -0.4169   57.4684 C   0  0  2  0  0  0  0  0  0  0  0  0
   22.3292    0.8707   58.2343 C   0  0  1  0  0  0  0  0  0  0  0  0
   20.7662    0.9705   58.4223 C   0  0  0  0  0  0  0  0  0  0  0  0
   20.0887    1.0034   56.9960 C   0  0  2  0  0  0  0  0  0  0  0  0
   22.9703    0.8221   59.5380 N   0  0  0  0  0  0  0  0  0  0  0  0
   18.6098    1.0751   57.1297 N   0  0  0  0  0  0  0  0  0  0  0  0
   22.3250   -1.5882   55.3218 O   0  0  0  0  0  0  0  0  0  0  0  0
   24.0612   -0.4947   57.3163 O   0  0  0  0  0  0  0  0  0  0  0  0
  1  2  1  0  0  0  0
  1 12  1  1  0  0  0
  1 13  1  0  0  0  0
  2  3  1  0  0  0  0
  2 10  1  1  0  0  0
  4  3  1  1  0  0  0
  4  5  1  0  0  0  0
  4 14  1  0  0  0  0
  5  6  1  0  0  0  0
  5 13  1  1  0  0  0
  6  7  1  0  0  0  0
  6 15  1  6  0  0  0
  7  8  1  0  0  0  0
  7 11  1  6  0  0  0
  8 14  1  0  0  0  0
  8 16  1  6  0  0  0
  9 11  1  0  0  0  0
 17 16  1  1  0  0  0
 17 18  1  0  0  0  0
 17 24  1  0  0  0  0
 18 19  1  0  0  0  0
 18 25  1  1  0  0  0
 19 20  1  0  0  0  0
 19 26  1  6  0  0  0
 20 21  1  0  0  0  0
 20 23  1  1  0  0  0
 21 22  1  6  0  0  0
 21 24  1  0  0  0  0
 22 27  1  0  0  0  0
 28 12  1  6  0  0  0
 28 29  1  0  0  0  0
 28 33  1  0  0  0  0
 29 30  1  0  0  0  0
 29 36  1  6  0  0  0
 30 31  1  0  0  0  0
 30 37  1  6  0  0  0
 31 32  1  0  0  0  0
 31 34  1  1  0  0  0
 32 33  1  0  0  0  0
 33 35  1  1  0  0  0
M  END
>  <CHROM.1>
-148.43916909,93.79242393,-171.90773631,-142.26950926,-69.93383738,-49.03145260
20.59539874,-1.59563167,51.65767604,1.42223136,-0.28397241,1.12131905

>  <Name>
2oe5_lig

>  <RI>
0

>  <Rbt.Current_Directory>
/home/itssahil/PROJECTS/Mol_Feturizer/New_Systems/rnas/2oe5

>  <Rbt.Executable>
rbdock ($Id: //depot/dev/client3/rdock/2013.1/src/exe/rbdock.cxx#4 $)

>  <Rbt.Library>
libRbt.so (2013.1, Build901 2013/11/27)

>  <Rbt.Parameter_File>
/export/apps/rDock/src/rDock_2013.1_src/data/scripts/dock_solv.prm

>  <Rbt.Receptor>
prm/pocket_docking_4.prm

>  <SCORE>
-17.4932

>  <SCORE.INTER>
-16.2663

>  <SCORE.INTER.CONST>
1

>  <SCORE.INTER.POLAR>
-1.95105

>  <SCORE.INTER.ROT>
6

>  <SCORE.INTER.SOLV>
19.4007

>  <SCORE.INTER.VDW>
-18.4076

>  <SCORE.INTER.norm>
-0.43963

>  <SCORE.INTRA>
-1.22684

>  <SCORE.INTRA.DIHEDRAL>
-5.28923

>  <SCORE.INTRA.DIHEDRAL.0>
16.2083

>  <SCORE.INTRA.POLAR>
0

>  <SCORE.INTRA.POLAR.0>
0

>  <SCORE.INTRA.REPUL>
0

>  <SCORE.INTRA.REPUL.0>
0

>  <SCORE.INTRA.SOLV>
0.16719

>  <SCORE.INTRA.SOLV.lig_0>
-89.8095

>  <SCORE.INTRA.VDW>
1.33418

>  <SCORE.INTRA.VDW.0>
-3.19502

>  <SCORE.INTRA.norm>
-0.0331578

>  <SCORE.RESTR>
0

>  <SCORE.RESTR.CAVITY>
0

>  <SCORE.RESTR.norm>
0

>  <SCORE.SYSTEM>
0

>  <SCORE.SYSTEM.CONST>
0

>  <SCORE.SYSTEM.DIHEDRAL>
0

>  <SCORE.SYSTEM.SOLV>
0

>  <SCORE.SYSTEM.norm>
0

>  <SCORE.heavy>
37

>  <SCORE.norm>
-0.472788

>  <RMSD>
1.792

$$$$
2oe5_lig
 OpenBabel11021811463D
libRbt.so/2013.1/901 2013/11/27
 37 40  0  0  0  0  0  0  0  0999 V2000
   20.7786    1.1096   54.0073 C   0  0  1  0  0  0  0  0  0  0  0  0
   20.1094    1.7884   52.7913 C   0  0  1  0  0  0  0  0  0  0  0  0
   19.4822    0.6850   51.8605 C   0  0  0  0  0  0  0  0  0  0  0  0
   20.6641   -0.2208   51.4482 C   0  0  1  0  0  0  0  0  0  0  0  0
   21.3446   -0.9079   52.7136 C   0  0  1  0  0  0  0  0  0  0  0  0
   22.5314   -1.8292   52.3202 C   0  0  1  0  0  0  0  0  0  0  0  0
   21.9609   -2.9167   51.3659 C   0  0  1  0  0  0  0  0  0  0  0  0
   21.2592   -2.1947   50.1536 C   0  0  2  0  0  0  0  0  0  0  0  0
   24.1021   -3.3400   49.9172 C   0  0  0  0  0  0  0  0  0  0  0  0
   19.0447    2.7106   53.2491 N   0  0  0  0  0  0  0  0  0  0  0  0
   23.0659   -3.8320   50.8909 N   0  0  0  0  0  0  0  0  0  0  0  0
   19.8272    0.4019   54.8189 O   0  0  0  0  0  0  0  0  0  0  0  0
   21.8197    0.1516   53.6058 O   0  0  0  0  0  0  0  0  0  0  0  0
   20.1822   -1.2788   50.5768 O   0  0  0  0  0  0  0  0  0  0  0  0
   23.5207   -1.0219   51.6739 O   0  0  0  0  0  0  0  0  0  0  0  0
   20.6721   -3.1523   49.2948 O   0  0  0  0  0  0  0  0  0  0  0  0
   19.8189   -2.5147   48.3629 C   0  0  2  0  0  0  0  0  0  0  0  0
   18.4378   -3.1661   48.2999 C   0  0  1  0  0  0  0  0  0  0  0  0
   18.5299   -4.6274   47.7808 C   0  0  2  0  0  0  0  0  0  0  0  0
   19.2176   -4.5864   46.3840 C   0  0  1  0  0  0  0  0  0  0  0  0
   20.6354   -3.9492   46.5571 C   0  0  1  0  0  0  0  0  0  0  0  0
   21.3791   -3.8106   45.2474 C   0  0  0  0  0  0  0  0  0  0  0  0
   19.3094   -6.0041   45.8685 N   0  0  0  0  0  0  0  0  0  0  0  0
   20.4538   -2.5776   47.0473 O   0  0  0  0  0  0  0  0  0  0  0  0
   17.8797   -3.1280   49.6283 O   0  0  0  0  0  0  0  0  0  0  0  0
   17.1911   -5.1373   47.6443 O   0  0  0  0  0  0  0  0  0  0  0  0
   22.6045   -3.1823   45.4096 O   0  0  0  0  0  0  0  0  0  0  0  0
   20.1853    0.3151   56.1983 C   0  0  1  0  0  0  0  0  0  0  0  0
   21.5866   -0.3794   56.3432 C   0  0  1  0  0  0  0  0  0  0  0  0
   21.9643   -0.4511   57.8665 C   0  0  2  0  0  0  0  0  0  0  0  0
   22.0382    0.9724   58.4391 C   0  0  1  0  0  0  0  0  0  0  0  0
   20.6265    1.6635   58.3060 C   0  0  0  0  0  0  0  0  0  0  0  0
   20.2373    1.7229   56.7764 C   0  0  2  0  0  0  0  0  0  0  0  0
   22.4066    0.8931   59.8430 N   0  0  0  0  0  0  0  0  0  0  0  0
   18.8995    2.3492   56.6092 N   0  0  0  0  0  0  0  0  0  0  0  0
   21.5214   -1.7296   55.8008 O   0  0  0  0  0  0  0  0  0  0  0  0
   23.2240   -1.0543   57.9992 O   0  0  0  0  0  0  0  0  0  0  0  0
  1  2  1  0  0  0  0
  1 12  1  6  0  0  0
  1 13  1  0  0  0  0
  2  3  1  0  0  0  0
  2 10  1  1  0  0  0
  4  3  1  1  0  0  0
  4  5  1  0  0  0  0
  4 14  1  0  0  0  0
  5  6  1  0  0  0  0
  5 13  1  1  0  0  0
  6  7  1  0  0  0  0
  6 15  1  6  0  0  0
  7  8  1  0  0  0  0
  7 11  1  6  0  0  0
  8 14  1  0  0  0  0
  8 16  1  6  0  0  0
  9 11  1  0  0  0  0
 17 16  1  1  0  0  0
 17 18  1  0  0  0  0
 17 24  1  0  0  0  0
 18 19  1  0  0  0  0
 18 25  1  1  0  0  0
 19 20  1  0  0  0  0
 19 26  1  6  0  0  0
 20 21  1  0  0  0  0
 20 23  1  1  0  0  0
 21 22  1  6  0  0  0
 21 24  1  0  0  0  0
 22 27  1  0  0  0  0
 28 12  1  6  0  0  0
 28 29  1  0  0  0  0
 28 33  1  0  0  0  0
 29 30  1  0  0  0  0
 29 36  1  1  0  0  0
 30 31  1  0  0  0  0
 30 37  1  6  0  0  0
 31 32  1  0  0  0  0
 31 34  1  1  0  0  0
 32 33  1  0  0  0  0
 33 35  1  1  0  0  0
M  END
>  <CHROM.1>
-151.35212046,-71.10714249,168.21899179,-129.97884243,176.92519823,-57.58401036
20.78208162,-1.44283413,51.93237987,1.45998267,-0.40981057,1.08344038

>  <Name>
2oe5_lig

>  <RI>
0

>  <Rbt.Current_Directory>
/home/itssahil/PROJECTS/Mol_Feturizer/New_Systems/rnas/2oe5

>  <Rbt.Executable>
rbdock ($Id: //depot/dev/client3/rdock/2013.1/src/exe/rbdock.cxx#4 $)

>  <Rbt.Library>
libRbt.so (2013.1, Build901 2013/11/27)

>  <Rbt.Parameter_File>
/export/apps/rDock/src/rDock_2013.1_src/data/scripts/dock_solv.prm

>  <Rbt.Receptor>
prm/pocket_docking_2.prm

>  <SCORE>
-12.1387

>  <SCORE.INTER>
-13.0037

>  <SCORE.INTER.CONST>
1

>  <SCORE.INTER.POLAR>
-0.962376

>  <SCORE.INTER.ROT>
6

>  <SCORE.INTER.SOLV>
13.7894

>  <SCORE.INTER.VDW>
-17.6577

>  <SCORE.INTER.norm>
-0.351451

>  <SCORE.INTRA>
0.230134

>  <SCORE.INTRA.DIHEDRAL>
-5.27548

>  <SCORE.INTRA.DIHEDRAL.0>
16.2083

>  <SCORE.INTRA.POLAR>
0

>  <SCORE.INTRA.POLAR.0>
0

>  <SCORE.INTRA.REPUL>
0

>  <SCORE.INTRA.REPUL.0>
0

>  <SCORE.INTRA.SOLV>
-0.453677

>  <SCORE.INTRA.SOLV.lig_0>
-89.8095

>  <SCORE.INTRA.VDW>
3.09471

>  <SCORE.INTRA.VDW.0>
-3.19502

>  <SCORE.INTRA.norm>
0.00621983

>  <SCORE.RESTR>
0.634858

>  <SCORE.RESTR.CAVITY>
0.634858

>  <SCORE.RESTR.norm>
0.0171583

>  <SCORE.SYSTEM>
0

>  <SCORE.SYSTEM.CONST>
0

>  <SCORE.SYSTEM.DIHEDRAL>
0

>  <SCORE.SYSTEM.SOLV>
0

>  <SCORE.SYSTEM.norm>
0

>  <SCORE.heavy>
37

>  <SCORE.norm>
-0.328072

>  <RMSD>
1.793

$$$$
2oe5_lig
 OpenBabel11021811463D
libRbt.so/2013.1/901 2013/11/27
 37 40  0  0  0  0  0  0  0  0999 V2000
   20.8111    1.1149   53.9959 C   0  0  1  0  0  0  0  0  0  0  0  0
   20.1788    1.9042   52.8278 C   0  0  1  0  0  0  0  0  0  0  0  0
   19.0733    1.0191   52.1410 C   0  0  0  0  0  0  0  0  0  0  0  0
   19.8092   -0.2510   51.6586 C   0  0  1  0  0  0  0  0  0  0  0  0
   20.4585   -1.0489   52.8744 C   0  0  1  0  0  0  0  0  0  0  0  0
   21.1975   -2.3342   52.4116 C   0  0  1  0  0  0  0  0  0  0  0  0
   20.1455   -3.2246   51.6911 C   0  0  1  0  0  0  0  0  0  0  0  0
   19.4973   -2.3836   50.5267 C   0  0  2  0  0  0  0  0  0  0  0  0
   19.9565   -5.6570   50.7370 C   0  0  0  0  0  0  0  0  0  0  0  0
   19.5655    3.1534   53.3346 N   0  0  0  0  0  0  0  0  0  0  0  0
   20.7952   -4.4818   51.1603 N   0  0  0  0  0  0  0  0  0  0  0  0
   19.8519    0.8133   55.0225 O   0  0  0  0  0  0  0  0  0  0  0  0
   21.4014   -0.1569   53.5521 O   0  0  0  0  0  0  0  0  0  0  0  0
   18.8643   -1.1382   51.0023 O   0  0  0  0  0  0  0  0  0  0  0  0
   22.2541   -1.9418   51.5297 O   0  0  0  0  0  0  0  0  0  0  0  0
   18.4887   -3.1406   49.8873 O   0  0  0  0  0  0  0  0  0  0  0  0
   18.2801   -2.6634   48.5713 C   0  0  2  0  0  0  0  0  0  0  0  0
   17.5628   -3.6854   47.6900 C   0  0  1  0  0  0  0  0  0  0  0  0
   18.4282   -4.9599   47.4908 C   0  0  2  0  0  0  0  0  0  0  0  0
   19.7868   -4.5127   46.8744 C   0  0  1  0  0  0  0  0  0  0  0  0
   20.4643   -3.5088   47.8641 C   0  0  1  0  0  0  0  0  0  0  0  0
   21.7751   -2.9652   47.3410 C   0  0  0  0  0  0  0  0  0  0  0  0
   20.6358   -5.7468   46.6738 N   0  0  0  0  0  0  0  0  0  0  0  0
   19.5834   -2.3417   47.9919 O   0  0  0  0  0  0  0  0  0  0  0  0
   16.3131   -4.0091   48.3311 O   0  0  0  0  0  0  0  0  0  0  0  0
   17.7418   -5.8253   46.5682 O   0  0  0  0  0  0  0  0  0  0  0  0
   22.3122   -2.0038   48.1835 O   0  0  0  0  0  0  0  0  0  0  0  0
   20.2670    1.1834   56.3375 C   0  0  1  0  0  0  0  0  0  0  0  0
   19.0170    1.2844   57.2831 C   0  0  1  0  0  0  0  0  0  0  0  0
   19.4999    1.6792   58.7251 C   0  0  2  0  0  0  0  0  0  0  0  0
   20.4548    0.5987   59.2545 C   0  0  1  0  0  0  0  0  0  0  0  0
   21.7164    0.5085   58.3119 C   0  0  0  0  0  0  0  0  0  0  0  0
   21.2322    0.1269   56.8579 C   0  0  2  0  0  0  0  0  0  0  0  0
   20.8792    0.9661   60.5954 N   0  0  0  0  0  0  0  0  0  0  0  0
   22.3923    0.0532   55.9313 N   0  0  0  0  0  0  0  0  0  0  0  0
   18.1081    2.3075   56.7844 O   0  0  0  0  0  0  0  0  0  0  0  0
   18.3880    1.7524   59.5775 O   0  0  0  0  0  0  0  0  0  0  0  0
  1  2  1  0  0  0  0
  1 12  1  1  0  0  0
  1 13  1  0  0  0  0
  2  3  1  0  0  0  0
  2 10  1  1  0  0  0
  4  3  1  1  0  0  0
  4  5  1  0  0  0  0
  4 14  1  0  0  0  0
  5  6  1  0  0  0  0
  5 13  1  6  0  0  0
  6  7  1  0  0  0  0
  6 15  1  6  0  0  0
  7  8  1  0  0  0  0
  7 11  1  6  0  0  0
  8 14  1  0  0  0  0
  8 16  1  1  0  0  0
  9 11  1  0  0  0  0
 17 16  1  1  0  0  0
 17 18  1  0  0  0  0
 17 24  1  0  0  0  0
 18 19  1  0  0  0  0
 18 25  1  1  0  0  0
 19 20  1  0  0  0  0
 19 26  1  6  0  0  0
 20 21  1  0  0  0  0
 20 23  1  1  0  0  0
 21 22  1  6  0  0  0
 21 24  1  0  0  0  0
 22 27  1  0  0  0  0
 28 12  1  6  0  0  0
 28 29  1  0  0  0  0
 28 33  1  0  0  0  0
 29 30  1  0  0  0  0
 29 36  1  6  0  0  0
 30 31  1  0  0  0  0
 30 37  1  1  0  0  0
 31 32  1  0  0  0  0
 31 34  1  1  0  0  0
 32 33  1  0  0  0  0
 33 35  1  6  0  0  0
M  END
>  <CHROM.1>
-128.75738792,164.45276794,-156.63040494,161.32623445,175.52948649,160.48587236
19.90494629,-1.35417754,52.33018831,-1.49889714,0.35997146,-2.10403020

>  <Name>
2oe5_lig

>  <RI>
0

>  <Rbt.Current_Directory>
/home/itssahil/PROJECTS/Mol_Feturizer/New_Systems/rnas/2oe5

>  <Rbt.Executable>
rbdock ($Id: //depot/dev/client3/rdock/2013.1/src/exe/rbdock.cxx#4 $)

>  <Rbt.Library>
libRbt.so (2013.1, Build901 2013/11/27)

>  <Rbt.Parameter_File>
/export/apps/rDock/src/rDock_2013.1_src/data/scripts/dock_solv.prm

>  <Rbt.Receptor>
prm/pocket_docking_3.prm

>  <SCORE>
-16.3199

>  <SCORE.INTER>
-17.0867

>  <SCORE.INTER.CONST>
1

>  <SCORE.INTER.POLAR>
-1.42921

>  <SCORE.INTER.ROT>
6

>  <SCORE.INTER.SOLV>
11.6985

>  <SCORE.INTER.VDW>
-18.1266

>  <SCORE.INTER.norm>
-0.461802

>  <SCORE.INTRA>
0.697696

>  <SCORE.INTRA.DIHEDRAL>
-3.44297

>  <SCORE.INTRA.DIHEDRAL.0>
16.2083

>  <SCORE.INTRA.POLAR>
0

>  <SCORE.INTRA.POLAR.0>
0

>  <SCORE.INTRA.REPUL>
0.0748741

>  <SCORE.INTRA.REPUL.0>
0

>  <SCORE.INTRA.SOLV>
1.27205

>  <SCORE.INTRA.SOLV.lig_0>
-89.8095

>  <SCORE.INTRA.VDW>
1.40879

>  <SCORE.INTRA.VDW.0>
-3.19502

>  <SCORE.INTRA.norm>
0.0188566

>  <SCORE.RESTR>
0.0690524

>  <SCORE.RESTR.CAVITY>
0.0690524

>  <SCORE.RESTR.norm>
0.00186628

>  <SCORE.SYSTEM>
0

>  <SCORE.SYSTEM.CONST>
0

>  <SCORE.SYSTEM.DIHEDRAL>
0

>  <SCORE.SYSTEM.SOLV>
0

>  <SCORE.SYSTEM.norm>
0

>  <SCORE.heavy>
37

>  <SCORE.norm>
-0.441079

>  <RMSD>
1.808

$$$$
2oe5_lig
 OpenBabel11021811463D
libRbt.so/2013.1/901 2013/11/27
 37 40  0  0  0  0  0  0  0  0999 V2000
   20.5687    1.4616   53.9595 C   0  0  1  0  0  0  0  0  0  0  0  0
   19.7508    2.1481   52.8428 C   0  0  1  0  0  0  0  0  0  0  0  0
   18.7271    1.1160   52.2394 C   0  0  0  0  0  0  0  0  0  0  0  0
   19.5899   -0.0477   51.7020 C   0  0  1  0  0  0  0  0  0  0  0  0
   20.4293   -0.7400   52.8650 C   0  0  1  0  0  0  0  0  0  0  0  0
   21.2987   -1.9181   52.3470 C   0  0  1  0  0  0  0  0  0  0  0  0
   20.3260   -2.9485   51.7060 C   0  0  1  0  0  0  0  0  0  0  0  0
   19.4858   -2.2129   50.5941 C   0  0  2  0  0  0  0  0  0  0  0  0
   20.5576   -5.5123   51.2204 C   0  0  0  0  0  0  0  0  0  0  0  0
   19.0138    3.3078   53.3954 N   0  0  0  0  0  0  0  0  0  0  0  0
   21.0984   -4.1114   51.1268 N   0  0  0  0  0  0  0  0  0  0  0  0
   19.7377    1.0428   55.0545 O   0  0  0  0  0  0  0  0  0  0  0  0
   21.2908    0.2770   53.4715 O   0  0  0  0  0  0  0  0  0  0  0  0
   18.7274   -1.0600   51.1170 O   0  0  0  0  0  0  0  0  0  0  0  0
   22.2244   -1.3948   51.3891 O   0  0  0  0  0  0  0  0  0  0  0  0
   18.5440   -3.1046   50.0309 O   0  0  0  0  0  0  0  0  0  0  0  0
   18.4125   -2.8633   48.6426 C   0  0  2  0  0  0  0  0  0  0  0  0
   17.6153   -3.9590   47.9358 C   0  0  1  0  0  0  0  0  0  0  0  0
   18.3526   -5.3244   48.0079 C   0  0  2  0  0  0  0  0  0  0  0  0
   19.7621   -5.1303   47.3742 C   0  0  1  0  0  0  0  0  0  0  0  0
   20.5155   -4.0282   48.1893 C   0  0  1  0  0  0  0  0  0  0  0  0
   21.8851   -3.7180   47.6277 C   0  0  0  0  0  0  0  0  0  0  0  0
   20.4872   -6.4548   47.4369 N   0  0  0  0  0  0  0  0  0  0  0  0
   19.7535   -2.7798   48.0661 O   0  0  0  0  0  0  0  0  0  0  0  0
   16.3260   -4.0380   48.5755 O   0  0  0  0  0  0  0  0  0  0  0  0
   17.6029   -6.2775   47.2331 O   0  0  0  0  0  0  0  0  0  0  0  0
   22.5542   -2.7683   48.3847 O   0  0  0  0  0  0  0  0  0  0  0  0
   20.2714    1.3473   56.3433 C   0  0  1  0  0  0  0  0  0  0  0  0
   19.7806    2.7670   56.8023 C   0  0  1  0  0  0  0  0  0  0  0  0
   20.3692    3.0733   58.2264 C   0  0  2  0  0  0  0  0  0  0  0  0
   19.8701    2.0141   59.2209 C   0  0  1  0  0  0  0  0  0  0  0  0
   20.3759    0.5908   58.7664 C   0  0  0  0  0  0  0  0  0  0  0  0
   19.7982    0.2869   57.3283 C   0  0  2  0  0  0  0  0  0  0  0  0
   20.4060    2.3194   60.5372 N   0  0  0  0  0  0  0  0  0  0  0  0
   20.2709   -1.0400   56.8531 N   0  0  0  0  0  0  0  0  0  0  0  0
   20.2511    3.7746   55.8617 O   0  0  0  0  0  0  0  0  0  0  0  0
   19.9181    4.3330   58.6483 O   0  0  0  0  0  0  0  0  0  0  0  0
  1  2  1  0  0  0  0
  1 12  1  1  0  0  0
  1 13  1  0  0  0  0
  2  3  1  0  0  0  0
  2 10  1  1  0  0  0
  4  3  1  1  0  0  0
  4  5  1  0  0  0  0
  4 14  1  0  0  0  0
  5  6  1  0  0  0  0
  5 13  1  6  0  0  0
  6  7  1  0  0  0  0
  6 15  1  6  0  0  0
  7  8  1  0  0  0  0
  7 11  1  6  0  0  0
  8 14  1  0  0  0  0
  8 16  1  1  0  0  0
  9 11  1  0  0  0  0
 17 16  1  1  0  0  0
 17 18  1  0  0  0  0
 17 24  1  0  0  0  0
 18 19  1  0  0  0  0
 18 25  1  1  0  0  0
 19 20  1  0  0  0  0
 19 26  1  6  0  0  0
 20 21  1  0  0  0  0
 20 23  1  1  0  0  0
 21 22  1  6  0  0  0
 21 24  1  0  0  0  0
 22 27  1  0  0  0  0
 28 12  1  6  0  0  0
 28 29  1  0  0  0  0
 28 33  1  0  0  0  0
 29 30  1  0  0  0  0
 29 36  1  6  0  0  0
 30 31  1  0  0  0  0
 30 37  1  1  0  0  0
 31 32  1  0  0  0  0
 31 34  1  1  0  0  0
 32 33  1  0  0  0  0
 33 35  1  6  0  0  0
M  END
>  <CHROM.1>
-135.39267745,142.34593260,-142.88044859,169.14712179,-178.21938534,90.05684786
19.88843425,-1.13644020,52.42103394,1.43061694,-1.13717385,0.80658258

>  <Name>
2oe5_lig

>  <RI>
0

>  <Rbt.Current_Directory>
/home/itssahil/PROJECTS/Mol_Feturizer/New_Systems/rnas/2oe5

>  <Rbt.Executable>
rbdock ($Id: //depot/dev/client3/rdock/2013.1/src/exe/rbdock.cxx#4 $)

>  <Rbt.Library>
libRbt.so (2013.1, Build901 2013/11/27)

>  <Rbt.Parameter_File>
/export/apps/rDock/src/rDock_2013.1_src/data/scripts/dock_solv.prm

>  <Rbt.Receptor>
prm/pocket_docking_5.prm

>  <SCORE>
-14.415

>  <SCORE.INTER>
-14.5123

>  <SCORE.INTER.CONST>
1

>  <SCORE.INTER.POLAR>
-1.44439

>  <SCORE.INTER.ROT>
6

>  <SCORE.INTER.SOLV>
14.4026

>  <SCORE.INTER.VDW>
-17.2611

>  <SCORE.INTER.norm>
-0.392224

>  <SCORE.INTRA>
0.0972828

>  <SCORE.INTRA.DIHEDRAL>
-0.204055

>  <SCORE.INTRA.DIHEDRAL.0>
16.2083

>  <SCORE.INTRA.POLAR>
0

>  <SCORE.INTRA.POLAR.0>
0

>  <SCORE.INTRA.REPUL>
0.0233031

>  <SCORE.INTRA.REPUL.0>
0

>  <SCORE.INTRA.SOLV>
1.80405

>  <SCORE.INTRA.SOLV.lig_0>
-89.8095

>  <SCORE.INTRA.VDW>
-0.819228

>  <SCORE.INTRA.VDW.0>
-3.19502

>  <SCORE.INTRA.norm>
0.00262926

>  <SCORE.RESTR>
0

>  <SCORE.RESTR.CAVITY>
0

>  <SCORE.RESTR.norm>
0

>  <SCORE.SYSTEM>
0

>  <SCORE.SYSTEM.CONST>
0

>  <SCORE.SYSTEM.DIHEDRAL>
0

>  <SCORE.SYSTEM.SOLV>
0

>  <SCORE.SYSTEM.norm>
0

>  <SCORE.heavy>
37

>  <SCORE.norm>
-0.389595

>  <RMSD>
1.815

$$$$
2oe5_lig
 OpenBabel11021811463D
libRbt.so/2013.1/901 2013/11/27
 37 40  0  0  0  0  0  0  0  0999 V2000
   20.4966    0.6468   54.0720 C   0  0  1  0  0  0  0  0  0  0  0  0
   19.4990    1.2376   53.0506 C   0  0  1  0  0  0  0  0  0  0  0  0
   18.9855    0.0906   52.1031 C   0  0  0  0  0  0  0  0  0  0  0  0
   20.2527   -0.4753   51.4237 C   0  0  1  0  0  0  0  0  0  0  0  0
   21.2711   -1.0750   52.4911 C   0  0  1  0  0  0  0  0  0  0  0  0
   22.5496   -1.6562   51.8279 C   0  0  1  0  0  0  0  0  0  0  0  0
   22.0831   -2.7725   50.8507 C   0  0  1  0  0  0  0  0  0  0  0  0
   21.0454   -2.1480   49.8426 C   0  0  2  0  0  0  0  0  0  0  0  0
   23.2330   -4.7807   49.6228 C   0  0  0  0  0  0  0  0  0  0  0  0
   18.3484    1.8435   53.7595 N   0  0  0  0  0  0  0  0  0  0  0  0
   23.2680   -3.3610   50.1199 N   0  0  0  0  0  0  0  0  0  0  0  0
   19.8760   -0.3257   54.9288 O   0  0  0  0  0  0  0  0  0  0  0  0
   21.6419   -0.0038   53.4180 O   0  0  0  0  0  0  0  0  0  0  0  0
   19.8786   -1.5483   50.5185 O   0  0  0  0  0  0  0  0  0  0  0  0
   23.2122   -0.5908   51.1393 O   0  0  0  0  0  0  0  0  0  0  0  0
   20.5501   -3.1497   48.9763 O   0  0  0  0  0  0  0  0  0  0  0  0
   19.6739   -2.5804   48.0217 C   0  0  2  0  0  0  0  0  0  0  0  0
   18.3415   -3.3245   47.9402 C   0  0  1  0  0  0  0  0  0  0  0  0
   18.5421   -4.7810   47.4390 C   0  0  2  0  0  0  0  0  0  0  0  0
   19.2522   -4.7071   46.0548 C   0  0  1  0  0  0  0  0  0  0  0  0
   20.6202   -3.9736   46.2472 C   0  0  1  0  0  0  0  0  0  0  0  0
   21.3779   -3.7976   44.9502 C   0  0  0  0  0  0  0  0  0  0  0  0
   19.4496   -6.1203   45.5567 N   0  0  0  0  0  0  0  0  0  0  0  0
   20.3369   -2.6128   46.7190 O   0  0  0  0  0  0  0  0  0  0  0  0
   17.7566   -3.3114   49.2575 O   0  0  0  0  0  0  0  0  0  0  0  0
   17.2437   -5.3818   47.2832 O   0  0  0  0  0  0  0  0  0  0  0  0
   22.6369   -3.2534   45.1535 O   0  0  0  0  0  0  0  0  0  0  0  0
   20.4688   -0.4270   56.2238 C   0  0  1  0  0  0  0  0  0  0  0  0
   22.0125   -0.6814   56.0856 C   0  0  1  0  0  0  0  0  0  0  0  0
   22.6436   -0.7757   57.5214 C   0  0  2  0  0  0  0  0  0  0  0  0
   22.4085    0.5465   58.2674 C   0  0  1  0  0  0  0  0  0  0  0  0
   20.8579    0.7934   58.4179 C   0  0  0  0  0  0  0  0  0  0  0  0
   20.2185    0.8731   56.9760 C   0  0  2  0  0  0  0  0  0  0  0  0
   23.0130    0.4531   59.5861 N   0  0  0  0  0  0  0  0  0  0  0  0
   18.7502    1.0837   57.0744 N   0  0  0  0  0  0  0  0  0  0  0  0
   22.2402   -1.9340   55.3781 O   0  0  0  0  0  0  0  0  0  0  0  0
   24.0258   -0.9845   57.4025 O   0  0  0  0  0  0  0  0  0  0  0  0
  1  2  1  0  0  0  0
  1 12  1  6  0  0  0
  1 13  1  0  0  0  0
  2  3  1  0  0  0  0
  2 10  1  1  0  0  0
  4  3  1  1  0  0  0
  4  5  1  0  0  0  0
  4 14  1  0  0  0  0
  5  6  1  0  0  0  0
  5 13  1  1  0  0  0
  6  7  1  0  0  0  0
  6 15  1  6  0  0  0
  7  8  1  0  0  0  0
  7 11  1  6  0  0  0
  8 14  1  0  0  0  0
  8 16  1  6  0  0  0
  9 11  1  0  0  0  0
 17 16  1  1  0  0  0
 17 18  1  0  0  0  0
 17 24  1  0  0  0  0
 18 19  1  0  0  0  0
 18 25  1  1  0  0  0
 19 20  1  0  0  0  0
 19 26  1  6  0  0  0
 20 21  1  0  0  0  0
 20 23  1  1  0  0  0
 21 22  1  6  0  0  0
 21 24  1  0  0  0  0
 22 27  1  0  0  0  0
 28 12  1  6  0  0  0
 28 29  1  0  0  0  0
 28 33  1  0  0  0  0
 29 30  1  0  0  0  0
 29 36  1  1  0  0  0
 30 31  1  0  0  0  0
 30 37  1  6  0  0  0
 31 32  1  0  0  0  0
 31 34  1  1  0  0  0
 32 33  1  0  0  0  0
 33 35  1  1  0  0  0
M  END
>  <CHROM.1>
-151.21611426,152.32925499,-176.78307053,-129.47167415,-174.68818357,-53.83165411
20.77009618,-1.72971936,51.72810808,1.43961801,-0.27155544,1.13456559

>  <Name>
2oe5_lig

>  <RI>
0

>  <Rbt.Current_Directory>
/home/itssahil/PROJECTS/Mol_Feturizer/New_Systems/rnas/2oe5

>  <Rbt.Executable>
rbdock ($Id: //depot/dev/client3/rdock/2013.1/src/exe/rbdock.cxx#4 $)

>  <Rbt.Library>
libRbt.so (2013.1, Build901 2013/11/27)

>  <Rbt.Parameter_File>
/export/apps/rDock/src/rDock_2013.1_src/data/scripts/dock_solv.prm

>  <Rbt.Receptor>
prm/pocket_docking_5.prm

>  <SCORE>
-19.4181

>  <SCORE.INTER>
-17.5036

>  <SCORE.INTER.CONST>
1

>  <SCORE.INTER.POLAR>
-1.68766

>  <SCORE.INTER.ROT>
6

>  <SCORE.INTER.SOLV>
19.7673

>  <SCORE.INTER.VDW>
-20.2326

>  <SCORE.INTER.norm>
-0.47307

>  <SCORE.INTRA>
-1.91453

>  <SCORE.INTRA.DIHEDRAL>
-5.16629

>  <SCORE.INTRA.DIHEDRAL.0>
16.2083

>  <SCORE.INTRA.POLAR>
0

>  <SCORE.INTRA.POLAR.0>
0

>  <SCORE.INTRA.REPUL>
0

>  <SCORE.INTRA.REPUL.0>
0

>  <SCORE.INTRA.SOLV>
-0.740215

>  <SCORE.INTRA.SOLV.lig_0>
-89.8095

>  <SCORE.INTRA.VDW>
1.03872

>  <SCORE.INTRA.VDW.0>
-3.19502

>  <SCORE.INTRA.norm>
-0.0517441

>  <SCORE.RESTR>
0

>  <SCORE.RESTR.CAVITY>
0

>  <SCORE.RESTR.norm>
0

>  <SCORE.SYSTEM>
0

>  <SCORE.SYSTEM.CONST>
0

>  <SCORE.SYSTEM.DIHEDRAL>
0

>  <SCORE.SYSTEM.SOLV>
0

>  <SCORE.SYSTEM.norm>
0

>  <SCORE.heavy>
37

>  <SCORE.norm>
-0.524814

>  <RMSD>
1.816

$$$$
2oe5_lig
 OpenBabel11021811463D
libRbt.so/2013.1/901 2013/11/27
 37 40  0  0  0  0  0  0  0  0999 V2000
   20.4070    0.6961   53.9398 C   0  0  1  0  0  0  0  0  0  0  0  0
   19.3630    1.2694   52.9555 C   0  0  1  0  0  0  0  0  0  0  0  0
   18.8399    0.1149   52.0224 C   0  0  0  0  0  0  0  0  0  0  0  0
   20.0938   -0.4235   51.2976 C   0  0  1  0  0  0  0  0  0  0  0  0
   21.1604   -1.0056   52.3271 C   0  0  1  0  0  0  0  0  0  0  0  0
   22.4265   -1.5592   51.6180 C   0  0  1  0  0  0  0  0  0  0  0  0
   21.9487   -2.6820   50.6538 C   0  0  1  0  0  0  0  0  0  0  0  0
   20.8644   -2.0757   49.6843 C   0  0  2  0  0  0  0  0  0  0  0  0
   24.0795   -4.2013   50.5334 C   0  0  0  0  0  0  0  0  0  0  0  0
   18.2258    1.8503   53.7058 N   0  0  0  0  0  0  0  0  0  0  0  0
   23.1191   -3.2446   49.8804 N   0  0  0  0  0  0  0  0  0  0  0  0
   19.8361   -0.2910   54.8142 O   0  0  0  0  0  0  0  0  0  0  0  0
   21.5417    0.0704   53.2442 O   0  0  0  0  0  0  0  0  0  0  0  0
   19.7101   -1.5013   50.4023 O   0  0  0  0  0  0  0  0  0  0  0  0
   23.0434   -0.4789   50.9105 O   0  0  0  0  0  0  0  0  0  0  0  0
   20.3595   -3.0848   48.8323 O   0  0  0  0  0  0  0  0  0  0  0  0
   19.4587   -2.5264   47.8942 C   0  0  2  0  0  0  0  0  0  0  0  0
   18.1445   -3.3026   47.8182 C   0  0  1  0  0  0  0  0  0  0  0  0
   18.3757   -4.7477   47.2973 C   0  0  2  0  0  0  0  0  0  0  0  0
   19.0684   -4.6397   45.9065 C   0  0  1  0  0  0  0  0  0  0  0  0
   20.4196   -3.8745   46.0929 C   0  0  1  0  0  0  0  0  0  0  0  0
   21.1582   -3.6643   44.7900 C   0  0  0  0  0  0  0  0  0  0  0  0
   19.2953   -6.0415   45.3893 N   0  0  0  0  0  0  0  0  0  0  0  0
   20.1078   -2.5269   46.5841 O   0  0  0  0  0  0  0  0  0  0  0  0
   17.5741   -3.3197   49.1418 O   0  0  0  0  0  0  0  0  0  0  0  0
   17.0911   -5.3790   47.1484 O   0  0  0  0  0  0  0  0  0  0  0  0
   22.4441   -3.1868   44.9926 O   0  0  0  0  0  0  0  0  0  0  0  0
   20.4886   -0.3986   56.0796 C   0  0  1  0  0  0  0  0  0  0  0  0
   22.0256   -0.6434   55.8684 C   0  0  1  0  0  0  0  0  0  0  0  0
   22.7227   -0.7447   57.2727 C   0  0  2  0  0  0  0  0  0  0  0  0
   22.5155    0.5706   58.0388 C   0  0  1  0  0  0  0  0  0  0  0  0
   20.9722    0.8078   58.2627 C   0  0  0  0  0  0  0  0  0  0  0  0
   20.2665    0.8946   56.8524 C   0  0  2  0  0  0  0  0  0  0  0  0
   23.1807    0.4708   59.3275 N   0  0  0  0  0  0  0  0  0  0  0  0
   18.8032    1.0963   57.0201 N   0  0  0  0  0  0  0  0  0  0  0  0
   22.2268   -1.8895   55.1416 O   0  0  0  0  0  0  0  0  0  0  0  0
   24.0990   -0.9450   57.0886 O   0  0  0  0  0  0  0  0  0  0  0  0
  1  2  1  0  0  0  0
  1 12  1  1  0  0  0
  1 13  1  0  0  0  0
  2  3  1  0  0  0  0
  2 10  1  1  0  0  0
  4  3  1  1  0  0  0
  4  5  1  0  0  0  0
  4 14  1  0  0  0  0
  5  6  1  0  0  0  0
  5 13  1  1  0  0  0
  6  7  1  0  0  0  0
  6 15  1  6  0  0  0
  7  8  1  0  0  0  0
  7 11  1  6  0  0  0
  8 14  1  0  0  0  0
  8 16  1  6  0  0  0
  9 11  1  0  0  0  0
 17 16  1  1  0  0  0
 17 18  1  0  0  0  0
 17 24  1  0  0  0  0
 18 19  1  0  0  0  0
 18 25  1  1  0  0  0
 19 20  1  0  0  0  0
 19 26  1  6  0  0  0
 20 21  1  0  0  0  0
 20 23  1  1  0  0  0
 21 22  1  6  0  0  0
 21 24  1  0  0  0  0
 22 27  1  0  0  0  0
 28 12  1  6  0  0  0
 28 29  1  0  0  0  0
 28 33  1  0  0  0  0
 29 30  1  0  0  0  0
 29 36  1  1  0  0  0
 30 31  1  0  0  0  0
 30 37  1  6  0  0  0
 31 32  1  0  0  0  0
 31 34  1  1  0  0  0
 32 33  1  0  0  0  0
 33 35  1  1  0  0  0
M  END
>  <CHROM.1>
-152.15153408,76.87464976,-175.67767285,-130.90292911,-170.08099664,-54.13904072
20.70007645,-1.66325449,51.59781713,1.41312462,-0.25242820,1.13536005

>  <Name>
2oe5_lig

>  <RI>
0

>  <Rbt.Current_Directory>
/home/itssahil/PROJECTS/Mol_Feturizer/New_Systems/rnas/2oe5

>  <Rbt.Executable>
rbdock ($Id: //depot/dev/client3/rdock/2013.1/src/exe/rbdock.cxx#4 $)

>  <Rbt.Library>
libRbt.so (2013.1, Build901 2013/11/27)

>  <Rbt.Parameter_File>
/export/apps/rDock/src/rDock_2013.1_src/data/scripts/dock_solv.prm

>  <Rbt.Receptor>
prm/pocket_docking_8.prm

>  <SCORE>
-19.6513

>  <SCORE.INTER>
-17.913

>  <SCORE.INTER.CONST>
1

>  <SCORE.INTER.POLAR>
-1.84316

>  <SCORE.INTER.ROT>
6

>  <SCORE.INTER.SOLV>
20.0228

>  <SCORE.INTER.VDW>
-20.0724

>  <SCORE.INTER.norm>
-0.484136

>  <SCORE.INTRA>
-1.73832

>  <SCORE.INTRA.DIHEDRAL>
-5.52042

>  <SCORE.INTRA.DIHEDRAL.0>
16.2083

>  <SCORE.INTRA.POLAR>
0

>  <SCORE.INTRA.POLAR.0>
0

>  <SCORE.INTRA.REPUL>
0

>  <SCORE.INTRA.REPUL.0>
0

>  <SCORE.INTRA.SOLV>
-0.786424

>  <SCORE.INTRA.SOLV.lig_0>
-89.8095

>  <SCORE.INTRA.VDW>
1.41511

>  <SCORE.INTRA.VDW.0>
-3.19502

>  <SCORE.INTRA.norm>
-0.0469815

>  <SCORE.RESTR>
0

>  <SCORE.RESTR.CAVITY>
0

>  <SCORE.RESTR.norm>
0

>  <SCORE.SYSTEM>
0

>  <SCORE.SYSTEM.CONST>
0

>  <SCORE.SYSTEM.DIHEDRAL>
0

>  <SCORE.SYSTEM.SOLV>
0

>  <SCORE.SYSTEM.norm>
0

>  <SCORE.heavy>
37

>  <SCORE.norm>
-0.531117

>  <RMSD>
1.845

$$$$
2oe5_lig
 OpenBabel11021811463D
libRbt.so/2013.1/901 2013/11/27
 37 40  0  0  0  0  0  0  0  0999 V2000
   20.9439    2.3096   53.4568 C   0  0  1  0  0  0  0  0  0  0  0  0
   19.6007    2.5035   52.7181 C   0  0  1  0  0  0  0  0  0  0  0  0
   19.0800    1.1070   52.2121 C   0  0  0  0  0  0  0  0  0  0  0  0
   20.1892    0.5717   51.2791 C   0  0  1  0  0  0  0  0  0  0  0  0
   21.5668    0.3828   52.0555 C   0  0  1  0  0  0  0  0  0  0  0  0
   22.6943   -0.1619   51.1367 C   0  0  1  0  0  0  0  0  0  0  0  0
   22.2031   -1.5296   50.5826 C   0  0  1  0  0  0  0  0  0  0  0  0
   20.8193   -1.3054   49.8629 C   0  0  2  0  0  0  0  0  0  0  0  0
   24.5048   -2.7049   50.1541 C   0  0  0  0  0  0  0  0  0  0  0  0
   18.6012    3.1000   53.6338 N   0  0  0  0  0  0  0  0  0  0  0  0
   23.2251   -2.1099   49.6322 N   0  0  0  0  0  0  0  0  0  0  0  0
   20.7991    1.4928   54.6302 O   0  0  0  0  0  0  0  0  0  0  0  0
   21.9629    1.6824   52.6019 O   0  0  0  0  0  0  0  0  0  0  0  0
   19.7965   -0.7249   50.7543 O   0  0  0  0  0  0  0  0  0  0  0  0
   22.9076    0.7895   50.0892 O   0  0  0  0  0  0  0  0  0  0  0  0
   20.3096   -2.5404   49.3999 O   0  0  0  0  0  0  0  0  0  0  0  0
   19.5079   -2.3382   48.2513 C   0  0  2  0  0  0  0  0  0  0  0  0
   18.4207   -3.4026   48.1074 C   0  0  1  0  0  0  0  0  0  0  0  0
   19.0395   -4.8102   47.8861 C   0  0  2  0  0  0  0  0  0  0  0  0
   19.9461   -4.7306   46.6222 C   0  0  1  0  0  0  0  0  0  0  0  0
   21.0500   -3.6534   46.8811 C   0  0  1  0  0  0  0  0  0  0  0  0
   21.9630   -3.4528   45.6921 C   0  0  0  0  0  0  0  0  0  0  0  0
   20.5511   -6.0970   46.3963 N   0  0  0  0  0  0  0  0  0  0  0  0
   20.3797   -2.3625   47.0778 O   0  0  0  0  0  0  0  0  0  0  0  0
   17.6256   -3.3752   49.3093 O   0  0  0  0  0  0  0  0  0  0  0  0
   17.9647   -5.7379   47.6509 O   0  0  0  0  0  0  0  0  0  0  0  0
   21.2582   -3.1149   44.5468 O   0  0  0  0  0  0  0  0  0  0  0  0
   20.5859    2.2309   55.8337 C   0  0  1  0  0  0  0  0  0  0  0  0
   19.9062    1.3112   56.9103 C   0  0  1  0  0  0  0  0  0  0  0  0
   19.6943    2.1406   58.2278 C   0  0  2  0  0  0  0  0  0  0  0  0
   21.0568    2.6190   58.7515 C   0  0  1  0  0  0  0  0  0  0  0  0
   21.7318    3.5540   57.6752 C   0  0  0  0  0  0  0  0  0  0  0  0
   21.9318    2.7271   56.3445 C   0  0  2  0  0  0  0  0  0  0  0  0
   20.8488    3.3682   59.9797 N   0  0  0  0  0  0  0  0  0  0  0  0
   22.5469    3.5812   55.2948 N   0  0  0  0  0  0  0  0  0  0  0  0
   18.6138    0.8546   56.4175 O   0  0  0  0  0  0  0  0  0  0  0  0
   19.1041    1.3173   59.1985 O   0  0  0  0  0  0  0  0  0  0  0  0
  1  2  1  0  0  0  0
  1 12  1  1  0  0  0
  1 13  1  0  0  0  0
  2  3  1  0  0  0  0
  2 10  1  1  0  0  0
  4  3  1  1  0  0  0
  4  5  1  0  0  0  0
  4 14  1  0  0  0  0
  5  6  1  0  0  0  0
  5 13  1  6  0  0  0
  6  7  1  0  0  0  0
  6 15  1  6  0  0  0
  7  8  1  0  0  0  0
  7 11  1  6  0  0  0
  8 14  1  0  0  0  0
  8 16  1  1  0  0  0
  9 11  1  0  0  0  0
 17 16  1  1  0  0  0
 17 18  1  0  0  0  0
 17 24  1  0  0  0  0
 18 19  1  0  0  0  0
 18 25  1  1  0  0  0
 19 20  1  0  0  0  0
 19 26  1  6  0  0  0
 20 21  1  0  0  0  0
 20 23  1  1  0  0  0
 21 22  1  6  0  0  0
 21 24  1  0  0  0  0
 22 27  1  0  0  0  0
 28 12  1  6  0  0  0
 28 29  1  0  0  0  0
 28 33  1  0  0  0  0
 29 30  1  0  0  0  0
 29 36  1  6  0  0  0
 30 31  1  0  0  0  0
 30 37  1  1  0  0  0
 31 32  1  0  0  0  0
 31 34  1  1  0  0  0
 32 33  1  0  0  0  0
 33 35  1  6  0  0  0
M  END
>  <CHROM.1>
-93.73333342,74.06322569,-150.87341295,-151.70800158,56.41722072,158.26202218
20.60683355,-0.48101015,51.77526362,-1.55309559,-0.47740030,-2.12867232

>  <Name>
2oe5_lig

>  <RI>
0

>  <Rbt.Current_Directory>
/home/itssahil/PROJECTS/Mol_Feturizer/New_Systems/rnas/2oe5

>  <Rbt.Executable>
rbdock ($Id: //depot/dev/client3/rdock/2013.1/src/exe/rbdock.cxx#4 $)

>  <Rbt.Library>
libRbt.so (2013.1, Build901 2013/11/27)

>  <Rbt.Parameter_File>
/export/apps/rDock/src/rDock_2013.1_src/data/scripts/dock_solv.prm

>  <Rbt.Receptor>
prm/pocket_docking_4.prm

>  <SCORE>
-19.3427

>  <SCORE.INTER>
-18.6728

>  <SCORE.INTER.CONST>
1

>  <SCORE.INTER.POLAR>
-2.13122

>  <SCORE.INTER.ROT>
6

>  <SCORE.INTER.SOLV>
13.1393

>  <SCORE.INTER.VDW>
-17.3243

>  <SCORE.INTER.norm>
-0.504671

>  <SCORE.INTRA>
-0.669896

>  <SCORE.INTRA.DIHEDRAL>
-2.88885

>  <SCORE.INTRA.DIHEDRAL.0>
16.2083

>  <SCORE.INTRA.POLAR>
0

>  <SCORE.INTRA.POLAR.0>
0

>  <SCORE.INTRA.REPUL>
0

>  <SCORE.INTRA.REPUL.0>
0

>  <SCORE.INTRA.SOLV>
0.8602

>  <SCORE.INTRA.SOLV.lig_0>
-89.8095

>  <SCORE.INTRA.VDW>
0.344429

>  <SCORE.INTRA.VDW.0>
-3.19502

>  <SCORE.INTRA.norm>
-0.0181053

>  <SCORE.RESTR>
0

>  <SCORE.RESTR.CAVITY>
0

>  <SCORE.RESTR.norm>
0

>  <SCORE.SYSTEM>
0

>  <SCORE.SYSTEM.CONST>
0

>  <SCORE.SYSTEM.DIHEDRAL>
0

>  <SCORE.SYSTEM.SOLV>
0

>  <SCORE.SYSTEM.norm>
0

>  <SCORE.heavy>
37

>  <SCORE.norm>
-0.522777

>  <RMSD>
1.846

$$$$
2oe5_lig
 OpenBabel11021811463D
libRbt.so/2013.1/901 2013/11/27
 37 40  0  0  0  0  0  0  0  0999 V2000
   20.4223    0.6462   53.9826 C   0  0  1  0  0  0  0  0  0  0  0  0
   19.4398    1.2780   52.9712 C   0  0  1  0  0  0  0  0  0  0  0  0
   18.8651    0.1525   52.0330 C   0  0  0  0  0  0  0  0  0  0  0  0
   20.0981   -0.4702   51.3405 C   0  0  1  0  0  0  0  0  0  0  0  0
   21.1016   -1.1118   52.3977 C   0  0  1  0  0  0  0  0  0  0  0  0
   22.3454   -1.7503   51.7213 C   0  0  1  0  0  0  0  0  0  0  0  0
   21.8186   -2.8473   50.7528 C   0  0  1  0  0  0  0  0  0  0  0  0
   20.7977   -2.1799   49.7550 C   0  0  2  0  0  0  0  0  0  0  0  0
   22.8578   -4.9012   49.5022 C   0  0  0  0  0  0  0  0  0  0  0  0
   18.3254    1.9357   53.6917 N   0  0  0  0  0  0  0  0  0  0  0  0
   22.9678   -3.4892   50.0099 N   0  0  0  0  0  0  0  0  0  0  0  0
   19.7697   -0.2960   54.8493 O   0  0  0  0  0  0  0  0  0  0  0  0
   21.5300   -0.0558   53.3171 O   0  0  0  0  0  0  0  0  0  0  0  0
   19.6665   -1.5278   50.4428 O   0  0  0  0  0  0  0  0  0  0  0  0
   23.0461   -0.7168   51.0219 O   0  0  0  0  0  0  0  0  0  0  0  0
   20.2485   -3.1609   48.8974 O   0  0  0  0  0  0  0  0  0  0  0  0
   19.4119   -2.5523   47.9317 C   0  0  2  0  0  0  0  0  0  0  0  0
   18.0857   -3.2929   47.7631 C   0  0  1  0  0  0  0  0  0  0  0  0
   18.3104   -4.7270   47.2099 C   0  0  2  0  0  0  0  0  0  0  0  0
   19.0778   -4.5944   45.8611 C   0  0  1  0  0  0  0  0  0  0  0  0
   20.4348   -3.8691   46.1415 C   0  0  1  0  0  0  0  0  0  0  0  0
   21.2459   -3.6383   44.8860 C   0  0  0  0  0  0  0  0  0  0  0  0
   19.2990   -5.9853   45.3127 N   0  0  0  0  0  0  0  0  0  0  0  0
   20.1290   -2.5295   46.6577 O   0  0  0  0  0  0  0  0  0  0  0  0
   17.4461   -3.3356   49.0541 O   0  0  0  0  0  0  0  0  0  0  0  0
   17.0210   -5.3213   46.9746 O   0  0  0  0  0  0  0  0  0  0  0  0
   22.5297   -3.1981   45.1701 O   0  0  0  0  0  0  0  0  0  0  0  0
   20.3644   -0.4103   56.1423 C   0  0  1  0  0  0  0  0  0  0  0  0
   21.8999   -0.7079   55.9990 C   0  0  1  0  0  0  0  0  0  0  0  0
   22.5337   -0.8159   57.4325 C   0  0  2  0  0  0  0  0  0  0  0  0
   22.3384    0.5142   58.1758 C   0  0  1  0  0  0  0  0  0  0  0  0
   20.7958    0.8046   58.3316 C   0  0  0  0  0  0  0  0  0  0  0  0
   20.1533    0.8982   56.8919 C   0  0  2  0  0  0  0  0  0  0  0  0
   22.9451    0.4076   59.4924 N   0  0  0  0  0  0  0  0  0  0  0  0
   18.6918    1.1498   56.9953 N   0  0  0  0  0  0  0  0  0  0  0  0
   22.0899   -1.9683   55.2941 O   0  0  0  0  0  0  0  0  0  0  0  0
   23.9091   -1.0634   57.3090 O   0  0  0  0  0  0  0  0  0  0  0  0
  1  2  1  0  0  0  0
  1 12  1  6  0  0  0
  1 13  1  0  0  0  0
  2  3  1  0  0  0  0
  2 10  1  1  0  0  0
  4  3  1  1  0  0  0
  4  5  1  0  0  0  0
  4 14  1  0  0  0  0
  5  6  1  0  0  0  0
  5 13  1  1  0  0  0
  6  7  1  0  0  0  0
  6 15  1  6  0  0  0
  7  8  1  0  0  0  0
  7 11  1  6  0  0  0
  8 14  1  0  0  0  0
  8 16  1  6  0  0  0
  9 11  1  0  0  0  0
 17 16  1  1  0  0  0
 17 18  1  0  0  0  0
 17 24  1  0  0  0  0
 18 19  1  0  0  0  0
 18 25  1  1  0  0  0
 19 20  1  0  0  0  0
 19 26  1  6  0  0  0
 20 21  1  0  0  0  0
 20 23  1  1  0  0  0
 21 22  1  6  0  0  0
 21 24  1  0  0  0  0
 22 27  1  0  0  0  0
 28 12  1  6  0  0  0
 28 29  1  0  0  0  0
 28 33  1  0  0  0  0
 29 30  1  0  0  0  0
 29 36  1  1  0  0  0
 30 31  1  0  0  0  0
 30 37  1  6  0  0  0
 31 32  1  0  0  0  0
 31 34  1  1  0  0  0
 32 33  1  0  0  0  0
 33 35  1  1  0  0  0
M  END
>  <CHROM.1>
-150.61193006,153.10377075,-175.40708913,-134.54447053,-170.13331122,-53.20300180
20.60533549,-1.72411495,51.62036472,1.42442378,-0.30287475,1.13243090

>  <Name>
2oe5_lig

>  <RI>
0

>  <Rbt.Current_Directory>
/home/itssahil/PROJECTS/Mol_Feturizer/New_Systems/rnas/2oe5

>  <Rbt.Executable>
rbdock ($Id: //depot/dev/client3/rdock/2013.1/src/exe/rbdock.cxx#4 $)

>  <Rbt.Library>
libRbt.so (2013.1, Build901 2013/11/27)

>  <Rbt.Parameter_File>
/export/apps/rDock/src/rDock_2013.1_src/data/scripts/dock_solv.prm

>  <Rbt.Receptor>
prm/pocket_docking_4.prm

>  <SCORE>
-19.6674

>  <SCORE.INTER>
-17.6289

>  <SCORE.INTER.CONST>
1

>  <SCORE.INTER.POLAR>
-1.70921

>  <SCORE.INTER.ROT>
6

>  <SCORE.INTER.SOLV>
20.1358

>  <SCORE.INTER.VDW>
-20.3672

>  <SCORE.INTER.norm>
-0.476456

>  <SCORE.INTRA>
-2.03853

>  <SCORE.INTRA.DIHEDRAL>
-5.30862

>  <SCORE.INTRA.DIHEDRAL.0>
16.2083

>  <SCORE.INTRA.POLAR>
0

>  <SCORE.INTRA.POLAR.0>
0

>  <SCORE.INTRA.REPUL>
0

>  <SCORE.INTRA.REPUL.0>
0

>  <SCORE.INTRA.SOLV>
-0.75566

>  <SCORE.INTRA.SOLV.lig_0>
-89.8095

>  <SCORE.INTRA.VDW>
0.993606

>  <SCORE.INTRA.VDW.0>
-3.19502

>  <SCORE.INTRA.norm>
-0.0550955

>  <SCORE.RESTR>
0

>  <SCORE.RESTR.CAVITY>
0

>  <SCORE.RESTR.norm>
0

>  <SCORE.SYSTEM>
0

>  <SCORE.SYSTEM.CONST>
0

>  <SCORE.SYSTEM.DIHEDRAL>
0

>  <SCORE.SYSTEM.SOLV>
0

>  <SCORE.SYSTEM.norm>
0

>  <SCORE.heavy>
37

>  <SCORE.norm>
-0.531551

>  <RMSD>
1.876

$$$$
2oe5_lig
 OpenBabel11021811463D
libRbt.so/2013.1/901 2013/11/27
 37 40  0  0  0  0  0  0  0  0999 V2000
   21.8412    1.5536   55.0761 C   0  0  1  0  0  0  0  0  0  0  0  0
   20.6759    2.0682   54.2016 C   0  0  1  0  0  0  0  0  0  0  0  0
   20.1283    0.8864   53.3181 C   0  0  0  0  0  0  0  0  0  0  0  0
   21.3330    0.4180   52.4714 C   0  0  1  0  0  0  0  0  0  0  0  0
   22.5256   -0.1042   53.3886 C   0  0  1  0  0  0  0  0  0  0  0  0
   23.7448   -0.5871   52.5563 C   0  0  1  0  0  0  0  0  0  0  0  0
   23.2374   -1.7347   51.6375 C   0  0  1  0  0  0  0  0  0  0  0  0
   22.0317   -1.1894   50.7819 C   0  0  2  0  0  0  0  0  0  0  0  0
   25.2494   -3.3549   51.2022 C   0  0  0  0  0  0  0  0  0  0  0  0
   19.5875    2.5855   55.0625 N   0  0  0  0  0  0  0  0  0  0  0  0
   24.3556   -2.2320   50.7505 N   0  0  0  0  0  0  0  0  0  0  0  0
   21.4138    0.5366   55.9970 O   0  0  0  0  0  0  0  0  0  0  0  0
   22.9350    0.9914   54.2698 O   0  0  0  0  0  0  0  0  0  0  0  0
   20.9233   -0.6796   51.6122 O   0  0  0  0  0  0  0  0  0  0  0  0
   24.2291    0.5256   51.7976 O   0  0  0  0  0  0  0  0  0  0  0  0
   21.5020   -2.2250   49.9780 O   0  0  0  0  0  0  0  0  0  0  0  0
   20.4701   -1.7217   49.1504 C   0  0  2  0  0  0  0  0  0  0  0  0
   19.1009   -2.2928   49.5175 C   0  0  1  0  0  0  0  0  0  0  0  0
   19.0516   -3.8274   49.2820 C   0  0  2  0  0  0  0  0  0  0  0  0
   19.4068   -4.0842   47.7875 C   0  0  1  0  0  0  0  0  0  0  0  0
   20.8364   -3.5089   47.5203 C   0  0  1  0  0  0  0  0  0  0  0  0
   21.2673   -3.6570   46.0782 C   0  0  0  0  0  0  0  0  0  0  0  0
   19.3587   -5.5754   47.5470 N   0  0  0  0  0  0  0  0  0  0  0  0
   20.7907   -2.0624   47.7651 O   0  0  0  0  0  0  0  0  0  0  0  0
   18.8577   -1.9785   50.9031 O   0  0  0  0  0  0  0  0  0  0  0  0
   17.7091   -4.2756   49.5424 O   0  0  0  0  0  0  0  0  0  0  0  0
   22.5048   -3.0774   45.8433 O   0  0  0  0  0  0  0  0  0  0  0  0
   21.1949    1.0069   57.3272 C   0  0  1  0  0  0  0  0  0  0  0  0
   19.9773    0.2490   57.9676 C   0  0  1  0  0  0  0  0  0  0  0  0
   19.7650    0.7735   59.4333 C   0  0  2  0  0  0  0  0  0  0  0  0
   21.0302    0.4977   60.2597 C   0  0  1  0  0  0  0  0  0  0  0  0
   22.2491    1.2709   59.6237 C   0  0  0  0  0  0  0  0  0  0  0  0
   22.4550    0.7566   58.1447 C   0  0  2  0  0  0  0  0  0  0  0  0
   20.8140    0.9701   61.6174 N   0  0  0  0  0  0  0  0  0  0  0  0
   23.5839    1.4784   57.5007 N   0  0  0  0  0  0  0  0  0  0  0  0
   18.7753    0.5072   57.1866 O   0  0  0  0  0  0  0  0  0  0  0  0
   18.6896    0.0858   60.0156 O   0  0  0  0  0  0  0  0  0  0  0  0
  1  2  1  0  0  0  0
  1 12  1  1  0  0  0
  1 13  1  0  0  0  0
  2  3  1  0  0  0  0
  2 10  1  1  0  0  0
  4  3  1  1  0  0  0
  4  5  1  0  0  0  0
  4 14  1  0  0  0  0
  5  6  1  0  0  0  0
  5 13  1  1  0  0  0
  6  7  1  0  0  0  0
  6 15  1  6  0  0  0
  7  8  1  0  0  0  0
  7 11  1  6  0  0  0
  8 14  1  0  0  0  0
  8 16  1  1  0  0  0
  9 11  1  0  0  0  0
 17 16  1  1  0  0  0
 17 18  1  0  0  0  0
 17 24  1  0  0  0  0
 18 19  1  0  0  0  0
 18 25  1  1  0  0  0
 19 20  1  0  0  0  0
 19 26  1  6  0  0  0
 20 21  1  0  0  0  0
 20 23  1  1  0  0  0
 21 22  1  6  0  0  0
 21 24  1  0  0  0  0
 22 27  1  0  0  0  0
 28 12  1  6  0  0  0
 28 29  1  0  0  0  0
 28 33  1  0  0  0  0
 29 30  1  0  0  0  0
 29 36  1  6  0  0  0
 30 31  1  0  0  0  0
 30 37  1  1  0  0  0
 31 32  1  0  0  0  0
 31 34  1  1  0  0  0
 32 33  1  0  0  0  0
 33 35  1  6  0  0  0
M  END
>  <CHROM.1>
-100.12958072,90.17188405,-176.59485039,-113.16929231,176.71449285,144.00304832
21.17137007,-0.85690949,53.03854787,-1.56216552,-0.27406484,-1.95467941

>  <Name>
2oe5_lig

>  <RI>
0

>  <Rbt.Current_Directory>
/home/itssahil/PROJECTS/Mol_Feturizer/New_Systems/rnas/2oe5

>  <Rbt.Executable>
rbdock ($Id: //depot/dev/client3/rdock/2013.1/src/exe/rbdock.cxx#4 $)

>  <Rbt.Library>
libRbt.so (2013.1, Build901 2013/11/27)

>  <Rbt.Parameter_File>
/export/apps/rDock/src/rDock_2013.1_src/data/scripts/dock_solv.prm

>  <Rbt.Receptor>
prm/pocket_docking_3.prm

>  <SCORE>
-14.4993

>  <SCORE.INTER>
-15.6195

>  <SCORE.INTER.CONST>
1

>  <SCORE.INTER.POLAR>
-2.11487

>  <SCORE.INTER.ROT>
6

>  <SCORE.INTER.SOLV>
7.89056

>  <SCORE.INTER.VDW>
-13.5936

>  <SCORE.INTER.norm>
-0.422149

>  <SCORE.INTRA>
1.12024

>  <SCORE.INTRA.DIHEDRAL>
1.61837

>  <SCORE.INTRA.DIHEDRAL.0>
16.2083

>  <SCORE.INTRA.POLAR>
0

>  <SCORE.INTRA.POLAR.0>
0

>  <SCORE.INTRA.REPUL>
0

>  <SCORE.INTRA.REPUL.0>
0

>  <SCORE.INTRA.SOLV>
-0.120974

>  <SCORE.INTRA.SOLV.lig_0>
-89.8095

>  <SCORE.INTRA.VDW>
0.371547

>  <SCORE.INTRA.VDW.0>
-3.19502

>  <SCORE.INTRA.norm>
0.0302769

>  <SCORE.RESTR>
0

>  <SCORE.RESTR.CAVITY>
0

>  <SCORE.RESTR.norm>
0

>  <SCORE.SYSTEM>
0

>  <SCORE.SYSTEM.CONST>
0

>  <SCORE.SYSTEM.DIHEDRAL>
0

>  <SCORE.SYSTEM.SOLV>
0

>  <SCORE.SYSTEM.norm>
0

>  <SCORE.heavy>
37

>  <SCORE.norm>
-0.391872

>  <RMSD>
1.900

$$$$
2oe5_lig
 OpenBabel11021811463D
libRbt.so/2013.1/901 2013/11/27
 37 40  0  0  0  0  0  0  0  0999 V2000
   20.5231    1.5339   53.9946 C   0  0  1  0  0  0  0  0  0  0  0  0
   19.5946    2.1088   52.9015 C   0  0  1  0  0  0  0  0  0  0  0  0
   18.8973    0.9233   52.1362 C   0  0  0  0  0  0  0  0  0  0  0  0
   20.0521    0.0859   51.5423 C   0  0  1  0  0  0  0  0  0  0  0  0
   21.0011   -0.4941   52.6821 C   0  0  1  0  0  0  0  0  0  0  0  0
   22.1654   -1.3458   52.1063 C   0  0  1  0  0  0  0  0  0  0  0  0
   21.5182   -2.5124   51.3070 C   0  0  1  0  0  0  0  0  0  0  0  0
   20.5552   -1.8967   50.2223 C   0  0  2  0  0  0  0  0  0  0  0  0
   23.4039   -2.8392   49.5181 C   0  0  0  0  0  0  0  0  0  0  0  0
   18.5617    2.9727   53.5181 N   0  0  0  0  0  0  0  0  0  0  0  0
   22.5870   -3.3675   50.6659 N   0  0  0  0  0  0  0  0  0  0  0  0
   19.7918    0.7975   54.9884 O   0  0  0  0  0  0  0  0  0  0  0  0
   21.5458    0.6351   53.4388 O   0  0  0  0  0  0  0  0  0  0  0  0
   19.5045   -1.0413   50.8073 O   0  0  0  0  0  0  0  0  0  0  0  0
   22.9559   -0.5002   51.2649 O   0  0  0  0  0  0  0  0  0  0  0  0
   19.8989   -2.9308   49.5158 O   0  0  0  0  0  0  0  0  0  0  0  0
   19.2926   -2.4146   48.3457 C   0  0  2  0  0  0  0  0  0  0  0  0
   18.1829   -3.3229   47.8177 C   0  0  1  0  0  0  0  0  0  0  0  0
   18.7495   -4.6975   47.3676 C   0  0  2  0  0  0  0  0  0  0  0  0
   19.8400   -4.4249   46.2894 C   0  0  1  0  0  0  0  0  0  0  0  0
   20.9497   -3.5305   46.9336 C   0  0  1  0  0  0  0  0  0  0  0  0
   22.0417   -3.1573   45.9561 C   0  0  0  0  0  0  0  0  0  0  0  0
   20.3960   -5.7572   45.8425 N   0  0  0  0  0  0  0  0  0  0  0  0
   20.3294   -2.2596   47.3264 O   0  0  0  0  0  0  0  0  0  0  0  0
   17.2176   -3.4876   48.8754 O   0  0  0  0  0  0  0  0  0  0  0  0
   17.6733   -5.4541   46.7843 O   0  0  0  0  0  0  0  0  0  0  0  0
   22.6917   -4.2735   45.4519 O   0  0  0  0  0  0  0  0  0  0  0  0
   20.4794    0.6510   56.2312 C   0  0  1  0  0  0  0  0  0  0  0  0
   21.8035   -0.1657   56.0153 C   0  0  1  0  0  0  0  0  0  0  0  0
   22.5479   -0.3020   57.3922 C   0  0  2  0  0  0  0  0  0  0  0  0
   22.8918    1.0974   57.9244 C   0  0  1  0  0  0  0  0  0  0  0  0
   21.5602    1.9112   58.1543 C   0  0  0  0  0  0  0  0  0  0  0  0
   20.8022    2.0364   56.7744 C   0  0  2  0  0  0  0  0  0  0  0  0
   23.5961    0.9569   59.1883 N   0  0  0  0  0  0  0  0  0  0  0  0
   19.5273    2.7800   56.9525 N   0  0  0  0  0  0  0  0  0  0  0  0
   21.4822   -1.4934   55.5099 O   0  0  0  0  0  0  0  0  0  0  0  0
   23.7408   -1.0150   57.2005 O   0  0  0  0  0  0  0  0  0  0  0  0
  1  2  1  0  0  0  0
  1 12  1  1  0  0  0
  1 13  1  0  0  0  0
  2  3  1  0  0  0  0
  2 10  1  1  0  0  0
  4  3  1  1  0  0  0
  4  5  1  0  0  0  0
  4 14  1  0  0  0  0
  5  6  1  0  0  0  0
  5 13  1  6  0  0  0
  6  7  1  0  0  0  0
  6 15  1  6  0  0  0
  7  8  1  0  0  0  0
  7 11  1  6  0  0  0
  8 14  1  0  0  0  0
  8 16  1  1  0  0  0
  9 11  1  0  0  0  0
 17 16  1  1  0  0  0
 17 18  1  0  0  0  0
 17 24  1  0  0  0  0
 18 19  1  0  0  0  0
 18 25  1  1  0  0  0
 19 20  1  0  0  0  0
 19 26  1  6  0  0  0
 20 21  1  0  0  0  0
 20 23  1  1  0  0  0
 21 22  1  6  0  0  0
 21 24  1  0  0  0  0
 22 27  1  0  0  0  0
 28 12  1  6  0  0  0
 28 29  1  0  0  0  0
 28 33  1  0  0  0  0
 29 30  1  0  0  0  0
 29 36  1  1  0  0  0
 30 31  1  0  0  0  0
 30 37  1  6  0  0  0
 31 32  1  0  0  0  0
 31 34  1  1  0  0  0
 32 33  1  0  0  0  0
 33 35  1  1  0  0  0
M  END
>  <CHROM.1>
-159.04663821,-70.12530059,-165.89184462,-159.51736208,-60.36769935,-62.45498106
20.76930113,-1.23258604,51.81543279,1.42310210,-0.44343629,1.02502385

>  <Name>
2oe5_lig

>  <RI>
0

>  <Rbt.Current_Directory>
/home/itssahil/PROJECTS/Mol_Feturizer/New_Systems/rnas/2oe5

>  <Rbt.Executable>
rbdock ($Id: //depot/dev/client3/rdock/2013.1/src/exe/rbdock.cxx#4 $)

>  <Rbt.Library>
libRbt.so (2013.1, Build901 2013/11/27)

>  <Rbt.Parameter_File>
/export/apps/rDock/src/rDock_2013.1_src/data/scripts/dock_solv.prm

>  <Rbt.Receptor>
prm/pocket_docking_3.prm

>  <SCORE>
-17.0125

>  <SCORE.INTER>
-13.8325

>  <SCORE.INTER.CONST>
1

>  <SCORE.INTER.POLAR>
-1.41572

>  <SCORE.INTER.ROT>
6

>  <SCORE.INTER.SOLV>
14.9172

>  <SCORE.INTER.VDW>
-17.075

>  <SCORE.INTER.norm>
-0.37385

>  <SCORE.INTRA>
-3.18005

>  <SCORE.INTRA.DIHEDRAL>
-11.2578

>  <SCORE.INTRA.DIHEDRAL.0>
16.2083

>  <SCORE.INTRA.POLAR>
0

>  <SCORE.INTRA.POLAR.0>
0

>  <SCORE.INTRA.REPUL>
0

>  <SCORE.INTRA.REPUL.0>
0

>  <SCORE.INTRA.SOLV>
0.486836

>  <SCORE.INTRA.SOLV.lig_0>
-89.8095

>  <SCORE.INTRA.VDW>
2.20544

>  <SCORE.INTRA.VDW.0>
-3.19502

>  <SCORE.INTRA.norm>
-0.0859473

>  <SCORE.RESTR>
0

>  <SCORE.RESTR.CAVITY>
0

>  <SCORE.RESTR.norm>
0

>  <SCORE.SYSTEM>
0

>  <SCORE.SYSTEM.CONST>
0

>  <SCORE.SYSTEM.DIHEDRAL>
0

>  <SCORE.SYSTEM.SOLV>
0

>  <SCORE.SYSTEM.norm>
0

>  <SCORE.heavy>
37

>  <SCORE.norm>
-0.459798

>  <RMSD>
1.902

$$$$
2oe5_lig
 OpenBabel11021811463D
libRbt.so/2013.1/901 2013/11/27
 37 40  0  0  0  0  0  0  0  0999 V2000
   20.4828    0.9277   54.0455 C   0  0  1  0  0  0  0  0  0  0  0  0
   19.7722    1.6254   52.8641 C   0  0  1  0  0  0  0  0  0  0  0  0
   18.9445    0.5600   52.0535 C   0  0  0  0  0  0  0  0  0  0  0  0
   19.9787   -0.4856   51.5796 C   0  0  1  0  0  0  0  0  0  0  0  0
   20.7043   -1.1907   52.8095 C   0  0  1  0  0  0  0  0  0  0  0  0
   21.7436   -2.2514   52.3548 C   0  0  1  0  0  0  0  0  0  0  0  0
   20.9713   -3.3081   51.5147 C   0  0  1  0  0  0  0  0  0  0  0  0
   20.2335   -2.5639   50.3378 C   0  0  2  0  0  0  0  0  0  0  0  0
   22.8710   -4.0349   49.8637 C   0  0  0  0  0  0  0  0  0  0  0  0
   18.8602    2.6762   53.3715 N   0  0  0  0  0  0  0  0  0  0  0  0
   21.9223   -4.3573   50.9862 N   0  0  0  0  0  0  0  0  0  0  0  0
   19.5467    0.3619   54.9774 O   0  0  0  0  0  0  0  0  0  0  0  0
   21.3732   -0.1539   53.5982 O   0  0  0  0  0  0  0  0  0  0  0  0
   19.3054   -1.5193   50.8122 O   0  0  0  0  0  0  0  0  0  0  0  0
   22.7438   -1.5842   51.5786 O   0  0  0  0  0  0  0  0  0  0  0  0
   19.4678   -3.4859   49.5876 O   0  0  0  0  0  0  0  0  0  0  0  0
   18.7661   -2.8145   48.5581 C   0  0  2  0  0  0  0  0  0  0  0  0
   17.6311   -3.6603   47.9820 C   0  0  1  0  0  0  0  0  0  0  0  0
   18.1797   -4.9368   47.2871 C   0  0  2  0  0  0  0  0  0  0  0  0
   19.1798   -4.4777   46.1849 C   0  0  1  0  0  0  0  0  0  0  0  0
   20.3238   -3.6632   46.8733 C   0  0  1  0  0  0  0  0  0  0  0  0
   21.3320   -3.1197   45.8855 C   0  0  0  0  0  0  0  0  0  0  0  0
   19.7174   -5.7131   45.5002 N   0  0  0  0  0  0  0  0  0  0  0  0
   19.7188   -2.4818   47.5000 O   0  0  0  0  0  0  0  0  0  0  0  0
   16.7528   -4.0066   49.0712 O   0  0  0  0  0  0  0  0  0  0  0  0
   17.0718   -5.6235   46.6770 O   0  0  0  0  0  0  0  0  0  0  0  0
   20.7310   -2.3552   44.8970 O   0  0  0  0  0  0  0  0  0  0  0  0
   20.0003    0.3561   56.3313 C   0  0  1  0  0  0  0  0  0  0  0  0
   21.3865   -0.3763   56.4264 C   0  0  1  0  0  0  0  0  0  0  0  0
   21.8704   -0.3580   57.9210 C   0  0  2  0  0  0  0  0  0  0  0  0
   22.0289    1.0975   58.3858 C   0  0  1  0  0  0  0  0  0  0  0  0
   20.6332    1.8277   58.3032 C   0  0  0  0  0  0  0  0  0  0  0  0
   20.1369    1.7971   56.8042 C   0  0  2  0  0  0  0  0  0  0  0  0
   22.4948    1.1005   59.7628 N   0  0  0  0  0  0  0  0  0  0  0  0
   18.8104    2.4578   56.6870 N   0  0  0  0  0  0  0  0  0  0  0  0
   21.2410   -1.7571   55.9860 O   0  0  0  0  0  0  0  0  0  0  0  0
   23.1174   -0.9952   58.0076 O   0  0  0  0  0  0  0  0  0  0  0  0
  1  2  1  0  0  0  0
  1 12  1  1  0  0  0
  1 13  1  0  0  0  0
  2  3  1  0  0  0  0
  2 10  1  1  0  0  0
  4  3  1  1  0  0  0
  4  5  1  0  0  0  0
  4 14  1  0  0  0  0
  5  6  1  0  0  0  0
  5 13  1  6  0  0  0
  6  7  1  0  0  0  0
  6 15  1  6  0  0  0
  7  8  1  0  0  0  0
  7 11  1  6  0  0  0
  8 14  1  0  0  0  0
  8 16  1  1  0  0  0
  9 11  1  0  0  0  0
 17 16  1  1  0  0  0
 17 18  1  0  0  0  0
 17 24  1  0  0  0  0
 18 19  1  0  0  0  0
 18 25  1  1  0  0  0
 19 20  1  0  0  0  0
 19 26  1  6  0  0  0
 20 21  1  0  0  0  0
 20 23  1  1  0  0  0
 21 22  1  6  0  0  0
 21 24  1  0  0  0  0
 22 27  1  0  0  0  0
 28 12  1  6  0  0  0
 28 29  1  0  0  0  0
 28 33  1  0  0  0  0
 29 30  1  0  0  0  0
 29 36  1  1  0  0  0
 30 31  1  0  0  0  0
 30 37  1  6  0  0  0
 31 32  1  0  0  0  0
 31 34  1  1  0  0  0
 32 33  1  0  0  0  0
 33 35  1  1  0  0  0
M  END
>  <CHROM.1>
-148.28481139,-73.22966598,177.94530724,-163.39936135,55.11797489,-55.08788269
20.27162750,-1.56043879,51.93551959,1.37989232,-0.63033616,1.01046084

>  <Name>
2oe5_lig

>  <RI>
0

>  <Rbt.Current_Directory>
/home/itssahil/PROJECTS/Mol_Feturizer/New_Systems/rnas/2oe5

>  <Rbt.Executable>
rbdock ($Id: //depot/dev/client3/rdock/2013.1/src/exe/rbdock.cxx#4 $)

>  <Rbt.Library>
libRbt.so (2013.1, Build901 2013/11/27)

>  <Rbt.Parameter_File>
/export/apps/rDock/src/rDock_2013.1_src/data/scripts/dock_solv.prm

>  <Rbt.Receptor>
prm/pocket_docking_2.prm

>  <SCORE>
-14.3686

>  <SCORE.INTER>
-12.0582

>  <SCORE.INTER.CONST>
1

>  <SCORE.INTER.POLAR>
-1.396

>  <SCORE.INTER.ROT>
6

>  <SCORE.INTER.SOLV>
15.0515

>  <SCORE.INTER.VDW>
-16.0026

>  <SCORE.INTER.norm>
-0.325897

>  <SCORE.INTRA>
-2.63175

>  <SCORE.INTRA.DIHEDRAL>
-10.597

>  <SCORE.INTRA.DIHEDRAL.0>
16.2083

>  <SCORE.INTRA.POLAR>
0

>  <SCORE.INTRA.POLAR.0>
0

>  <SCORE.INTRA.REPUL>
0

>  <SCORE.INTRA.REPUL.0>
0

>  <SCORE.INTRA.SOLV>
0.27452

>  <SCORE.INTRA.SOLV.lig_0>
-89.8095

>  <SCORE.INTRA.VDW>
2.52951

>  <SCORE.INTRA.VDW.0>
-3.19502

>  <SCORE.INTRA.norm>
-0.0711283

>  <SCORE.RESTR>
0.321293

>  <SCORE.RESTR.CAVITY>
0.321293

>  <SCORE.RESTR.norm>
0.00868361

>  <SCORE.SYSTEM>
0

>  <SCORE.SYSTEM.CONST>
0

>  <SCORE.SYSTEM.DIHEDRAL>
0

>  <SCORE.SYSTEM.SOLV>
0

>  <SCORE.SYSTEM.norm>
0

>  <SCORE.heavy>
37

>  <SCORE.norm>
-0.388342

>  <RMSD>
1.922

$$$$
2oe5_lig
 OpenBabel11021811463D
libRbt.so/2013.1/901 2013/11/27
 37 40  0  0  0  0  0  0  0  0999 V2000
   20.6297    1.4050   53.9403 C   0  0  1  0  0  0  0  0  0  0  0  0
   19.7548    2.0273   52.8292 C   0  0  1  0  0  0  0  0  0  0  0  0
   18.9656    0.8847   52.0884 C   0  0  0  0  0  0  0  0  0  0  0  0
   20.0500   -0.0581   51.5204 C   0  0  1  0  0  0  0  0  0  0  0  0
   20.9448   -0.6862   52.6785 C   0  0  1  0  0  0  0  0  0  0  0  0
   22.0375   -1.6435   52.1292 C   0  0  1  0  0  0  0  0  0  0  0  0
   21.2998   -2.7722   51.3542 C   0  0  1  0  0  0  0  0  0  0  0  0
   20.3939   -2.1061   50.2502 C   0  0  2  0  0  0  0  0  0  0  0  0
   21.8919   -5.1300   50.3779 C   0  0  0  0  0  0  0  0  0  0  0  0
   18.7939    2.9872   53.4198 N   0  0  0  0  0  0  0  0  0  0  0  0
   22.2973   -3.7267   50.7391 N   0  0  0  0  0  0  0  0  0  0  0  0
   19.8374    0.7547   54.9474 O   0  0  0  0  0  0  0  0  0  0  0  0
   21.5773    0.4126   53.4113 O   0  0  0  0  0  0  0  0  0  0  0  0
   19.4147   -1.1541   50.8094 O   0  0  0  0  0  0  0  0  0  0  0  0
   22.8973   -0.8856   51.2722 O   0  0  0  0  0  0  0  0  0  0  0  0
   19.6577   -3.0999   49.5648 O   0  0  0  0  0  0  0  0  0  0  0  0
   19.0601   -2.5521   48.4048 C   0  0  2  0  0  0  0  0  0  0  0  0
   17.9663   -3.4540   47.8340 C   0  0  1  0  0  0  0  0  0  0  0  0
   18.5528   -4.8074   47.3467 C   0  0  2  0  0  0  0  0  0  0  0  0
   19.6531   -4.4889   46.2914 C   0  0  1  0  0  0  0  0  0  0  0  0
   20.7455   -3.6047   46.9778 C   0  0  1  0  0  0  0  0  0  0  0  0
   21.8452   -3.1889   46.0263 C   0  0  0  0  0  0  0  0  0  0  0  0
   20.2285   -5.8003   45.8084 N   0  0  0  0  0  0  0  0  0  0  0  0
   20.1072   -2.3536   47.4038 O   0  0  0  0  0  0  0  0  0  0  0  0
   16.9903   -3.6627   48.8739 O   0  0  0  0  0  0  0  0  0  0  0  0
   17.4916   -5.5556   46.7260 O   0  0  0  0  0  0  0  0  0  0  0  0
   22.5210   -4.2811   45.5038 O   0  0  0  0  0  0  0  0  0  0  0  0
   20.4909    0.6214   56.2099 C   0  0  1  0  0  0  0  0  0  0  0  0
   21.8313   -0.1784   56.0350 C   0  0  1  0  0  0  0  0  0  0  0  0
   22.5376   -0.3002   57.4331 C   0  0  2  0  0  0  0  0  0  0  0  0
   22.8479    1.1054   57.9697 C   0  0  1  0  0  0  0  0  0  0  0  0
   21.4998    1.9024   58.1582 C   0  0  0  0  0  0  0  0  0  0  0  0
   20.7800    2.0128   56.7568 C   0  0  2  0  0  0  0  0  0  0  0  0
   23.5175    0.9785   59.2536 N   0  0  0  0  0  0  0  0  0  0  0  0
   19.4909    2.7402   56.8956 N   0  0  0  0  0  0  0  0  0  0  0  0
   21.5420   -1.5120   55.5257 O   0  0  0  0  0  0  0  0  0  0  0  0
   23.7448   -0.9982   57.2784 O   0  0  0  0  0  0  0  0  0  0  0  0
  1  2  1  0  0  0  0
  1 12  1  1  0  0  0
  1 13  1  0  0  0  0
  2  3  1  0  0  0  0
  2 10  1  1  0  0  0
  4  3  1  1  0  0  0
  4  5  1  0  0  0  0
  4 14  1  0  0  0  0
  5  6  1  0  0  0  0
  5 13  1  6  0  0  0
  6  7  1  0  0  0  0
  6 15  1  6  0  0  0
  7  8  1  0  0  0  0
  7 11  1  6  0  0  0
  8 14  1  0  0  0  0
  8 16  1  1  0  0  0
  9 11  1  0  0  0  0
 17 16  1  1  0  0  0
 17 18  1  0  0  0  0
 17 24  1  0  0  0  0
 18 19  1  0  0  0  0
 18 25  1  1  0  0  0
 19 20  1  0  0  0  0
 19 26  1  6  0  0  0
 20 21  1  0  0  0  0
 20 23  1  1  0  0  0
 21 22  1  6  0  0  0
 21 24  1  0  0  0  0
 22 27  1  0  0  0  0
 28 12  1  6  0  0  0
 28 29  1  0  0  0  0
 28 33  1  0  0  0  0
 29 30  1  0  0  0  0
 29 36  1  1  0  0  0
 30 31  1  0  0  0  0
 30 37  1  6  0  0  0
 31 32  1  0  0  0  0
 31 34  1  1  0  0  0
 32 33  1  0  0  0  0
 33 35  1  1  0  0  0
M  END
>  <CHROM.1>
-157.10661285,157.79084971,-167.96952058,-164.68189605,-60.92102671,-57.80222149
20.64569522,-1.39807906,51.84692147,1.38041493,-0.58121978,0.96785754

>  <Name>
2oe5_lig

>  <RI>
0

>  <Rbt.Current_Directory>
/home/itssahil/PROJECTS/Mol_Feturizer/New_Systems/rnas/2oe5

>  <Rbt.Executable>
rbdock ($Id: //depot/dev/client3/rdock/2013.1/src/exe/rbdock.cxx#4 $)

>  <Rbt.Library>
libRbt.so (2013.1, Build901 2013/11/27)

>  <Rbt.Parameter_File>
/export/apps/rDock/src/rDock_2013.1_src/data/scripts/dock_solv.prm

>  <Rbt.Receptor>
prm/pocket_docking_3.prm

>  <SCORE>
-17.9387

>  <SCORE.INTER>
-13.5595

>  <SCORE.INTER.CONST>
1

>  <SCORE.INTER.POLAR>
-1.27311

>  <SCORE.INTER.ROT>
6

>  <SCORE.INTER.SOLV>
14.197

>  <SCORE.INTER.VDW>
-17.1283

>  <SCORE.INTER.norm>
-0.366474

>  <SCORE.INTRA>
-4.37915

>  <SCORE.INTRA.DIHEDRAL>
-11.6787

>  <SCORE.INTRA.DIHEDRAL.0>
16.2083

>  <SCORE.INTRA.POLAR>
0

>  <SCORE.INTRA.POLAR.0>
0

>  <SCORE.INTRA.REPUL>
0

>  <SCORE.INTRA.REPUL.0>
0

>  <SCORE.INTRA.SOLV>
0.20692

>  <SCORE.INTRA.SOLV.lig_0>
-89.8095

>  <SCORE.INTRA.VDW>
1.35673

>  <SCORE.INTRA.VDW.0>
-3.19502

>  <SCORE.INTRA.norm>
-0.118355

>  <SCORE.RESTR>
0

>  <SCORE.RESTR.CAVITY>
0

>  <SCORE.RESTR.norm>
0

>  <SCORE.SYSTEM>
0

>  <SCORE.SYSTEM.CONST>
0

>  <SCORE.SYSTEM.DIHEDRAL>
0

>  <SCORE.SYSTEM.SOLV>
0

>  <SCORE.SYSTEM.norm>
0

>  <SCORE.heavy>
37

>  <SCORE.norm>
-0.484829

>  <RMSD>
1.950

$$$$
2oe5_lig
 OpenBabel11021811463D
libRbt.so/2013.1/901 2013/11/27
 37 40  0  0  0  0  0  0  0  0999 V2000
   21.4006    0.8251   54.0949 C   0  0  1  0  0  0  0  0  0  0  0  0
   21.2655    1.7896   52.8954 C   0  0  1  0  0  0  0  0  0  0  0  0
   20.2185    1.2063   51.8752 C   0  0  0  0  0  0  0  0  0  0  0  0
   20.7794   -0.1717   51.4581 C   0  0  1  0  0  0  0  0  0  0  0  0
   20.9164   -1.1505   52.7068 C   0  0  1  0  0  0  0  0  0  0  0  0
   21.4722   -2.5449   52.3078 C   0  0  1  0  0  0  0  0  0  0  0  0
   20.4832   -3.1436   51.2675 C   0  0  1  0  0  0  0  0  0  0  0  0
   20.3429   -2.1254   50.0730 C   0  0  2  0  0  0  0  0  0  0  0  0
   20.1525   -5.7278   50.9939 C   0  0  0  0  0  0  0  0  0  0  0  0
   20.8099    3.1187   53.3636 N   0  0  0  0  0  0  0  0  0  0  0  0
   20.9780   -4.4875   50.7842 N   0  0  0  0  0  0  0  0  0  0  0  0
   20.1683    0.6968   54.8229 O   0  0  0  0  0  0  0  0  0  0  0  0
   21.8137   -0.5239   53.6797 O   0  0  0  0  0  0  0  0  0  0  0  0
   19.8758   -0.7941   50.5058 O   0  0  0  0  0  0  0  0  0  0  0  0
   22.7775   -2.3566   51.7522 O   0  0  0  0  0  0  0  0  0  0  0  0
   19.4012   -2.6077   49.1349 O   0  0  0  0  0  0  0  0  0  0  0  0
   19.9112   -2.4800   47.8209 C   0  0  2  0  0  0  0  0  0  0  0  0
   18.8916   -2.8921   46.7598 C   0  0  1  0  0  0  0  0  0  0  0  0
   18.5385   -4.4003   46.8768 C   0  0  2  0  0  0  0  0  0  0  0  0
   19.8665   -5.2041   46.7501 C   0  0  1  0  0  0  0  0  0  0  0  0
   20.8237   -4.7486   47.9001 C   0  0  1  0  0  0  0  0  0  0  0  0
   22.1724   -5.4306   47.8441 C   0  0  0  0  0  0  0  0  0  0  0  0
   19.5332   -6.6741   46.8598 N   0  0  0  0  0  0  0  0  0  0  0  0
   21.1030   -3.3200   47.7117 O   0  0  0  0  0  0  0  0  0  0  0  0
   17.7188   -2.0749   46.9453 O   0  0  0  0  0  0  0  0  0  0  0  0
   17.6637   -4.7394   45.7856 O   0  0  0  0  0  0  0  0  0  0  0  0
   22.9824   -5.0687   48.9098 O   0  0  0  0  0  0  0  0  0  0  0  0
   20.3032    0.8630   56.2346 C   0  0  1  0  0  0  0  0  0  0  0  0
   18.9473    1.3696   56.8443 C   0  0  1  0  0  0  0  0  0  0  0  0
   19.1166    1.5318   58.3978 C   0  0  2  0  0  0  0  0  0  0  0  0
   19.4771    0.1717   59.0142 C   0  0  1  0  0  0  0  0  0  0  0  0
   20.8462   -0.3290   58.4116 C   0  0  0  0  0  0  0  0  0  0  0  0
   20.6833   -0.4781   56.8477 C   0  0  2  0  0  0  0  0  0  0  0  0
   19.6123    0.3314   60.4527 N   0  0  0  0  0  0  0  0  0  0  0  0
   21.9618   -0.9282   56.2372 N   0  0  0  0  0  0  0  0  0  0  0  0
   18.6010    2.6591   56.2620 O   0  0  0  0  0  0  0  0  0  0  0  0
   17.9019    1.9666   58.9490 O   0  0  0  0  0  0  0  0  0  0  0  0
  1  2  1  0  0  0  0
  1 12  1  6  0  0  0
  1 13  1  0  0  0  0
  2  3  1  0  0  0  0
  2 10  1  1  0  0  0
  4  3  1  1  0  0  0
  4  5  1  0  0  0  0
  4 14  1  0  0  0  0
  5  6  1  0  0  0  0
  5 13  1  1  0  0  0
  6  7  1  0  0  0  0
  6 15  1  6  0  0  0
  7  8  1  0  0  0  0
  7 11  1  6  0  0  0
  8 14  1  0  0  0  0
  8 16  1  6  0  0  0
  9 11  1  0  0  0  0
 17 16  1  1  0  0  0
 17 18  1  0  0  0  0
 17 24  1  0  0  0  0
 18 19  1  0  0  0  0
 18 25  1  1  0  0  0
 19 20  1  0  0  0  0
 19 26  1  6  0  0  0
 20 21  1  0  0  0  0
 20 23  1  1  0  0  0
 21 22  1  6  0  0  0
 21 24  1  0  0  0  0
 22 27  1  0  0  0  0
 28 12  1  6  0  0  0
 28 29  1  0  0  0  0
 28 33  1  0  0  0  0
 29 30  1  0  0  0  0
 29 36  1  6  0  0  0
 30 31  1  0  0  0  0
 30 37  1  1  0  0  0
 31 32  1  0  0  0  0
 31 34  1  1  0  0  0
 32 33  1  0  0  0  0
 33 35  1  6  0  0  0
M  END
>  <CHROM.1>
-130.54738931,119.37221905,-133.93846712,-175.79567637,-176.82793827,153.67015434
20.24840809,-1.57546874,52.10915586,1.58683755,-1.03900222,1.07939368

>  <Name>
2oe5_lig

>  <RI>
0

>  <Rbt.Current_Directory>
/home/itssahil/PROJECTS/Mol_Feturizer/New_Systems/rnas/2oe5

>  <Rbt.Executable>
rbdock ($Id: //depot/dev/client3/rdock/2013.1/src/exe/rbdock.cxx#4 $)

>  <Rbt.Library>
libRbt.so (2013.1, Build901 2013/11/27)

>  <Rbt.Parameter_File>
/export/apps/rDock/src/rDock_2013.1_src/data/scripts/dock_solv.prm

>  <Rbt.Receptor>
prm/pocket_docking_3.prm

>  <SCORE>
-10.3774

>  <SCORE.INTER>
-11.463

>  <SCORE.INTER.CONST>
1

>  <SCORE.INTER.POLAR>
-1.01876

>  <SCORE.INTER.ROT>
6

>  <SCORE.INTER.SOLV>
11.6286

>  <SCORE.INTER.VDW>
-15.7223

>  <SCORE.INTER.norm>
-0.30981

>  <SCORE.INTRA>
0.95555

>  <SCORE.INTRA.DIHEDRAL>
0.934813

>  <SCORE.INTRA.DIHEDRAL.0>
16.2083

>  <SCORE.INTRA.POLAR>
0

>  <SCORE.INTRA.POLAR.0>
0

>  <SCORE.INTRA.REPUL>
0

>  <SCORE.INTRA.REPUL.0>
0

>  <SCORE.INTRA.SOLV>
2.26413

>  <SCORE.INTRA.SOLV.lig_0>
-89.8095

>  <SCORE.INTRA.VDW>
-0.643921

>  <SCORE.INTRA.VDW.0>
-3.19502

>  <SCORE.INTRA.norm>
0.0258257

>  <SCORE.RESTR>
0.13003

>  <SCORE.RESTR.CAVITY>
0.13003

>  <SCORE.RESTR.norm>
0.00351433

>  <SCORE.SYSTEM>
0

>  <SCORE.SYSTEM.CONST>
0

>  <SCORE.SYSTEM.DIHEDRAL>
0

>  <SCORE.SYSTEM.SOLV>
0

>  <SCORE.SYSTEM.norm>
0

>  <SCORE.heavy>
37

>  <SCORE.norm>
-0.28047

>  <RMSD>
1.952

$$$$
2oe5_lig
 OpenBabel11021811463D
libRbt.so/2013.1/901 2013/11/27
 37 40  0  0  0  0  0  0  0  0999 V2000
   20.6055    1.4943   54.1489 C   0  0  1  0  0  0  0  0  0  0  0  0
   19.3965    1.9766   53.3164 C   0  0  1  0  0  0  0  0  0  0  0  0
   18.8555    0.7821   52.4459 C   0  0  0  0  0  0  0  0  0  0  0  0
   20.0446    0.3537   51.5572 C   0  0  1  0  0  0  0  0  0  0  0  0
   21.2827   -0.1355   52.4314 C   0  0  1  0  0  0  0  0  0  0  0  0
   22.4872   -0.5779   51.5564 C   0  0  1  0  0  0  0  0  0  0  0  0
   21.9841   -1.7370   50.6497 C   0  0  1  0  0  0  0  0  0  0  0  0
   20.7345   -1.2252   49.8375 C   0  0  2  0  0  0  0  0  0  0  0  0
   24.3211   -2.8590   50.2719 C   0  0  0  0  0  0  0  0  0  0  0  0
   18.3224    2.4573   54.2157 N   0  0  0  0  0  0  0  0  0  0  0  0
   23.0865   -2.1966   49.7233 N   0  0  0  0  0  0  0  0  0  0  0  0
   20.2402    0.4613   55.0786 O   0  0  0  0  0  0  0  0  0  0  0  0
   21.6881    0.9687   53.3036 O   0  0  0  0  0  0  0  0  0  0  0  0
   19.6397   -0.7525   50.7069 O   0  0  0  0  0  0  0  0  0  0  0  0
   22.9119    0.5518   50.7873 O   0  0  0  0  0  0  0  0  0  0  0  0
   20.2096   -2.2734   49.0468 O   0  0  0  0  0  0  0  0  0  0  0  0
   19.3993   -3.1228   49.8372 C   0  0  2  0  0  0  0  0  0  0  0  0
   20.0567   -4.4783   50.0941 C   0  0  1  0  0  0  0  0  0  0  0  0
   20.2458   -5.2700   48.7710 C   0  0  2  0  0  0  0  0  0  0  0  0
   18.8436   -5.4200   48.1099 C   0  0  1  0  0  0  0  0  0  0  0  0
   18.2739   -3.9877   47.8445 C   0  0  1  0  0  0  0  0  0  0  0  0
   16.8844   -4.0114   47.2477 C   0  0  0  0  0  0  0  0  0  0  0  0
   19.0162   -6.1921   46.8222 N   0  0  0  0  0  0  0  0  0  0  0  0
   18.1279   -3.3158   49.1413 O   0  0  0  0  0  0  0  0  0  0  0  0
   21.3266   -4.2305   50.7294 O   0  0  0  0  0  0  0  0  0  0  0  0
   20.7653   -6.5710   49.1002 O   0  0  0  0  0  0  0  0  0  0  0  0
   16.0042   -4.7645   48.0097 O   0  0  0  0  0  0  0  0  0  0  0  0
   20.8776    0.5684   56.3517 C   0  0  1  0  0  0  0  0  0  0  0  0
   20.0208    1.4786   57.3026 C   0  0  1  0  0  0  0  0  0  0  0  0
   20.7346    1.5702   58.6992 C   0  0  2  0  0  0  0  0  0  0  0  0
   20.8482    0.1631   59.3049 C   0  0  1  0  0  0  0  0  0  0  0  0
   21.7209   -0.7458   58.3559 C   0  0  0  0  0  0  0  0  0  0  0  0
   21.0134   -0.8269   56.9462 C   0  0  2  0  0  0  0  0  0  0  0  0
   21.4928    0.2638   60.6039 N   0  0  0  0  0  0  0  0  0  0  0  0
   21.8179   -1.6589   56.0131 N   0  0  0  0  0  0  0  0  0  0  0  0
   19.9098    2.8140   56.7318 O   0  0  0  0  0  0  0  0  0  0  0  0
   19.9629    2.3675   59.5577 O   0  0  0  0  0  0  0  0  0  0  0  0
  1  2  1  0  0  0  0
  1 12  1  1  0  0  0
  1 13  1  0  0  0  0
  2  3  1  0  0  0  0
  2 10  1  1  0  0  0
  4  3  1  1  0  0  0
  4  5  1  0  0  0  0
  4 14  1  0  0  0  0
  5  6  1  0  0  0  0
  5 13  1  1  0  0  0
  6  7  1  0  0  0  0
  6 15  1  6  0  0  0
  7  8  1  0  0  0  0
  7 11  1  6  0  0  0
  8 14  1  0  0  0  0
  8 16  1  1  0  0  0
  9 11  1  0  0  0  0
 17 16  1  6  0  0  0
 17 18  1  0  0  0  0
 17 24  1  0  0  0  0
 18 19  1  0  0  0  0
 18 25  1  6  0  0  0
 19 20  1  0  0  0  0
 19 26  1  1  0  0  0
 20 21  1  0  0  0  0
 20 23  1  6  0  0  0
 21 22  1  1  0  0  0
 21 24  1  0  0  0  0
 22 27  1  0  0  0  0
 28 12  1  6  0  0  0
 28 29  1  0  0  0  0
 28 33  1  0  0  0  0
 29 30  1  0  0  0  0
 29 36  1  6  0  0  0
 30 31  1  0  0  0  0
 30 37  1  1  0  0  0
 31 32  1  0  0  0  0
 31 34  1  1  0  0  0
 32 33  1  0  0  0  0
 33 35  1  6  0  0  0
M  END
>  <CHROM.1>
-140.53031354,66.09280368,80.42803334,-108.30380718,53.82372627,88.30673918
20.34973672,-1.30975313,52.52492627,1.43639208,-0.44756899,0.97198354

>  <Name>
2oe5_lig

>  <RI>
0

>  <Rbt.Current_Directory>
/home/itssahil/PROJECTS/Mol_Feturizer/New_Systems/rnas/2oe5

>  <Rbt.Executable>
rbdock ($Id: //depot/dev/client3/rdock/2013.1/src/exe/rbdock.cxx#4 $)

>  <Rbt.Library>
libRbt.so (2013.1, Build901 2013/11/27)

>  <Rbt.Parameter_File>
/export/apps/rDock/src/rDock_2013.1_src/data/scripts/dock_solv.prm

>  <Rbt.Receptor>
prm/pocket_docking_3.prm

>  <SCORE>
-13.3332

>  <SCORE.INTER>
-16.9778

>  <SCORE.INTER.CONST>
1

>  <SCORE.INTER.POLAR>
-1.81936

>  <SCORE.INTER.ROT>
6

>  <SCORE.INTER.SOLV>
14.824

>  <SCORE.INTER.VDW>
-17.7953

>  <SCORE.INTER.norm>
-0.458859

>  <SCORE.INTRA>
3.64434

>  <SCORE.INTRA.DIHEDRAL>
0.978991

>  <SCORE.INTRA.DIHEDRAL.0>
16.2083

>  <SCORE.INTRA.POLAR>
0

>  <SCORE.INTRA.POLAR.0>
0

>  <SCORE.INTRA.REPUL>
0

>  <SCORE.INTRA.REPUL.0>
0

>  <SCORE.INTRA.SOLV>
1.19522

>  <SCORE.INTRA.SOLV.lig_0>
-89.8095

>  <SCORE.INTRA.VDW>
2.55724

>  <SCORE.INTRA.VDW.0>
-3.19502

>  <SCORE.INTRA.norm>
0.0984958

>  <SCORE.RESTR>
0.000188829

>  <SCORE.RESTR.CAVITY>
0.000188829

>  <SCORE.RESTR.norm>
5.10348e-06

>  <SCORE.SYSTEM>
0

>  <SCORE.SYSTEM.CONST>
0

>  <SCORE.SYSTEM.DIHEDRAL>
0

>  <SCORE.SYSTEM.SOLV>
0

>  <SCORE.SYSTEM.norm>
0

>  <SCORE.heavy>
37

>  <SCORE.norm>
-0.360358

>  <RMSD>
1.976

$$$$
2oe5_lig
 OpenBabel11021811463D
libRbt.so/2013.1/901 2013/11/27
 37 40  0  0  0  0  0  0  0  0999 V2000
   20.7416    2.0817   53.6493 C   0  0  1  0  0  0  0  0  0  0  0  0
   19.3508    2.2858   53.0080 C   0  0  1  0  0  0  0  0  0  0  0  0
   18.7452    0.8848   52.6239 C   0  0  0  0  0  0  0  0  0  0  0  0
   19.7578    0.2588   51.6389 C   0  0  1  0  0  0  0  0  0  0  0  0
   21.1861    0.0603   52.3148 C   0  0  1  0  0  0  0  0  0  0  0  0
   22.2178   -0.5749   51.3431 C   0  0  1  0  0  0  0  0  0  0  0  0
   21.6387   -1.9509   50.9072 C   0  0  1  0  0  0  0  0  0  0  0  0
   20.2099   -1.7140   50.2861 C   0  0  2  0  0  0  0  0  0  0  0  0
   22.8711   -4.0876   50.0250 C   0  0  0  0  0  0  0  0  0  0  0  0
   18.4481    2.9678   53.9637 N   0  0  0  0  0  0  0  0  0  0  0  0
   22.5616   -2.6194   49.9142 N   0  0  0  0  0  0  0  0  0  0  0  0
   20.6642    1.3351   54.8747 O   0  0  0  0  0  0  0  0  0  0  0  0
   21.6676    1.3716   52.7543 O   0  0  0  0  0  0  0  0  0  0  0  0
   19.2816   -1.0484   51.2205 O   0  0  0  0  0  0  0  0  0  0  0  0
   22.3780    0.3103   50.2300 O   0  0  0  0  0  0  0  0  0  0  0  0
   19.6242   -2.9520   49.9350 O   0  0  0  0  0  0  0  0  0  0  0  0
   18.7518   -2.7846   48.8332 C   0  0  2  0  0  0  0  0  0  0  0  0
   17.9550   -4.0520   48.5257 C   0  0  1  0  0  0  0  0  0  0  0  0
   18.8916   -5.2106   48.0859 C   0  0  2  0  0  0  0  0  0  0  0  0
   19.6991   -4.7171   46.8489 C   0  0  1  0  0  0  0  0  0  0  0  0
   20.5136   -3.4507   47.2720 C   0  0  1  0  0  0  0  0  0  0  0  0
   21.3005   -2.8513   46.1279 C   0  0  0  0  0  0  0  0  0  0  0  0
   20.6121   -5.8391   46.4110 N   0  0  0  0  0  0  0  0  0  0  0  0
   19.5547   -2.4128   47.6692 O   0  0  0  0  0  0  0  0  0  0  0  0
   17.2266   -4.4059   49.7181 O   0  0  0  0  0  0  0  0  0  0  0  0
   18.0695   -6.3303   47.7096 O   0  0  0  0  0  0  0  0  0  0  0  0
   20.4734   -2.3113   45.1548 O   0  0  0  0  0  0  0  0  0  0  0  0
   20.3434    2.1240   56.0207 C   0  0  1  0  0  0  0  0  0  0  0  0
   20.0260    1.1877   57.2412 C   0  0  1  0  0  0  0  0  0  0  0  0
   19.6896    2.0775   58.4916 C   0  0  2  0  0  0  0  0  0  0  0  0
   20.9007    2.9610   58.8270 C   0  0  1  0  0  0  0  0  0  0  0  0
   21.2092    3.9107   57.6058 C   0  0  0  0  0  0  0  0  0  0  0  0
   21.5326    3.0186   56.3434 C   0  0  2  0  0  0  0  0  0  0  0  0
   20.5836    3.7649   59.9958 N   0  0  0  0  0  0  0  0  0  0  0  0
   21.8082    3.8780   55.1621 N   0  0  0  0  0  0  0  0  0  0  0  0
   18.8784    0.3474   56.9274 O   0  0  0  0  0  0  0  0  0  0  0  0
   19.4235    1.2451   59.5891 O   0  0  0  0  0  0  0  0  0  0  0  0
  1  2  1  0  0  0  0
  1 12  1  1  0  0  0
  1 13  1  0  0  0  0
  2  3  1  0  0  0  0
  2 10  1  1  0  0  0
  4  3  1  1  0  0  0
  4  5  1  0  0  0  0
  4 14  1  0  0  0  0
  5  6  1  0  0  0  0
  5 13  1  6  0  0  0
  6  7  1  0  0  0  0
  6 15  1  6  0  0  0
  7  8  1  0  0  0  0
  7 11  1  6  0  0  0
  8 14  1  0  0  0  0
  8 16  1  1  0  0  0
  9 11  1  0  0  0  0
 17 16  1  1  0  0  0
 17 18  1  0  0  0  0
 17 24  1  0  0  0  0
 18 19  1  0  0  0  0
 18 25  1  1  0  0  0
 19 20  1  0  0  0  0
 19 26  1  6  0  0  0
 20 21  1  0  0  0  0
 20 23  1  1  0  0  0
 21 22  1  6  0  0  0
 21 24  1  0  0  0  0
 22 27  1  0  0  0  0
 28 12  1  6  0  0  0
 28 29  1  0  0  0  0
 28 33  1  0  0  0  0
 29 30  1  0  0  0  0
 29 36  1  6  0  0  0
 30 31  1  0  0  0  0
 30 37  1  1  0  0  0
 31 32  1  0  0  0  0
 31 34  1  1  0  0  0
 32 33  1  0  0  0  0
 33 35  1  6  0  0  0
M  END
>  <CHROM.1>
-83.53422744,136.87788282,-150.21497120,-172.60596430,67.26936336,169.65826655
20.22345408,-0.66925698,52.04867104,-1.50936954,-0.76721514,-2.12427631

>  <Name>
2oe5_lig

>  <RI>
0

>  <Rbt.Current_Directory>
/home/itssahil/PROJECTS/Mol_Feturizer/New_Systems/rnas/2oe5

>  <Rbt.Executable>
rbdock ($Id: //depot/dev/client3/rdock/2013.1/src/exe/rbdock.cxx#4 $)

>  <Rbt.Library>
libRbt.so (2013.1, Build901 2013/11/27)

>  <Rbt.Parameter_File>
/export/apps/rDock/src/rDock_2013.1_src/data/scripts/dock_solv.prm

>  <Rbt.Receptor>
prm/pocket_docking_2.prm

>  <SCORE>
-13.4702

>  <SCORE.INTER>
-13.1224

>  <SCORE.INTER.CONST>
1

>  <SCORE.INTER.POLAR>
-1.54066

>  <SCORE.INTER.ROT>
6

>  <SCORE.INTER.SOLV>
12.0023

>  <SCORE.INTER.VDW>
-15.2135

>  <SCORE.INTER.norm>
-0.354659

>  <SCORE.INTRA>
-1.90228

>  <SCORE.INTRA.DIHEDRAL>
-8.26284

>  <SCORE.INTRA.DIHEDRAL.0>
16.2083

>  <SCORE.INTRA.POLAR>
0

>  <SCORE.INTRA.POLAR.0>
0

>  <SCORE.INTRA.REPUL>
0

>  <SCORE.INTRA.REPUL.0>
0

>  <SCORE.INTRA.SOLV>
2.06361

>  <SCORE.INTRA.SOLV.lig_0>
-89.8095

>  <SCORE.INTRA.VDW>
1.19734

>  <SCORE.INTRA.VDW.0>
-3.19502

>  <SCORE.INTRA.norm>
-0.051413

>  <SCORE.RESTR>
1.55449

>  <SCORE.RESTR.CAVITY>
1.55449

>  <SCORE.RESTR.norm>
0.0420133

>  <SCORE.SYSTEM>
0

>  <SCORE.SYSTEM.CONST>
0

>  <SCORE.SYSTEM.DIHEDRAL>
0

>  <SCORE.SYSTEM.SOLV>
0

>  <SCORE.SYSTEM.norm>
0

>  <SCORE.heavy>
37

>  <SCORE.norm>
-0.364059

>  <RMSD>
1.978

$$$$
2oe5_lig
 OpenBabel11021811463D
libRbt.so/2013.1/901 2013/11/27
 37 40  0  0  0  0  0  0  0  0999 V2000
   20.5050    1.0457   54.0588 C   0  0  1  0  0  0  0  0  0  0  0  0
   19.9952    1.8165   52.8205 C   0  0  1  0  0  0  0  0  0  0  0  0
   18.9376    0.9344   52.0587 C   0  0  0  0  0  0  0  0  0  0  0  0
   19.6875   -0.3607   51.6742 C   0  0  1  0  0  0  0  0  0  0  0  0
   20.2098   -1.1391   52.9617 C   0  0  1  0  0  0  0  0  0  0  0  0
   20.9608   -2.4489   52.5973 C   0  0  1  0  0  0  0  0  0  0  0  0
   19.9593   -3.3380   51.8068 C   0  0  1  0  0  0  0  0  0  0  0  0
   19.4345   -2.5152   50.5696 C   0  0  2  0  0  0  0  0  0  0  0  0
   19.8526   -5.9079   51.3099 C   0  0  0  0  0  0  0  0  0  0  0  0
   19.3647    3.0890   53.2409 N   0  0  0  0  0  0  0  0  0  0  0  0
   20.6281   -4.6198   51.3661 N   0  0  0  0  0  0  0  0  0  0  0  0
   19.4523    0.7876   55.0023 O   0  0  0  0  0  0  0  0  0  0  0  0
   21.1065   -0.2474   53.6998 O   0  0  0  0  0  0  0  0  0  0  0  0
   18.7870   -1.2469   50.9571 O   0  0  0  0  0  0  0  0  0  0  0  0
   22.0995   -2.0981   51.8045 O   0  0  0  0  0  0  0  0  0  0  0  0
   18.4716   -3.2698   49.8605 O   0  0  0  0  0  0  0  0  0  0  0  0
   18.3140   -2.7543   48.5519 C   0  0  2  0  0  0  0  0  0  0  0  0
   17.5840   -3.7285   47.6281 C   0  0  1  0  0  0  0  0  0  0  0  0
   18.4087   -5.0283   47.4191 C   0  0  2  0  0  0  0  0  0  0  0  0
   19.7977   -4.6156   46.8479 C   0  0  1  0  0  0  0  0  0  0  0  0
   20.4844   -3.6606   47.8787 C   0  0  1  0  0  0  0  0  0  0  0  0
   21.8267   -3.1521   47.4019 C   0  0  0  0  0  0  0  0  0  0  0  0
   20.6074   -5.8744   46.6381 N   0  0  0  0  0  0  0  0  0  0  0  0
   19.6424   -2.4659   48.0132 O   0  0  0  0  0  0  0  0  0  0  0  0
   16.3075   -4.0223   48.2297 O   0  0  0  0  0  0  0  0  0  0  0  0
   17.7161   -5.8462   46.4586 O   0  0  0  0  0  0  0  0  0  0  0  0
   22.3583   -2.2032   48.2619 O   0  0  0  0  0  0  0  0  0  0  0  0
   19.7668    1.1577   56.3450 C   0  0  1  0  0  0  0  0  0  0  0  0
   18.4679    1.6424   57.0831 C   0  0  1  0  0  0  0  0  0  0  0  0
   18.8365    2.0307   58.5601 C   0  0  2  0  0  0  0  0  0  0  0  0
   19.4051    0.7999   59.2822 C   0  0  1  0  0  0  0  0  0  0  0  0
   20.7174    0.3230   58.5483 C   0  0  0  0  0  0  0  0  0  0  0  0
   20.3524   -0.0534   57.0584 C   0  0  2  0  0  0  0  0  0  0  0  0
   19.7242    1.1673   60.6520 N   0  0  0  0  0  0  0  0  0  0  0  0
   21.5696   -0.4882   56.3240 N   0  0  0  0  0  0  0  0  0  0  0  0
   17.9247    2.8093   56.4013 O   0  0  0  0  0  0  0  0  0  0  0  0
   17.6754    2.4468   59.2288 O   0  0  0  0  0  0  0  0  0  0  0  0
  1  2  1  0  0  0  0
  1 12  1  1  0  0  0
  1 13  1  0  0  0  0
  2  3  1  0  0  0  0
  2 10  1  1  0  0  0
  4  3  1  1  0  0  0
  4  5  1  0  0  0  0
  4 14  1  0  0  0  0
  5  6  1  0  0  0  0
  5 13  1  6  0  0  0
  6  7  1  0  0  0  0
  6 15  1  6  0  0  0
  7  8  1  0  0  0  0
  7 11  1  6  0  0  0
  8 14  1  0  0  0  0
  8 16  1  1  0  0  0
  9 11  1  0  0  0  0
 17 16  1  1  0  0  0
 17 18  1  0  0  0  0
 17 24  1  0  0  0  0
 18 19  1  0  0  0  0
 18 25  1  1  0  0  0
 19 20  1  0  0  0  0
 19 26  1  6  0  0  0
 20 21  1  0  0  0  0
 20 23  1  1  0  0  0
 21 22  1  6  0  0  0
 21 24  1  0  0  0  0
 22 27  1  0  0  0  0
 28 12  1  6  0  0  0
 28 29  1  0  0  0  0
 28 33  1  0  0  0  0
 29 30  1  0  0  0  0
 29 36  1  6  0  0  0
 30 31  1  0  0  0  0
 30 37  1  1  0  0  0
 31 32  1  0  0  0  0
 31 34  1  1  0  0  0
 32 33  1  0  0  0  0
 33 35  1  6  0  0  0
M  END
>  <CHROM.1>
-129.99733950,145.27257384,-161.26270411,164.72560025,173.84239709,147.02717776
19.63356162,-1.39312965,52.35593307,1.56809776,-0.77383764,1.03902418

>  <Name>
2oe5_lig

>  <RI>
0

>  <Rbt.Current_Directory>
/home/itssahil/PROJECTS/Mol_Feturizer/New_Systems/rnas/2oe5

>  <Rbt.Executable>
rbdock ($Id: //depot/dev/client3/rdock/2013.1/src/exe/rbdock.cxx#4 $)

>  <Rbt.Library>
libRbt.so (2013.1, Build901 2013/11/27)

>  <Rbt.Parameter_File>
/export/apps/rDock/src/rDock_2013.1_src/data/scripts/dock_solv.prm

>  <Rbt.Receptor>
prm/pocket_docking_7.prm

>  <SCORE>
-20.3158

>  <SCORE.INTER>
-20.3801

>  <SCORE.INTER.CONST>
1

>  <SCORE.INTER.POLAR>
-1.38199

>  <SCORE.INTER.ROT>
6

>  <SCORE.INTER.SOLV>
13.8214

>  <SCORE.INTER.VDW>
-21.1872

>  <SCORE.INTER.norm>
-0.550814

>  <SCORE.INTRA>
0.0643471

>  <SCORE.INTRA.DIHEDRAL>
-1.75879

>  <SCORE.INTRA.DIHEDRAL.0>
16.2083

>  <SCORE.INTRA.POLAR>
0

>  <SCORE.INTRA.POLAR.0>
0

>  <SCORE.INTRA.REPUL>
0.0598286

>  <SCORE.INTRA.REPUL.0>
0

>  <SCORE.INTRA.SOLV>
0.566221

>  <SCORE.INTRA.SOLV.lig_0>
-89.8095

>  <SCORE.INTRA.VDW>
0.361487

>  <SCORE.INTRA.VDW.0>
-3.19502

>  <SCORE.INTRA.norm>
0.00173911

>  <SCORE.RESTR>
0

>  <SCORE.RESTR.CAVITY>
0

>  <SCORE.RESTR.norm>
0

>  <SCORE.SYSTEM>
0

>  <SCORE.SYSTEM.CONST>
0

>  <SCORE.SYSTEM.DIHEDRAL>
0

>  <SCORE.SYSTEM.SOLV>
0

>  <SCORE.SYSTEM.norm>
0

>  <SCORE.heavy>
37

>  <SCORE.norm>
-0.549075

>  <RMSD>
1.993

$$$$
2oe5_lig
 OpenBabel11021811463D
libRbt.so/2013.1/901 2013/11/27
 37 40  0  0  0  0  0  0  0  0999 V2000
   20.4394    1.5063   55.2121 C   0  0  1  0  0  0  0  0  0  0  0  0
   19.6328    1.8067   53.9290 C   0  0  1  0  0  0  0  0  0  0  0  0
   19.2492    0.4511   53.2273 C   0  0  0  0  0  0  0  0  0  0  0  0
   20.5944   -0.2458   52.9233 C   0  0  1  0  0  0  0  0  0  0  0  0
   21.4141   -0.5431   54.2560 C   0  0  1  0  0  0  0  0  0  0  0  0
   22.7674   -1.2506   53.9732 C   0  0  1  0  0  0  0  0  0  0  0  0
   22.4357   -2.5832   53.2431 C   0  0  1  0  0  0  0  0  0  0  0  0
   21.5882   -2.2473   51.9578 C   0  0  2  0  0  0  0  0  0  0  0  0
   24.4983   -2.9235   51.6643 C   0  0  0  0  0  0  0  0  0  0  0  0
   18.3990    2.5518   54.2698 N   0  0  0  0  0  0  0  0  0  0  0  0
   23.7074   -3.3162   52.8825 N   0  0  0  0  0  0  0  0  0  0  0  0
   19.6662    0.7688   56.1728 O   0  0  0  0  0  0  0  0  0  0  0  0
   21.6582    0.7317   54.9339 O   0  0  0  0  0  0  0  0  0  0  0  0
   20.3435   -1.5169   52.2661 O   0  0  0  0  0  0  0  0  0  0  0  0
   23.5576   -0.3804   53.1567 O   0  0  0  0  0  0  0  0  0  0  0  0
   21.2132   -3.4417   51.3004 O   0  0  0  0  0  0  0  0  0  0  0  0
   20.3364   -3.1541   50.2273 C   0  0  2  0  0  0  0  0  0  0  0  0
   19.0213   -3.9259   50.3292 C   0  0  1  0  0  0  0  0  0  0  0  0
   19.2590   -5.4568   50.2153 C   0  0  2  0  0  0  0  0  0  0  0  0
   19.9839   -5.7194   48.8620 C   0  0  1  0  0  0  0  0  0  0  0  0
   21.3334   -4.9288   48.8703 C   0  0  1  0  0  0  0  0  0  0  0  0
   22.1026   -5.0696   47.5757 C   0  0  0  0  0  0  0  0  0  0  0  0
   20.2174   -7.2076   48.7400 N   0  0  0  0  0  0  0  0  0  0  0  0
   21.0155   -3.5000   48.9795 O   0  0  0  0  0  0  0  0  0  0  0  0
   18.4206   -3.5931   51.5965 O   0  0  0  0  0  0  0  0  0  0  0  0
   17.9758   -6.1081   50.2092 O   0  0  0  0  0  0  0  0  0  0  0  0
   22.5369   -6.3699   47.3679 O   0  0  0  0  0  0  0  0  0  0  0  0
   20.0998    0.9339   57.5232 C   0  0  1  0  0  0  0  0  0  0  0  0
   19.0531    1.7936   58.3183 C   0  0  1  0  0  0  0  0  0  0  0  0
   19.5449    1.9500   59.8023 C   0  0  2  0  0  0  0  0  0  0  0  0
   19.6610    0.5610   60.4480 C   0  0  1  0  0  0  0  0  0  0  0  0
   20.7230   -0.2962   59.6570 C   0  0  0  0  0  0  0  0  0  0  0  0
   20.2387   -0.4419   58.1608 C   0  0  2  0  0  0  0  0  0  0  0  0
   20.0983    0.7206   61.8251 N   0  0  0  0  0  0  0  0  0  0  0  0
   21.2258   -1.2269   57.3739 N   0  0  0  0  0  0  0  0  0  0  0  0
   18.9392    3.1117   57.7091 O   0  0  0  0  0  0  0  0  0  0  0  0
   18.6035    2.7019   60.5211 O   0  0  0  0  0  0  0  0  0  0  0  0
  1  2  1  0  0  0  0
  1 12  1  1  0  0  0
  1 13  1  0  0  0  0
  2  3  1  0  0  0  0
  2 10  1  1  0  0  0
  4  3  1  1  0  0  0
  4  5  1  0  0  0  0
  4 14  1  0  0  0  0
  5  6  1  0  0  0  0
  5 13  1  6  0  0  0
  6  7  1  0  0  0  0
  6 15  1  6  0  0  0
  7  8  1  0  0  0  0
  7 11  1  6  0  0  0
  8 14  1  0  0  0  0
  8 16  1  1  0  0  0
  9 11  1  0  0  0  0
 17 16  1  1  0  0  0
 17 18  1  0  0  0  0
 17 24  1  0  0  0  0
 18 19  1  0  0  0  0
 18 25  1  1  0  0  0
 19 20  1  0  0  0  0
 19 26  1  6  0  0  0
 20 21  1  0  0  0  0
 20 23  1  1  0  0  0
 21 22  1  6  0  0  0
 21 24  1  0  0  0  0
 22 27  1  0  0  0  0
 28 12  1  6  0  0  0
 28 29  1  0  0  0  0
 28 33  1  0  0  0  0
 29 30  1  0  0  0  0
 29 36  1  6  0  0  0
 30 31  1  0  0  0  0
 30 37  1  1  0  0  0
 31 32  1  0  0  0  0
 31 34  1  1  0  0  0
 32 33  1  0  0  0  0
 33 35  1  6  0  0  0
M  END
>  <CHROM.1>
-155.23261237,-80.52516533,173.87826270,-124.57871939,-65.85268214,108.83472270
20.58553685,-1.52322392,53.73548626,-1.67418539,0.01298298,-2.16910553

>  <Name>
2oe5_lig

>  <RI>
0

>  <Rbt.Current_Directory>
/home/itssahil/PROJECTS/Mol_Feturizer/New_Systems/rnas/2oe5

>  <Rbt.Executable>
rbdock ($Id: //depot/dev/client3/rdock/2013.1/src/exe/rbdock.cxx#4 $)

>  <Rbt.Library>
libRbt.so (2013.1, Build901 2013/11/27)

>  <Rbt.Parameter_File>
/export/apps/rDock/src/rDock_2013.1_src/data/scripts/dock_solv.prm

>  <Rbt.Receptor>
prm/pocket_docking_3.prm

>  <SCORE>
-9.93458

>  <SCORE.INTER>
-11.8697

>  <SCORE.INTER.CONST>
1

>  <SCORE.INTER.POLAR>
-0.841827

>  <SCORE.INTER.ROT>
6

>  <SCORE.INTER.SOLV>
15.0918

>  <SCORE.INTER.VDW>
-17.7377

>  <SCORE.INTER.norm>
-0.320803

>  <SCORE.INTRA>
1.93007

>  <SCORE.INTRA.DIHEDRAL>
0.793233

>  <SCORE.INTRA.DIHEDRAL.0>
16.2083

>  <SCORE.INTRA.POLAR>
0

>  <SCORE.INTRA.POLAR.0>
0

>  <SCORE.INTRA.REPUL>
0

>  <SCORE.INTRA.REPUL.0>
0

>  <SCORE.INTRA.SOLV>
0.817921

>  <SCORE.INTRA.SOLV.lig_0>
-89.8095

>  <SCORE.INTRA.VDW>
1.12449

>  <SCORE.INTRA.VDW.0>
-3.19502

>  <SCORE.INTRA.norm>
0.0521641

>  <SCORE.RESTR>
0.00504386

>  <SCORE.RESTR.CAVITY>
0.00504386

>  <SCORE.RESTR.norm>
0.00013632

>  <SCORE.SYSTEM>
0

>  <SCORE.SYSTEM.CONST>
0

>  <SCORE.SYSTEM.DIHEDRAL>
0

>  <SCORE.SYSTEM.SOLV>
0

>  <SCORE.SYSTEM.norm>
0

>  <SCORE.heavy>
37

>  <SCORE.norm>
-0.268502

>  <RMSD>
2.006

$$$$
2oe5_lig
 OpenBabel11021811463D
libRbt.so/2013.1/901 2013/11/27
 37 40  0  0  0  0  0  0  0  0999 V2000
   20.1931    1.4137   54.3183 C   0  0  1  0  0  0  0  0  0  0  0  0
   19.5719    2.0686   53.0642 C   0  0  1  0  0  0  0  0  0  0  0  0
   18.7683    0.9834   52.2556 C   0  0  0  0  0  0  0  0  0  0  0  0
   19.8031   -0.1059   51.8953 C   0  0  1  0  0  0  0  0  0  0  0  0
   20.4363   -0.7662   53.1989 C   0  0  1  0  0  0  0  0  0  0  0  0
   21.4747   -1.8699   52.8587 C   0  0  1  0  0  0  0  0  0  0  0  0
   20.7285   -2.9490   52.0236 C   0  0  1  0  0  0  0  0  0  0  0  0
   20.0810   -2.2469   50.7703 C   0  0  2  0  0  0  0  0  0  0  0  0
   22.7303   -3.7842   50.5545 C   0  0  0  0  0  0  0  0  0  0  0  0
   18.6571    3.1622   53.4651 N   0  0  0  0  0  0  0  0  0  0  0  0
   21.6835   -4.0429   51.6039 N   0  0  0  0  0  0  0  0  0  0  0  0
   19.1893    0.9139   55.2169 O   0  0  0  0  0  0  0  0  0  0  0  0
   21.0819    0.2928   53.9774 O   0  0  0  0  0  0  0  0  0  0  0  0
   19.1519   -1.1607   51.1377 O   0  0  0  0  0  0  0  0  0  0  0  0
   22.5357   -1.2627   52.1145 O   0  0  0  0  0  0  0  0  0  0  0  0
   19.3392   -3.1873   50.0189 O   0  0  0  0  0  0  0  0  0  0  0  0
   18.7855   -2.5690   48.8725 C   0  0  2  0  0  0  0  0  0  0  0  0
   17.9225   -3.5292   48.0548 C   0  0  1  0  0  0  0  0  0  0  0  0
   18.7727   -4.6932   47.4756 C   0  0  2  0  0  0  0  0  0  0  0  0
   19.9107   -4.0620   46.6198 C   0  0  1  0  0  0  0  0  0  0  0  0
   20.7632   -3.1365   47.5488 C   0  0  1  0  0  0  0  0  0  0  0  0
   21.8735   -2.4255   46.8077 C   0  0  0  0  0  0  0  0  0  0  0  0
   20.7427   -5.1871   46.0490 N   0  0  0  0  0  0  0  0  0  0  0  0
   19.8855   -2.0711   48.0479 O   0  0  0  0  0  0  0  0  0  0  0  0
   16.8899   -4.0323   48.9255 O   0  0  0  0  0  0  0  0  0  0  0  0
   17.9215   -5.4908   46.6328 O   0  0  0  0  0  0  0  0  0  0  0  0
   22.5499   -3.2751   45.9455 O   0  0  0  0  0  0  0  0  0  0  0  0
   19.5498    0.9893   56.5964 C   0  0  1  0  0  0  0  0  0  0  0  0
   20.7601    0.0306   56.8848 C   0  0  1  0  0  0  0  0  0  0  0  0
   21.1463    0.1409   58.4037 C   0  0  2  0  0  0  0  0  0  0  0  0
   21.5539    1.5877   58.7204 C   0  0  1  0  0  0  0  0  0  0  0  0
   20.3330    2.5474   58.4439 C   0  0  0  0  0  0  0  0  0  0  0  0
   19.9327    2.4269   56.9209 C   0  0  2  0  0  0  0  0  0  0  0  0
   21.9266    1.6721   60.1229 N   0  0  0  0  0  0  0  0  0  0  0  0
   18.7682    3.3018   56.6235 N   0  0  0  0  0  0  0  0  0  0  0  0
   20.3782   -1.3427   56.5851 O   0  0  0  0  0  0  0  0  0  0  0  0
   22.2391   -0.7001   58.6617 O   0  0  0  0  0  0  0  0  0  0  0  0
  1  2  1  0  0  0  0
  1 12  1  1  0  0  0
  1 13  1  0  0  0  0
  2  3  1  0  0  0  0
  2 10  1  1  0  0  0
  4  3  1  1  0  0  0
  4  5  1  0  0  0  0
  4 14  1  0  0  0  0
  5  6  1  0  0  0  0
  5 13  1  6  0  0  0
  6  7  1  0  0  0  0
  6 15  1  6  0  0  0
  7  8  1  0  0  0  0
  7 11  1  6  0  0  0
  8 14  1  0  0  0  0
  8 16  1  1  0  0  0
  9 11  1  0  0  0  0
 17 16  1  1  0  0  0
 17 18  1  0  0  0  0
 17 24  1  0  0  0  0
 18 19  1  0  0  0  0
 18 25  1  1  0  0  0
 19 20  1  0  0  0  0
 19 26  1  6  0  0  0
 20 21  1  0  0  0  0
 20 23  1  1  0  0  0
 21 22  1  6  0  0  0
 21 24  1  0  0  0  0
 22 27  1  0  0  0  0
 28 12  1  6  0  0  0
 28 29  1  0  0  0  0
 28 33  1  0  0  0  0
 29 30  1  0  0  0  0
 29 36  1  1  0  0  0
 30 31  1  0  0  0  0
 30 37  1  6  0  0  0
 31 32  1  0  0  0  0
 31 34  1  1  0  0  0
 32 33  1  0  0  0  0
 33 35  1  1  0  0  0
M  END
>  <CHROM.1>
-147.06617360,-71.52519790,-178.42553708,-177.54823401,-44.36118217,-65.90509950
20.22168277,-1.18711147,52.31828755,1.48988929,-0.70334963,1.03354072

>  <Name>
2oe5_lig

>  <RI>
0

>  <Rbt.Current_Directory>
/home/itssahil/PROJECTS/Mol_Feturizer/New_Systems/rnas/2oe5

>  <Rbt.Executable>
rbdock ($Id: //depot/dev/client3/rdock/2013.1/src/exe/rbdock.cxx#4 $)

>  <Rbt.Library>
libRbt.so (2013.1, Build901 2013/11/27)

>  <Rbt.Parameter_File>
/export/apps/rDock/src/rDock_2013.1_src/data/scripts/dock_solv.prm

>  <Rbt.Receptor>
prm/pocket_docking_3.prm

>  <SCORE>
-18.244

>  <SCORE.INTER>
-16.3105

>  <SCORE.INTER.CONST>
1

>  <SCORE.INTER.POLAR>
-1.56785

>  <SCORE.INTER.ROT>
6

>  <SCORE.INTER.SOLV>
14.8397

>  <SCORE.INTER.VDW>
-18.1941

>  <SCORE.INTER.norm>
-0.440826

>  <SCORE.INTRA>
-1.93348

>  <SCORE.INTRA.DIHEDRAL>
-10.8764

>  <SCORE.INTRA.DIHEDRAL.0>
16.2083

>  <SCORE.INTRA.POLAR>
0

>  <SCORE.INTRA.POLAR.0>
0

>  <SCORE.INTRA.REPUL>
0

>  <SCORE.INTRA.REPUL.0>
0

>  <SCORE.INTRA.SOLV>
1.1737

>  <SCORE.INTRA.SOLV.lig_0>
-89.8095

>  <SCORE.INTRA.VDW>
2.91788

>  <SCORE.INTRA.VDW.0>
-3.19502

>  <SCORE.INTRA.norm>
-0.0522561

>  <SCORE.RESTR>
0

>  <SCORE.RESTR.CAVITY>
0

>  <SCORE.RESTR.norm>
0

>  <SCORE.SYSTEM>
0

>  <SCORE.SYSTEM.CONST>
0

>  <SCORE.SYSTEM.DIHEDRAL>
0

>  <SCORE.SYSTEM.SOLV>
0

>  <SCORE.SYSTEM.norm>
0

>  <SCORE.heavy>
37

>  <SCORE.norm>
-0.493082

>  <RMSD>
2.032

$$$$
2oe5_lig
 OpenBabel11021811463D
libRbt.so/2013.1/901 2013/11/27
 37 40  0  0  0  0  0  0  0  0999 V2000
   20.3976    1.8860   54.1465 C   0  0  1  0  0  0  0  0  0  0  0  0
   19.5475    2.4205   52.9722 C   0  0  1  0  0  0  0  0  0  0  0  0
   18.8227    1.2157   52.2650 C   0  0  0  0  0  0  0  0  0  0  0  0
   19.9565    0.2803   51.7885 C   0  0  1  0  0  0  0  0  0  0  0  0
   20.8249   -0.2569   53.0107 C   0  0  1  0  0  0  0  0  0  0  0  0
   21.9666   -1.2055   52.5539 C   0  0  1  0  0  0  0  0  0  0  0  0
   21.2942   -2.3966   51.8137 C   0  0  1  0  0  0  0  0  0  0  0  0
   20.4115   -1.8190   50.6431 C   0  0  2  0  0  0  0  0  0  0  0  0
   23.4416   -3.8503   52.1858 C   0  0  0  0  0  0  0  0  0  0  0  0
   18.5357    3.3781   53.4748 N   0  0  0  0  0  0  0  0  0  0  0  0
   22.3434   -3.3490   51.2877 N   0  0  0  0  0  0  0  0  0  0  0  0
   19.5874    1.2637   55.1570 O   0  0  0  0  0  0  0  0  0  0  0  0
   21.3948    0.8987   53.7065 O   0  0  0  0  0  0  0  0  0  0  0  0
   19.3828   -0.8715   51.1142 O   0  0  0  0  0  0  0  0  0  0  0  0
   22.8352   -0.4658   51.6899 O   0  0  0  0  0  0  0  0  0  0  0  0
   19.7329   -2.8707   49.9852 O   0  0  0  0  0  0  0  0  0  0  0  0
   19.1549   -2.4015   48.7816 C   0  0  2  0  0  0  0  0  0  0  0  0
   18.2194   -3.4300   48.1472 C   0  0  1  0  0  0  0  0  0  0  0  0
   18.9964   -4.7038   47.7150 C   0  0  2  0  0  0  0  0  0  0  0  0
   20.1203   -4.2571   46.7336 C   0  0  1  0  0  0  0  0  0  0  0  0
   21.0487   -3.2461   47.4834 C   0  0  1  0  0  0  0  0  0  0  0  0
   22.1532   -2.7026   46.6046 C   0  0  0  0  0  0  0  0  0  0  0  0
   20.8810   -5.4905   46.3045 N   0  0  0  0  0  0  0  0  0  0  0  0
   20.2369   -2.0802   47.8521 O   0  0  0  0  0  0  0  0  0  0  0  0
   17.2064   -3.7528   49.1206 O   0  0  0  0  0  0  0  0  0  0  0  0
   18.0780   -5.5759   47.0315 O   0  0  0  0  0  0  0  0  0  0  0  0
   22.9002   -1.7295   47.2508 O   0  0  0  0  0  0  0  0  0  0  0  0
   20.2455    1.0964   56.4130 C   0  0  1  0  0  0  0  0  0  0  0  0
   21.4753    0.1336   56.2470 C   0  0  1  0  0  0  0  0  0  0  0  0
   22.1899   -0.0240   57.6373 C   0  0  2  0  0  0  0  0  0  0  0  0
   22.6788    1.3513   58.1159 C   0  0  1  0  0  0  0  0  0  0  0  0
   21.4413    2.3127   58.2960 C   0  0  0  0  0  0  0  0  0  0  0  0
   20.7119    2.4606   56.9029 C   0  0  2  0  0  0  0  0  0  0  0  0
   23.3541    1.1891   59.3930 N   0  0  0  0  0  0  0  0  0  0  0  0
   19.5235    3.3439   57.0349 N   0  0  0  0  0  0  0  0  0  0  0  0
   21.0163   -1.1719   55.7925 O   0  0  0  0  0  0  0  0  0  0  0  0
   23.3002   -0.8688   57.4896 O   0  0  0  0  0  0  0  0  0  0  0  0
  1  2  1  0  0  0  0
  1 12  1  1  0  0  0
  1 13  1  0  0  0  0
  2  3  1  0  0  0  0
  2 10  1  1  0  0  0
  4  3  1  1  0  0  0
  4  5  1  0  0  0  0
  4 14  1  0  0  0  0
  5  6  1  0  0  0  0
  5 13  1  6  0  0  0
  6  7  1  0  0  0  0
  6 15  1  6  0  0  0
  7  8  1  0  0  0  0
  7 11  1  6  0  0  0
  8 14  1  0  0  0  0
  8 16  1  1  0  0  0
  9 11  1  0  0  0  0
 17 16  1  1  0  0  0
 17 18  1  0  0  0  0
 17 24  1  0  0  0  0
 18 19  1  0  0  0  0
 18 25  1  1  0  0  0
 19 20  1  0  0  0  0
 19 26  1  6  0  0  0
 20 21  1  0  0  0  0
 20 23  1  1  0  0  0
 21 22  1  6  0  0  0
 21 24  1  0  0  0  0
 22 27  1  0  0  0  0
 28 12  1  6  0  0  0
 28 29  1  0  0  0  0
 28 33  1  0  0  0  0
 29 30  1  0  0  0  0
 29 36  1  1  0  0  0
 30 31  1  0  0  0  0
 30 37  1  6  0  0  0
 31 32  1  0  0  0  0
 31 34  1  1  0  0  0
 32 33  1  0  0  0  0
 33 35  1  1  0  0  0
M  END
>  <CHROM.1>
-163.09182677,49.73396913,-168.43490230,-170.53761656,175.16812146,-63.00021382
20.68952560,-0.98884989,52.23579527,1.41576959,-0.63431700,0.96806213

>  <Name>
2oe5_lig

>  <RI>
0

>  <Rbt.Current_Directory>
/home/itssahil/PROJECTS/Mol_Feturizer/New_Systems/rnas/2oe5

>  <Rbt.Executable>
rbdock ($Id: //depot/dev/client3/rdock/2013.1/src/exe/rbdock.cxx#4 $)

>  <Rbt.Library>
libRbt.so (2013.1, Build901 2013/11/27)

>  <Rbt.Parameter_File>
/export/apps/rDock/src/rDock_2013.1_src/data/scripts/dock_solv.prm

>  <Rbt.Receptor>
prm/pocket_docking_3.prm

>  <SCORE>
-17.7698

>  <SCORE.INTER>
-13.1055

>  <SCORE.INTER.CONST>
1

>  <SCORE.INTER.POLAR>
-1.34591

>  <SCORE.INTER.ROT>
6

>  <SCORE.INTER.SOLV>
14.6288

>  <SCORE.INTER.VDW>
-16.7269

>  <SCORE.INTER.norm>
-0.354202

>  <SCORE.INTRA>
-4.67819

>  <SCORE.INTRA.DIHEDRAL>
-13.5233

>  <SCORE.INTRA.DIHEDRAL.0>
16.2083

>  <SCORE.INTRA.POLAR>
0

>  <SCORE.INTRA.POLAR.0>
0

>  <SCORE.INTRA.REPUL>
0

>  <SCORE.INTRA.REPUL.0>
0

>  <SCORE.INTRA.SOLV>
-0.982994

>  <SCORE.INTRA.SOLV.lig_0>
-89.8095

>  <SCORE.INTRA.VDW>
2.57496

>  <SCORE.INTRA.VDW.0>
-3.19502

>  <SCORE.INTRA.norm>
-0.126438

>  <SCORE.RESTR>
0.0138232

>  <SCORE.RESTR.CAVITY>
0.0138232

>  <SCORE.RESTR.norm>
0.0003736

>  <SCORE.SYSTEM>
0

>  <SCORE.SYSTEM.CONST>
0

>  <SCORE.SYSTEM.DIHEDRAL>
0

>  <SCORE.SYSTEM.SOLV>
0

>  <SCORE.SYSTEM.norm>
0

>  <SCORE.heavy>
37

>  <SCORE.norm>
-0.480266

>  <RMSD>
2.049

$$$$
2oe5_lig
 OpenBabel11021811463D
libRbt.so/2013.1/901 2013/11/27
 37 40  0  0  0  0  0  0  0  0999 V2000
   21.7761    1.0524   55.6150 C   0  0  1  0  0  0  0  0  0  0  0  0
   20.4360    1.4675   54.9677 C   0  0  1  0  0  0  0  0  0  0  0  0
   19.7242    0.1912   54.3830 C   0  0  0  0  0  0  0  0  0  0  0  0
   20.7161   -0.3928   53.3522 C   0  0  1  0  0  0  0  0  0  0  0  0
   22.0927   -0.8103   54.0356 C   0  0  1  0  0  0  0  0  0  0  0  0
   23.1021   -1.4070   53.0172 C   0  0  1  0  0  0  0  0  0  0  0  0
   22.4211   -2.6542   52.3852 C   0  0  1  0  0  0  0  0  0  0  0  0
   21.0452   -2.2059   51.7614 C   0  0  2  0  0  0  0  0  0  0  0  0
   24.5655   -4.0136   51.7400 C   0  0  0  0  0  0  0  0  0  0  0  0
   19.5597    2.1003   55.9801 N   0  0  0  0  0  0  0  0  0  0  0  0
   23.3202   -3.2708   51.3384 N   0  0  0  0  0  0  0  0  0  0  0  0
   21.5833    0.1629   56.7270 O   0  0  0  0  0  0  0  0  0  0  0  0
   22.6707    0.3817   54.6596 O   0  0  0  0  0  0  0  0  0  0  0  0
   20.1428   -1.5840   52.7497 O   0  0  0  0  0  0  0  0  0  0  0  0
   23.3851   -0.4031   52.0372 O   0  0  0  0  0  0  0  0  0  0  0  0
   20.3664   -3.3274   51.2316 O   0  0  0  0  0  0  0  0  0  0  0  0
   19.4838   -2.9226   50.2020 C   0  0  2  0  0  0  0  0  0  0  0  0
   18.6026   -4.0695   49.7084 C   0  0  1  0  0  0  0  0  0  0  0  0
   19.4551   -5.1884   49.0492 C   0  0  2  0  0  0  0  0  0  0  0  0
   20.2664   -4.5381   47.8896 C   0  0  1  0  0  0  0  0  0  0  0  0
   21.1677   -3.4130   48.4963 C   0  0  1  0  0  0  0  0  0  0  0  0
   21.9671   -2.6733   47.4469 C   0  0  0  0  0  0  0  0  0  0  0  0
   21.0977   -5.6198   47.2393 N   0  0  0  0  0  0  0  0  0  0  0  0
   20.2845   -2.4043   49.0938 O   0  0  0  0  0  0  0  0  0  0  0  0
   17.8780   -4.5795   50.8453 O   0  0  0  0  0  0  0  0  0  0  0  0
   18.5565   -6.1768   48.5138 O   0  0  0  0  0  0  0  0  0  0  0  0
   21.1564   -2.1383   46.4574 O   0  0  0  0  0  0  0  0  0  0  0  0
   21.2283    0.8180   57.9450 C   0  0  1  0  0  0  0  0  0  0  0  0
   19.9558    0.1377   58.5654 C   0  0  1  0  0  0  0  0  0  0  0  0
   19.5932    0.8663   59.9094 C   0  0  2  0  0  0  0  0  0  0  0  0
   20.7693    0.7393   60.8893 C   0  0  1  0  0  0  0  0  0  0  0  0
   22.0426    1.4354   60.2710 C   0  0  0  0  0  0  0  0  0  0  0  0
   22.4001    0.7149   58.9118 C   0  0  2  0  0  0  0  0  0  0  0  0
   20.4141    1.4005   62.1342 N   0  0  0  0  0  0  0  0  0  0  0  0
   23.5849    1.3572   58.2843 N   0  0  0  0  0  0  0  0  0  0  0  0
   18.8379    0.2552   57.6391 O   0  0  0  0  0  0  0  0  0  0  0  0
   18.4678    0.2498   60.4765 O   0  0  0  0  0  0  0  0  0  0  0  0
  1  2  1  0  0  0  0
  1 12  1  1  0  0  0
  1 13  1  0  0  0  0
  2  3  1  0  0  0  0
  2 10  1  1  0  0  0
  4  3  1  1  0  0  0
  4  5  1  0  0  0  0
  4 14  1  0  0  0  0
  5  6  1  0  0  0  0
  5 13  1  6  0  0  0
  6  7  1  0  0  0  0
  6 15  1  6  0  0  0
  7  8  1  0  0  0  0
  7 11  1  6  0  0  0
  8 14  1  0  0  0  0
  8 16  1  1  0  0  0
  9 11  1  0  0  0  0
 17 16  1  1  0  0  0
 17 18  1  0  0  0  0
 17 24  1  0  0  0  0
 18 19  1  0  0  0  0
 18 25  1  1  0  0  0
 19 20  1  0  0  0  0
 19 26  1  6  0  0  0
 20 21  1  0  0  0  0
 20 23  1  1  0  0  0
 21 22  1  6  0  0  0
 21 24  1  0  0  0  0
 22 27  1  0  0  0  0
 28 12  1  6  0  0  0
 28 29  1  0  0  0  0
 28 33  1  0  0  0  0
 29 30  1  0  0  0  0
 29 36  1  6  0  0  0
 30 31  1  0  0  0  0
 30 37  1  1  0  0  0
 31 32  1  0  0  0  0
 31 34  1  1  0  0  0
 32 33  1  0  0  0  0
 33 35  1  6  0  0  0
M  END
>  <CHROM.1>
-80.83471513,71.79507023,-154.47169869,-173.14605110,55.73392948,129.29190159
20.90555426,-1.38886697,53.62461009,-1.55131483,-0.34037875,-2.00672224

>  <Name>
2oe5_lig

>  <RI>
0

>  <Rbt.Current_Directory>
/home/itssahil/PROJECTS/Mol_Feturizer/New_Systems/rnas/2oe5

>  <Rbt.Executable>
rbdock ($Id: //depot/dev/client3/rdock/2013.1/src/exe/rbdock.cxx#4 $)

>  <Rbt.Library>
libRbt.so (2013.1, Build901 2013/11/27)

>  <Rbt.Parameter_File>
/export/apps/rDock/src/rDock_2013.1_src/data/scripts/dock_solv.prm

>  <Rbt.Receptor>
prm/pocket_docking_3.prm

>  <SCORE>
-10.5508

>  <SCORE.INTER>
-9.55009

>  <SCORE.INTER.CONST>
1

>  <SCORE.INTER.POLAR>
-1.25894

>  <SCORE.INTER.ROT>
6

>  <SCORE.INTER.SOLV>
8.66361

>  <SCORE.INTER.VDW>
-12.6581

>  <SCORE.INTER.norm>
-0.25811

>  <SCORE.INTRA>
-1.1624

>  <SCORE.INTRA.DIHEDRAL>
-4.26511

>  <SCORE.INTRA.DIHEDRAL.0>
16.2083

>  <SCORE.INTRA.POLAR>
0

>  <SCORE.INTRA.POLAR.0>
0

>  <SCORE.INTRA.REPUL>
0

>  <SCORE.INTRA.REPUL.0>
0

>  <SCORE.INTRA.SOLV>
1.59496

>  <SCORE.INTRA.SOLV.lig_0>
-89.8095

>  <SCORE.INTRA.VDW>
0.172668

>  <SCORE.INTRA.VDW.0>
-3.19502

>  <SCORE.INTRA.norm>
-0.0314163

>  <SCORE.RESTR>
0.1617

>  <SCORE.RESTR.CAVITY>
0.1617

>  <SCORE.RESTR.norm>
0.00437027

>  <SCORE.SYSTEM>
0

>  <SCORE.SYSTEM.CONST>
0

>  <SCORE.SYSTEM.DIHEDRAL>
0

>  <SCORE.SYSTEM.SOLV>
0

>  <SCORE.SYSTEM.norm>
0

>  <SCORE.heavy>
37

>  <SCORE.norm>
-0.285156

>  <RMSD>
2.086

$$$$
2oe5_lig
 OpenBabel11021811463D
libRbt.so/2013.1/901 2013/11/27
 37 40  0  0  0  0  0  0  0  0999 V2000
   20.9473    1.6307   53.6834 C   0  0  1  0  0  0  0  0  0  0  0  0
   19.8688    2.1373   52.6998 C   0  0  1  0  0  0  0  0  0  0  0  0
   19.1304    0.9042   52.0584 C   0  0  0  0  0  0  0  0  0  0  0  0
   20.2356    0.0916   51.3474 C   0  0  1  0  0  0  0  0  0  0  0  0
   21.3404   -0.4181   52.3749 C   0  0  1  0  0  0  0  0  0  0  0  0
   22.4578   -1.2442   51.6811 C   0  0  1  0  0  0  0  0  0  0  0  0
   21.7641   -2.4576   50.9992 C   0  0  1  0  0  0  0  0  0  0  0  0
   20.6508   -1.9111   50.0271 C   0  0  2  0  0  0  0  0  0  0  0  0
   23.8654   -4.0220   50.9952 C   0  0  0  0  0  0  0  0  0  0  0  0
   18.8862    2.9817   53.4174 N   0  0  0  0  0  0  0  0  0  0  0  0
   22.7790   -3.2926   50.2526 N   0  0  0  0  0  0  0  0  0  0  0  0
   20.3742    0.8991   54.7794 O   0  0  0  0  0  0  0  0  0  0  0  0
   21.9287    0.7529   53.0282 O   0  0  0  0  0  0  0  0  0  0  0  0
   19.6470   -1.0770   50.7159 O   0  0  0  0  0  0  0  0  0  0  0  0
   23.1041   -0.3966   50.7260 O   0  0  0  0  0  0  0  0  0  0  0  0
   19.9542   -2.9897   49.4350 O   0  0  0  0  0  0  0  0  0  0  0  0
   19.2100   -2.5371   48.3195 C   0  0  2  0  0  0  0  0  0  0  0  0
   18.0813   -3.4975   47.9462 C   0  0  1  0  0  0  0  0  0  0  0  0
   18.6425   -4.8711   47.4864 C   0  0  2  0  0  0  0  0  0  0  0  0
   19.6024   -4.6083   46.2883 C   0  0  1  0  0  0  0  0  0  0  0  0
   20.7438   -3.6574   46.7775 C   0  0  1  0  0  0  0  0  0  0  0  0
   21.7125   -3.2901   45.6757 C   0  0  0  0  0  0  0  0  0  0  0  0
   20.1520   -5.9398   45.8313 N   0  0  0  0  0  0  0  0  0  0  0  0
   20.1266   -2.3911   47.1898 O   0  0  0  0  0  0  0  0  0  0  0  0
   17.2402   -3.6496   49.1067 O   0  0  0  0  0  0  0  0  0  0  0  0
   17.5363   -5.6810   47.0492 O   0  0  0  0  0  0  0  0  0  0  0  0
   22.4089   -4.3936   45.2067 O   0  0  0  0  0  0  0  0  0  0  0  0
   21.2532    0.7284   55.8916 C   0  0  1  0  0  0  0  0  0  0  0  0
   22.4506   -0.2041   55.4872 C   0  0  1  0  0  0  0  0  0  0  0  0
   23.4093   -0.3658   56.7214 C   0  0  2  0  0  0  0  0  0  0  0  0
   23.9505    1.0131   57.1283 C   0  0  1  0  0  0  0  0  0  0  0  0
   22.7480    1.9438   57.5478 C   0  0  0  0  0  0  0  0  0  0  0  0
   21.7745    2.0955   56.3134 C   0  0  2  0  0  0  0  0  0  0  0  0
   24.8500    0.8475   58.2581 N   0  0  0  0  0  0  0  0  0  0  0  0
   20.6131    2.9500   56.6753 N   0  0  0  0  0  0  0  0  0  0  0  0
   21.9420   -1.5129   55.1000 O   0  0  0  0  0  0  0  0  0  0  0  0
   24.4904   -1.1832   56.3589 O   0  0  0  0  0  0  0  0  0  0  0  0
  1  2  1  0  0  0  0
  1 12  1  1  0  0  0
  1 13  1  0  0  0  0
  2  3  1  0  0  0  0
  2 10  1  1  0  0  0
  4  3  1  1  0  0  0
  4  5  1  0  0  0  0
  4 14  1  0  0  0  0
  5  6  1  0  0  0  0
  5 13  1  6  0  0  0
  6  7  1  0  0  0  0
  6 15  1  6  0  0  0
  7  8  1  0  0  0  0
  7 11  1  6  0  0  0
  8 14  1  0  0  0  0
  8 16  1  1  0  0  0
  9 11  1  0  0  0  0
 17 16  1  1  0  0  0
 17 18  1  0  0  0  0
 17 24  1  0  0  0  0
 18 19  1  0  0  0  0
 18 25  1  1  0  0  0
 19 20  1  0  0  0  0
 19 26  1  6  0  0  0
 20 21  1  0  0  0  0
 20 23  1  1  0  0  0
 21 22  1  6  0  0  0
 21 24  1  0  0  0  0
 22 27  1  0  0  0  0
 28 12  1  6  0  0  0
 28 29  1  0  0  0  0
 28 33  1  0  0  0  0
 29 30  1  0  0  0  0
 29 36  1  1  0  0  0
 30 31  1  0  0  0  0
 30 37  1  6  0  0  0
 31 32  1  0  0  0  0
 31 34  1  1  0  0  0
 32 33  1  0  0  0  0
 33 35  1  1  0  0  0
M  END
>  <CHROM.1>
-163.58061732,65.29014538,-164.67768574,-159.72672176,-64.47968656,-66.85354318
21.07496531,-1.30097391,51.59438352,1.30737251,-0.46941628,0.92593491

>  <Name>
2oe5_lig

>  <RI>
0

>  <Rbt.Current_Directory>
/home/itssahil/PROJECTS/Mol_Feturizer/New_Systems/rnas/2oe5

>  <Rbt.Executable>
rbdock ($Id: //depot/dev/client3/rdock/2013.1/src/exe/rbdock.cxx#4 $)

>  <Rbt.Library>
libRbt.so (2013.1, Build901 2013/11/27)

>  <Rbt.Parameter_File>
/export/apps/rDock/src/rDock_2013.1_src/data/scripts/dock_solv.prm

>  <Rbt.Receptor>
prm/pocket_docking_5.prm

>  <SCORE>
-18.0038

>  <SCORE.INTER>
-14.1231

>  <SCORE.INTER.CONST>
1

>  <SCORE.INTER.POLAR>
-1.46637

>  <SCORE.INTER.ROT>
6

>  <SCORE.INTER.SOLV>
14.4085

>  <SCORE.INTER.VDW>
-16.9304

>  <SCORE.INTER.norm>
-0.381706

>  <SCORE.INTRA>
-3.88068

>  <SCORE.INTRA.DIHEDRAL>
-11.6176

>  <SCORE.INTRA.DIHEDRAL.0>
16.2083

>  <SCORE.INTRA.POLAR>
0

>  <SCORE.INTRA.POLAR.0>
0

>  <SCORE.INTRA.REPUL>
0

>  <SCORE.INTRA.REPUL.0>
0

>  <SCORE.INTRA.SOLV>
0.00358413

>  <SCORE.INTRA.SOLV.lig_0>
-89.8095

>  <SCORE.INTRA.VDW>
1.92631

>  <SCORE.INTRA.VDW.0>
-3.19502

>  <SCORE.INTRA.norm>
-0.104883

>  <SCORE.RESTR>
0

>  <SCORE.RESTR.CAVITY>
0

>  <SCORE.RESTR.norm>
0

>  <SCORE.SYSTEM>
0

>  <SCORE.SYSTEM.CONST>
0

>  <SCORE.SYSTEM.DIHEDRAL>
0

>  <SCORE.SYSTEM.SOLV>
0

>  <SCORE.SYSTEM.norm>
0

>  <SCORE.heavy>
37

>  <SCORE.norm>
-0.486589

>  <RMSD>
2.110

$$$$
2oe5_lig
 OpenBabel11021811463D
libRbt.so/2013.1/901 2013/11/27
 37 40  0  0  0  0  0  0  0  0999 V2000
   20.3954    1.0966   54.1055 C   0  0  1  0  0  0  0  0  0  0  0  0
   19.8757    1.8586   52.8658 C   0  0  1  0  0  0  0  0  0  0  0  0
   18.8425    0.9547   52.0960 C   0  0  0  0  0  0  0  0  0  0  0  0
   19.6235   -0.3224   51.7132 C   0  0  1  0  0  0  0  0  0  0  0  0
   20.1555   -1.0918   53.0021 C   0  0  1  0  0  0  0  0  0  0  0  0
   20.9377   -2.3836   52.6395 C   0  0  1  0  0  0  0  0  0  0  0  0
   19.9609   -3.2932   51.8413 C   0  0  1  0  0  0  0  0  0  0  0  0
   19.4251   -2.4796   50.6027 C   0  0  2  0  0  0  0  0  0  0  0  0
   19.8759   -5.8142   51.1341 C   0  0  0  0  0  0  0  0  0  0  0  0
   19.2145    3.1157   53.2851 N   0  0  0  0  0  0  0  0  0  0  0  0
   20.6607   -4.5588   51.4018 N   0  0  0  0  0  0  0  0  0  0  0  0
   19.3432    0.8130   55.0423 O   0  0  0  0  0  0  0  0  0  0  0  0
   21.0278   -0.1819   53.7473 O   0  0  0  0  0  0  0  0  0  0  0  0
   18.7472   -1.2270   50.9890 O   0  0  0  0  0  0  0  0  0  0  0  0
   22.0728   -2.0057   51.8540 O   0  0  0  0  0  0  0  0  0  0  0  0
   18.4834   -3.2539   49.8864 O   0  0  0  0  0  0  0  0  0  0  0  0
   18.3307   -2.7463   48.5742 C   0  0  2  0  0  0  0  0  0  0  0  0
   17.5982   -3.7234   47.6553 C   0  0  1  0  0  0  0  0  0  0  0  0
   18.4175   -5.0281   47.4565 C   0  0  2  0  0  0  0  0  0  0  0  0
   19.8094   -4.6254   46.8854 C   0  0  1  0  0  0  0  0  0  0  0  0
   20.4984   -3.6666   47.9113 C   0  0  1  0  0  0  0  0  0  0  0  0
   21.8438   -3.1673   47.4339 C   0  0  0  0  0  0  0  0  0  0  0  0
   20.6139   -5.8890   46.6854 N   0  0  0  0  0  0  0  0  0  0  0  0
   19.6614   -2.4674   48.0363 O   0  0  0  0  0  0  0  0  0  0  0  0
   16.3192   -4.0075   48.2563 O   0  0  0  0  0  0  0  0  0  0  0  0
   17.7232   -5.8492   46.5000 O   0  0  0  0  0  0  0  0  0  0  0  0
   22.4342   -2.3090   48.3490 O   0  0  0  0  0  0  0  0  0  0  0  0
   19.5795    1.3171   56.3571 C   0  0  1  0  0  0  0  0  0  0  0  0
   18.2413    1.8714   56.9645 C   0  0  1  0  0  0  0  0  0  0  0  0
   18.5237    2.4073   58.4141 C   0  0  2  0  0  0  0  0  0  0  0  0
   19.0434    1.2565   59.2888 C   0  0  1  0  0  0  0  0  0  0  0  0
   20.3947    0.7103   58.6856 C   0  0  0  0  0  0  0  0  0  0  0  0
   20.1169    0.1851   57.2223 C   0  0  2  0  0  0  0  0  0  0  0  0
   19.2827    1.7606   60.6311 N   0  0  0  0  0  0  0  0  0  0  0  0
   21.3734   -0.3193   56.6087 N   0  0  0  0  0  0  0  0  0  0  0  0
   17.7443    2.9627   56.1377 O   0  0  0  0  0  0  0  0  0  0  0  0
   17.3269    2.8866   58.9675 O   0  0  0  0  0  0  0  0  0  0  0  0
  1  2  1  0  0  0  0
  1 12  1  1  0  0  0
  1 13  1  0  0  0  0
  2  3  1  0  0  0  0
  2 10  1  1  0  0  0
  4  3  1  1  0  0  0
  4  5  1  0  0  0  0
  4 14  1  0  0  0  0
  5  6  1  0  0  0  0
  5 13  1  6  0  0  0
  6  7  1  0  0  0  0
  6 15  1  6  0  0  0
  7  8  1  0  0  0  0
  7 11  1  6  0  0  0
  8 14  1  0  0  0  0
  8 16  1  1  0  0  0
  9 11  1  0  0  0  0
 17 16  1  1  0  0  0
 17 18  1  0  0  0  0
 17 24  1  0  0  0  0
 18 19  1  0  0  0  0
 18 25  1  1  0  0  0
 19 20  1  0  0  0  0
 19 26  1  6  0  0  0
 20 21  1  0  0  0  0
 20 23  1  1  0  0  0
 21 22  1  6  0  0  0
 21 24  1  0  0  0  0
 22 27  1  0  0  0  0
 28 12  1  6  0  0  0
 28 29  1  0  0  0  0
 28 33  1  0  0  0  0
 29 30  1  0  0  0  0
 29 36  1  6  0  0  0
 30 31  1  0  0  0  0
 30 37  1  1  0  0  0
 31 32  1  0  0  0  0
 31 34  1  1  0  0  0
 32 33  1  0  0  0  0
 33 35  1  6  0  0  0
M  END
>  <CHROM.1>
-123.51664639,154.74163574,-160.74838461,166.10331023,179.41498384,141.03156676
19.54282412,-1.29153624,52.37106944,-1.59969206,0.57438286,-2.11091000

>  <Name>
2oe5_lig

>  <RI>
0

>  <Rbt.Current_Directory>
/home/itssahil/PROJECTS/Mol_Feturizer/New_Systems/rnas/2oe5

>  <Rbt.Executable>
rbdock ($Id: //depot/dev/client3/rdock/2013.1/src/exe/rbdock.cxx#4 $)

>  <Rbt.Library>
libRbt.so (2013.1, Build901 2013/11/27)

>  <Rbt.Parameter_File>
/export/apps/rDock/src/rDock_2013.1_src/data/scripts/dock_solv.prm

>  <Rbt.Receptor>
prm/pocket_docking_4.prm

>  <SCORE>
-19.7418

>  <SCORE.INTER>
-20.0446

>  <SCORE.INTER.CONST>
1

>  <SCORE.INTER.POLAR>
-1.3377

>  <SCORE.INTER.ROT>
6

>  <SCORE.INTER.SOLV>
13.7605

>  <SCORE.INTER.VDW>
-21.0909

>  <SCORE.INTER.norm>
-0.541747

>  <SCORE.INTRA>
0.302818

>  <SCORE.INTRA.DIHEDRAL>
-0.803965

>  <SCORE.INTRA.DIHEDRAL.0>
16.2083

>  <SCORE.INTRA.POLAR>
0

>  <SCORE.INTRA.POLAR.0>
0

>  <SCORE.INTRA.REPUL>
0.0905264

>  <SCORE.INTRA.REPUL.0>
0

>  <SCORE.INTRA.SOLV>
0.674516

>  <SCORE.INTRA.SOLV.lig_0>
-89.8095

>  <SCORE.INTRA.VDW>
-0.0850891

>  <SCORE.INTRA.VDW.0>
-3.19502

>  <SCORE.INTRA.norm>
0.00818427

>  <SCORE.RESTR>
0

>  <SCORE.RESTR.CAVITY>
0

>  <SCORE.RESTR.norm>
0

>  <SCORE.SYSTEM>
0

>  <SCORE.SYSTEM.CONST>
0

>  <SCORE.SYSTEM.DIHEDRAL>
0

>  <SCORE.SYSTEM.SOLV>
0

>  <SCORE.SYSTEM.norm>
0

>  <SCORE.heavy>
37

>  <SCORE.norm>
-0.533563

>  <RMSD>
2.111

$$$$
2oe5_lig
 OpenBabel11021811463D
libRbt.so/2013.1/901 2013/11/27
 37 40  0  0  0  0  0  0  0  0999 V2000
   20.5358    0.8122   55.2948 C   0  0  1  0  0  0  0  0  0  0  0  0
   19.5031    1.5075   54.3797 C   0  0  1  0  0  0  0  0  0  0  0  0
   18.7333    0.4183   53.5440 C   0  0  0  0  0  0  0  0  0  0  0  0
   19.8233   -0.3236   52.7385 C   0  0  1  0  0  0  0  0  0  0  0  0
   20.8811   -1.0297   53.6971 C   0  0  1  0  0  0  0  0  0  0  0  0
   21.9823   -1.7880   52.9069 C   0  0  1  0  0  0  0  0  0  0  0  0
   21.2589   -2.8535   52.0351 C   0  0  1  0  0  0  0  0  0  0  0  0
   20.1928   -2.1191   51.1367 C   0  0  2  0  0  0  0  0  0  0  0  0
   23.5856   -4.0262   51.7627 C   0  0  0  0  0  0  0  0  0  0  0  0
   18.5366    2.2745   55.1988 N   0  0  0  0  0  0  0  0  0  0  0  0
   22.2588   -3.6082   51.1894 N   0  0  0  0  0  0  0  0  0  0  0  0
   19.9070   -0.0519   56.2555 O   0  0  0  0  0  0  0  0  0  0  0  0
   21.4982    0.0028   54.5323 O   0  0  0  0  0  0  0  0  0  0  0  0
   19.2054   -1.3569   51.9253 O   0  0  0  0  0  0  0  0  0  0  0  0
   22.6852   -0.8339   52.1046 O   0  0  0  0  0  0  0  0  0  0  0  0
   19.4696   -3.0650   50.3740 O   0  0  0  0  0  0  0  0  0  0  0  0
   19.0577   -2.4913   49.1475 C   0  0  2  0  0  0  0  0  0  0  0  0
   18.3370   -3.4962   48.2496 C   0  0  1  0  0  0  0  0  0  0  0  0
   19.2870   -4.6481   47.8212 C   0  0  2  0  0  0  0  0  0  0  0  0
   20.5121   -4.0043   47.1066 C   0  0  1  0  0  0  0  0  0  0  0  0
   21.2085   -3.0317   48.1143 C   0  0  1  0  0  0  0  0  0  0  0  0
   22.3887   -2.3063   47.5074 C   0  0  0  0  0  0  0  0  0  0  0  0
   21.4420   -5.1178   46.6829 N   0  0  0  0  0  0  0  0  0  0  0  0
   20.2445   -1.9811   48.4625 O   0  0  0  0  0  0  0  0  0  0  0  0
   17.2109   -4.0085   48.9894 O   0  0  0  0  0  0  0  0  0  0  0  0
   18.5771   -5.4908   46.8955 O   0  0  0  0  0  0  0  0  0  0  0  0
   23.0366   -1.5025   48.4331 O   0  0  0  0  0  0  0  0  0  0  0  0
   20.2651    0.2215   57.6104 C   0  0  1  0  0  0  0  0  0  0  0  0
   21.8191    0.4198   57.7219 C   0  0  1  0  0  0  0  0  0  0  0  0
   22.1865    0.7321   59.2172 C   0  0  2  0  0  0  0  0  0  0  0  0
   21.4744    2.0203   59.6569 C   0  0  1  0  0  0  0  0  0  0  0  0
   19.9136    1.8148   59.5579 C   0  0  0  0  0  0  0  0  0  0  0  0
   19.5433    1.4853   58.0583 C   0  0  2  0  0  0  0  0  0  0  0  0
   21.8372    2.3082   61.0348 N   0  0  0  0  0  0  0  0  0  0  0  0
   18.0795    1.2622   57.9262 N   0  0  0  0  0  0  0  0  0  0  0  0
   22.4987   -0.7993   57.3054 O   0  0  0  0  0  0  0  0  0  0  0  0
   23.5720    0.9283   59.3182 O   0  0  0  0  0  0  0  0  0  0  0  0
  1  2  1  0  0  0  0
  1 12  1  1  0  0  0
  1 13  1  0  0  0  0
  2  3  1  0  0  0  0
  2 10  1  1  0  0  0
  4  3  1  1  0  0  0
  4  5  1  0  0  0  0
  4 14  1  0  0  0  0
  5  6  1  0  0  0  0
  5 13  1  6  0  0  0
  6  7  1  0  0  0  0
  6 15  1  6  0  0  0
  7  8  1  0  0  0  0
  7 11  1  6  0  0  0
  8 14  1  0  0  0  0
  8 16  1  1  0  0  0
  9 11  1  0  0  0  0
 17 16  1  1  0  0  0
 17 18  1  0  0  0  0
 17 24  1  0  0  0  0
 18 19  1  0  0  0  0
 18 25  1  1  0  0  0
 19 20  1  0  0  0  0
 19 26  1  6  0  0  0
 20 21  1  0  0  0  0
 20 23  1  1  0  0  0
 21 22  1  6  0  0  0
 21 24  1  0  0  0  0
 22 27  1  0  0  0  0
 28 12  1  6  0  0  0
 28 29  1  0  0  0  0
 28 33  1  0  0  0  0
 29 30  1  0  0  0  0
 29 36  1  1  0  0  0
 30 31  1  0  0  0  0
 30 37  1  6  0  0  0
 31 32  1  0  0  0  0
 31 34  1  1  0  0  0
 32 33  1  0  0  0  0
 33 35  1  1  0  0  0
M  END
>  <CHROM.1>
-125.41592607,40.83657509,-149.74479552,176.83641251,-176.82313062,-45.58433121
20.62448018,-1.20966085,53.03561302,1.50389072,-0.19863881,1.11186891

>  <Name>
2oe5_lig

>  <RI>
0

>  <Rbt.Current_Directory>
/home/itssahil/PROJECTS/Mol_Feturizer/New_Systems/rnas/2oe5

>  <Rbt.Executable>
rbdock ($Id: //depot/dev/client3/rdock/2013.1/src/exe/rbdock.cxx#4 $)

>  <Rbt.Library>
libRbt.so (2013.1, Build901 2013/11/27)

>  <Rbt.Parameter_File>
/export/apps/rDock/src/rDock_2013.1_src/data/scripts/dock_solv.prm

>  <Rbt.Receptor>
prm/pocket_docking_3.prm

>  <SCORE>
-14.2881

>  <SCORE.INTER>
-14.9394

>  <SCORE.INTER.CONST>
1

>  <SCORE.INTER.POLAR>
-1.69515

>  <SCORE.INTER.ROT>
6

>  <SCORE.INTER.SOLV>
14.5688

>  <SCORE.INTER.VDW>
-16.7653

>  <SCORE.INTER.norm>
-0.403767

>  <SCORE.INTRA>
0.650965

>  <SCORE.INTRA.DIHEDRAL>
-4.18731

>  <SCORE.INTRA.DIHEDRAL.0>
16.2083

>  <SCORE.INTRA.POLAR>
0

>  <SCORE.INTRA.POLAR.0>
0

>  <SCORE.INTRA.REPUL>
0

>  <SCORE.INTRA.REPUL.0>
0

>  <SCORE.INTRA.SOLV>
1.89376

>  <SCORE.INTRA.SOLV.lig_0>
-89.8095

>  <SCORE.INTRA.VDW>
1.79774

>  <SCORE.INTRA.VDW.0>
-3.19502

>  <SCORE.INTRA.norm>
0.0175936

>  <SCORE.RESTR>
0.000352414

>  <SCORE.RESTR.CAVITY>
0.000352414

>  <SCORE.RESTR.norm>
9.52469e-06

>  <SCORE.SYSTEM>
0

>  <SCORE.SYSTEM.CONST>
0

>  <SCORE.SYSTEM.DIHEDRAL>
0

>  <SCORE.SYSTEM.SOLV>
0

>  <SCORE.SYSTEM.norm>
0

>  <SCORE.heavy>
37

>  <SCORE.norm>
-0.386164

>  <RMSD>
2.151

$$$$
2oe5_lig
 OpenBabel11021811463D
libRbt.so/2013.1/901 2013/11/27
 37 40  0  0  0  0  0  0  0  0999 V2000
   20.2476    1.8387   54.5237 C   0  0  1  0  0  0  0  0  0  0  0  0
   19.4428    2.5377   53.4052 C   0  0  1  0  0  0  0  0  0  0  0  0
   18.5777    1.4676   52.6413 C   0  0  0  0  0  0  0  0  0  0  0  0
   19.5932    0.4466   52.0811 C   0  0  1  0  0  0  0  0  0  0  0  0
   20.4167   -0.2601   53.2467 C   0  0  1  0  0  0  0  0  0  0  0  0
   21.4389   -1.2964   52.7051 C   0  0  1  0  0  0  0  0  0  0  0  0
   20.6269   -2.3565   51.9079 C   0  0  1  0  0  0  0  0  0  0  0  0
   19.7945   -1.6115   50.7966 C   0  0  2  0  0  0  0  0  0  0  0  0
   22.6546   -4.0017   52.1187 C   0  0  0  0  0  0  0  0  0  0  0  0
   18.5514    3.5657   53.9902 N   0  0  0  0  0  0  0  0  0  0  0  0
   21.5556   -3.3819   51.2991 N   0  0  0  0  0  0  0  0  0  0  0  0
   19.3902    1.2448   55.5121 O   0  0  0  0  0  0  0  0  0  0  0  0
   21.1222    0.7788   53.9998 O   0  0  0  0  0  0  0  0  0  0  0  0
   18.8847   -0.5896   51.3497 O   0  0  0  0  0  0  0  0  0  0  0  0
   22.3697   -0.6018   51.8688 O   0  0  0  0  0  0  0  0  0  0  0  0
   18.9931   -2.5379   50.0903 O   0  0  0  0  0  0  0  0  0  0  0  0
   19.6568   -2.9609   48.9141 C   0  0  2  0  0  0  0  0  0  0  0  0
   18.6932   -3.1670   47.7459 C   0  0  1  0  0  0  0  0  0  0  0  0
   17.6911   -4.3166   48.0415 C   0  0  2  0  0  0  0  0  0  0  0  0
   18.5232   -5.5984   48.3418 C   0  0  1  0  0  0  0  0  0  0  0  0
   19.4404   -5.3065   49.5745 C   0  0  1  0  0  0  0  0  0  0  0  0
   20.3372   -6.4725   49.9264 C   0  0  0  0  0  0  0  0  0  0  0  0
   17.5566   -6.7245   48.6280 N   0  0  0  0  0  0  0  0  0  0  0  0
   20.3499   -4.2142   49.2082 O   0  0  0  0  0  0  0  0  0  0  0  0
   17.9978   -1.9225   47.5331 O   0  0  0  0  0  0  0  0  0  0  0  0
   16.8920   -4.5256   46.8629 O   0  0  0  0  0  0  0  0  0  0  0  0
   20.9237   -6.3192   51.1735 O   0  0  0  0  0  0  0  0  0  0  0  0
   19.9298    1.2510   56.8340 C   0  0  1  0  0  0  0  0  0  0  0  0
   18.8161    1.6606   57.8630 C   0  0  1  0  0  0  0  0  0  0  0  0
   19.4296    1.6473   59.3094 C   0  0  2  0  0  0  0  0  0  0  0  0
   19.9309    0.2324   59.6355 C   0  0  1  0  0  0  0  0  0  0  0  0
   21.0593   -0.1719   58.6101 C   0  0  0  0  0  0  0  0  0  0  0  0
   20.4492   -0.1442   57.1536 C   0  0  2  0  0  0  0  0  0  0  0  0
   20.4784    0.2292   60.9821 N   0  0  0  0  0  0  0  0  0  0  0  0
   21.4894   -0.4990   56.1525 N   0  0  0  0  0  0  0  0  0  0  0  0
   18.3372    3.0017   57.5571 O   0  0  0  0  0  0  0  0  0  0  0  0
   18.4331    1.9947   60.2339 O   0  0  0  0  0  0  0  0  0  0  0  0
  1  2  1  0  0  0  0
  1 12  1  1  0  0  0
  1 13  1  0  0  0  0
  2  3  1  0  0  0  0
  2 10  1  1  0  0  0
  4  3  1  1  0  0  0
  4  5  1  0  0  0  0
  4 14  1  0  0  0  0
  5  6  1  0  0  0  0
  5 13  1  6  0  0  0
  6  7  1  0  0  0  0
  6 15  1  6  0  0  0
  7  8  1  0  0  0  0
  7 11  1  6  0  0  0
  8 14  1  0  0  0  0
  8 16  1  1  0  0  0
  9 11  1  0  0  0  0
 17 16  1  1  0  0  0
 17 18  1  0  0  0  0
 17 24  1  0  0  0  0
 18 19  1  0  0  0  0
 18 25  1  1  0  0  0
 19 20  1  0  0  0  0
 19 26  1  6  0  0  0
 20 21  1  0  0  0  0
 20 23  1  1  0  0  0
 21 22  1  6  0  0  0
 21 24  1  0  0  0  0
 22 27  1  0  0  0  0
 28 12  1  6  0  0  0
 28 29  1  0  0  0  0
 28 33  1  0  0  0  0
 29 30  1  0  0  0  0
 29 36  1  6  0  0  0
 30 31  1  0  0  0  0
 30 37  1  1  0  0  0
 31 32  1  0  0  0  0
 31 34  1  1  0  0  0
 32 33  1  0  0  0  0
 33 35  1  6  0  0  0
M  END
>  <CHROM.1>
-147.28575581,46.36497685,-95.14903421,-143.33290144,-166.87320027,136.93118894
19.72723935,-1.28472821,52.98923898,1.44211232,-1.11581553,0.88361038

>  <Name>
2oe5_lig

>  <RI>
0

>  <Rbt.Current_Directory>
/home/itssahil/PROJECTS/Mol_Feturizer/New_Systems/rnas/2oe5

>  <Rbt.Executable>
rbdock ($Id: //depot/dev/client3/rdock/2013.1/src/exe/rbdock.cxx#4 $)

>  <Rbt.Library>
libRbt.so (2013.1, Build901 2013/11/27)

>  <Rbt.Parameter_File>
/export/apps/rDock/src/rDock_2013.1_src/data/scripts/dock_solv.prm

>  <Rbt.Receptor>
prm/pocket_docking_8.prm

>  <SCORE>
-8.84409

>  <SCORE.INTER>
-12.3606

>  <SCORE.INTER.CONST>
1

>  <SCORE.INTER.POLAR>
-0.356884

>  <SCORE.INTER.ROT>
6

>  <SCORE.INTER.SOLV>
15.6655

>  <SCORE.INTER.VDW>
-19.8726

>  <SCORE.INTER.norm>
-0.334071

>  <SCORE.INTRA>
3.51653

>  <SCORE.INTRA.DIHEDRAL>
3.90058

>  <SCORE.INTRA.DIHEDRAL.0>
16.2083

>  <SCORE.INTRA.POLAR>
0

>  <SCORE.INTRA.POLAR.0>
0

>  <SCORE.INTRA.REPUL>
0

>  <SCORE.INTRA.REPUL.0>
0

>  <SCORE.INTRA.SOLV>
2.4282

>  <SCORE.INTRA.SOLV.lig_0>
-89.8095

>  <SCORE.INTRA.VDW>
0.352135

>  <SCORE.INTRA.VDW.0>
-3.19502

>  <SCORE.INTRA.norm>
0.0950413

>  <SCORE.RESTR>
0

>  <SCORE.RESTR.CAVITY>
0

>  <SCORE.RESTR.norm>
0

>  <SCORE.SYSTEM>
0

>  <SCORE.SYSTEM.CONST>
0

>  <SCORE.SYSTEM.DIHEDRAL>
0

>  <SCORE.SYSTEM.SOLV>
0

>  <SCORE.SYSTEM.norm>
0

>  <SCORE.heavy>
37

>  <SCORE.norm>
-0.239029

>  <RMSD>
2.206

$$$$
2oe5_lig
 OpenBabel11021811463D
libRbt.so/2013.1/901 2013/11/27
 37 40  0  0  0  0  0  0  0  0999 V2000
   20.2691    1.0373   54.1153 C   0  0  1  0  0  0  0  0  0  0  0  0
   19.7583    1.7902   52.8665 C   0  0  1  0  0  0  0  0  0  0  0  0
   18.7458    0.8730   52.0850 C   0  0  0  0  0  0  0  0  0  0  0  0
   19.5461   -0.3964   51.7165 C   0  0  1  0  0  0  0  0  0  0  0  0
   20.0687   -1.1565   53.0147 C   0  0  1  0  0  0  0  0  0  0  0  0
   20.8701   -2.4405   52.6665 C   0  0  1  0  0  0  0  0  0  0  0  0
   19.9146   -3.3629   51.8574 C   0  0  1  0  0  0  0  0  0  0  0  0
   19.3870   -2.5586   50.6093 C   0  0  2  0  0  0  0  0  0  0  0  0
   21.9800   -4.5451   50.7623 C   0  0  0  0  0  0  0  0  0  0  0  0
   19.0774    3.0411   53.2731 N   0  0  0  0  0  0  0  0  0  0  0  0
   20.6344   -4.6218   51.4311 N   0  0  0  0  0  0  0  0  0  0  0  0
   19.2073    0.7445   55.0382 O   0  0  0  0  0  0  0  0  0  0  0  0
   20.9205   -0.2350   53.7694 O   0  0  0  0  0  0  0  0  0  0  0  0
   18.6900   -1.3125   50.9827 O   0  0  0  0  0  0  0  0  0  0  0  0
   22.0118   -2.0521   51.8958 O   0  0  0  0  0  0  0  0  0  0  0  0
   18.4640   -3.3451   49.8822 O   0  0  0  0  0  0  0  0  0  0  0  0
   18.3827   -2.8911   48.5442 C   0  0  2  0  0  0  0  0  0  0  0  0
   17.5820   -3.8426   47.6559 C   0  0  1  0  0  0  0  0  0  0  0  0
   18.2831   -5.2238   47.5381 C   0  0  2  0  0  0  0  0  0  0  0  0
   19.7163   -4.9762   46.9811 C   0  0  1  0  0  0  0  0  0  0  0  0
   20.4700   -4.0338   47.9762 C   0  0  1  0  0  0  0  0  0  0  0  0
   21.8640   -3.6813   47.5071 C   0  0  0  0  0  0  0  0  0  0  0  0
   20.4065   -6.3153   46.8599 N   0  0  0  0  0  0  0  0  0  0  0  0
   19.7431   -2.7595   48.0248 O   0  0  0  0  0  0  0  0  0  0  0  0
   16.2714   -3.9808   48.2398 O   0  0  0  0  0  0  0  0  0  0  0  0
   17.5353   -6.0254   46.6057 O   0  0  0  0  0  0  0  0  0  0  0  0
   22.6818   -4.7979   47.4227 O   0  0  0  0  0  0  0  0  0  0  0  0
   19.5605    0.9198   56.4105 C   0  0  1  0  0  0  0  0  0  0  0  0
   20.7728   -0.0109   56.7726 C   0  0  1  0  0  0  0  0  0  0  0  0
   21.1508    0.2093   58.2815 C   0  0  2  0  0  0  0  0  0  0  0  0
   21.5516    1.6767   58.4958 C   0  0  1  0  0  0  0  0  0  0  0  0
   20.3286    2.6093   58.1455 C   0  0  0  0  0  0  0  0  0  0  0  0
   19.9365    2.3784   56.6331 C   0  0  2  0  0  0  0  0  0  0  0  0
   21.9169    1.8627   59.8905 N   0  0  0  0  0  0  0  0  0  0  0  0
   18.7704    3.2252   56.2682 N   0  0  0  0  0  0  0  0  0  0  0  0
   20.3974   -1.4036   56.5702 O   0  0  0  0  0  0  0  0  0  0  0  0
   22.2454   -0.6068   58.6043 O   0  0  0  0  0  0  0  0  0  0  0  0
  1  2  1  0  0  0  0
  1 12  1  1  0  0  0
  1 13  1  0  0  0  0
  2  3  1  0  0  0  0
  2 10  1  1  0  0  0
  4  3  1  1  0  0  0
  4  5  1  0  0  0  0
  4 14  1  0  0  0  0
  5  6  1  0  0  0  0
  5 13  1  6  0  0  0
  6  7  1  0  0  0  0
  6 15  1  6  0  0  0
  7  8  1  0  0  0  0
  7 11  1  6  0  0  0
  8 14  1  0  0  0  0
  8 16  1  1  0  0  0
  9 11  1  0  0  0  0
 17 16  1  1  0  0  0
 17 18  1  0  0  0  0
 17 24  1  0  0  0  0
 18 19  1  0  0  0  0
 18 25  1  1  0  0  0
 19 20  1  0  0  0  0
 19 26  1  6  0  0  0
 20 21  1  0  0  0  0
 20 23  1  1  0  0  0
 21 22  1  6  0  0  0
 21 24  1  0  0  0  0
 22 27  1  0  0  0  0
 28 12  1  6  0  0  0
 28 29  1  0  0  0  0
 28 33  1  0  0  0  0
 29 30  1  0  0  0  0
 29 36  1  1  0  0  0
 30 31  1  0  0  0  0
 30 37  1  6  0  0  0
 31 32  1  0  0  0  0
 31 34  1  1  0  0  0
 32 33  1  0  0  0  0
 33 35  1  1  0  0  0
M  END
>  <CHROM.1>
-139.73190309,-49.36366216,-157.31908068,170.44254451,-63.24144893,-59.10082540
19.97847644,-1.56489044,52.26774278,1.43040469,-0.71851634,0.91446275

>  <Name>
2oe5_lig

>  <RI>
0

>  <Rbt.Current_Directory>
/home/itssahil/PROJECTS/Mol_Feturizer/New_Systems/rnas/2oe5

>  <Rbt.Executable>
rbdock ($Id: //depot/dev/client3/rdock/2013.1/src/exe/rbdock.cxx#4 $)

>  <Rbt.Library>
libRbt.so (2013.1, Build901 2013/11/27)

>  <Rbt.Parameter_File>
/export/apps/rDock/src/rDock_2013.1_src/data/scripts/dock_solv.prm

>  <Rbt.Receptor>
prm/pocket_docking_4.prm

>  <SCORE>
-17.9052

>  <SCORE.INTER>
-18.6539

>  <SCORE.INTER.CONST>
1

>  <SCORE.INTER.POLAR>
-1.91797

>  <SCORE.INTER.ROT>
6

>  <SCORE.INTER.SOLV>
14.3624

>  <SCORE.INTER.VDW>
-18.4301

>  <SCORE.INTER.norm>
-0.504159

>  <SCORE.INTRA>
0.734483

>  <SCORE.INTRA.DIHEDRAL>
-7.92459

>  <SCORE.INTRA.DIHEDRAL.0>
16.2083

>  <SCORE.INTRA.POLAR>
0

>  <SCORE.INTRA.POLAR.0>
0

>  <SCORE.INTRA.REPUL>
0

>  <SCORE.INTRA.REPUL.0>
0

>  <SCORE.INTRA.SOLV>
2.21153

>  <SCORE.INTRA.SOLV.lig_0>
-89.8095

>  <SCORE.INTRA.VDW>
3.59101

>  <SCORE.INTRA.VDW.0>
-3.19502

>  <SCORE.INTRA.norm>
0.0198509

>  <SCORE.RESTR>
0.0141834

>  <SCORE.RESTR.CAVITY>
0.0141834

>  <SCORE.RESTR.norm>
0.000383336

>  <SCORE.SYSTEM>
0

>  <SCORE.SYSTEM.CONST>
0

>  <SCORE.SYSTEM.DIHEDRAL>
0

>  <SCORE.SYSTEM.SOLV>
0

>  <SCORE.SYSTEM.norm>
0

>  <SCORE.heavy>
37

>  <SCORE.norm>
-0.483925

>  <RMSD>
2.207

$$$$
2oe5_lig
 OpenBabel11021811463D
libRbt.so/2013.1/901 2013/11/27
 37 40  0  0  0  0  0  0  0  0999 V2000
   20.7478    2.1763   54.2955 C   0  0  1  0  0  0  0  0  0  0  0  0
   19.2566    1.8637   54.0389 C   0  0  1  0  0  0  0  0  0  0  0  0
   19.1249    0.4117   53.4460 C   0  0  0  0  0  0  0  0  0  0  0  0
   19.9528    0.4271   52.1414 C   0  0  1  0  0  0  0  0  0  0  0  0
   21.4852    0.7556   52.4241 C   0  0  1  0  0  0  0  0  0  0  0  0
   22.3372    0.7689   51.1256 C   0  0  1  0  0  0  0  0  0  0  0  0
   22.2041   -0.6418   50.4846 C   0  0  1  0  0  0  0  0  0  0  0  0
   20.6735   -0.9443   50.2636 C   0  0  2  0  0  0  0  0  0  0  0  0
   23.1883   -2.0157   48.4830 C   0  0  0  0  0  0  0  0  0  0  0  0
   18.4962    1.9492   55.3069 N   0  0  0  0  0  0  0  0  0  0  0  0
   22.9663   -0.7013   49.1807 N   0  0  0  0  0  0  0  0  0  0  0  0
   21.3208    1.2955   55.2758 O   0  0  0  0  0  0  0  0  0  0  0  0
   21.5573    2.0666   53.0726 O   0  0  0  0  0  0  0  0  0  0  0  0
   19.8901   -0.8811   51.5126 O   0  0  0  0  0  0  0  0  0  0  0  0
   21.8196    1.7920   50.2692 O   0  0  0  0  0  0  0  0  0  0  0  0
   20.5090   -2.2471   49.7393 O   0  0  0  0  0  0  0  0  0  0  0  0
   19.1383   -2.5094   49.5039 C   0  0  2  0  0  0  0  0  0  0  0  0
   18.7503   -3.9419   49.8688 C   0  0  1  0  0  0  0  0  0  0  0  0
   19.4862   -4.9697   48.9660 C   0  0  2  0  0  0  0  0  0  0  0  0
   19.1347   -4.6311   47.4870 C   0  0  1  0  0  0  0  0  0  0  0  0
   19.6088   -3.1694   47.1956 C   0  0  1  0  0  0  0  0  0  0  0  0
   19.2700   -2.7122   45.7943 C   0  0  0  0  0  0  0  0  0  0  0  0
   19.8441   -5.6281   46.5999 N   0  0  0  0  0  0  0  0  0  0  0  0
   18.8660   -2.2708   48.0873 O   0  0  0  0  0  0  0  0  0  0  0  0
   19.0886   -4.1425   51.2555 O   0  0  0  0  0  0  0  0  0  0  0  0
   18.9927   -6.2821   49.2905 O   0  0  0  0  0  0  0  0  0  0  0  0
   19.9419   -3.4487   44.8305 O   0  0  0  0  0  0  0  0  0  0  0  0
   20.8051    1.4744   56.5951 C   0  0  1  0  0  0  0  0  0  0  0  0
   20.9199    0.1304   57.3997 C   0  0  1  0  0  0  0  0  0  0  0  0
   20.3594    0.3558   58.8501 C   0  0  2  0  0  0  0  0  0  0  0  0
   21.1873    1.4432   59.5513 C   0  0  1  0  0  0  0  0  0  0  0  0
   21.0594    2.7959   58.7500 C   0  0  0  0  0  0  0  0  0  0  0  0
   21.6079    2.5680   57.2866 C   0  0  2  0  0  0  0  0  0  0  0  0
   20.6709    1.6287   60.8975 N   0  0  0  0  0  0  0  0  0  0  0  0
   21.4843    3.8168   56.4898 N   0  0  0  0  0  0  0  0  0  0  0  0
   20.1368   -0.9041   56.7379 O   0  0  0  0  0  0  0  0  0  0  0  0
   20.4772   -0.8376   59.5783 O   0  0  0  0  0  0  0  0  0  0  0  0
  1  2  1  0  0  0  0
  1 12  1  1  0  0  0
  1 13  1  0  0  0  0
  2  3  1  0  0  0  0
  2 10  1  1  0  0  0
  4  3  1  1  0  0  0
  4  5  1  0  0  0  0
  4 14  1  0  0  0  0
  5  6  1  0  0  0  0
  5 13  1  6  0  0  0
  6  7  1  0  0  0  0
  6 15  1  6  0  0  0
  7  8  1  0  0  0  0
  7 11  1  6  0  0  0
  8 14  1  0  0  0  0
  8 16  1  1  0  0  0
  9 11  1  0  0  0  0
 17 16  1  6  0  0  0
 17 18  1  0  0  0  0
 17 24  1  0  0  0  0
 18 19  1  0  0  0  0
 18 25  1  1  0  0  0
 19 20  1  0  0  0  0
 19 26  1  1  0  0  0
 20 21  1  0  0  0  0
 20 23  1  6  0  0  0
 21 22  1  6  0  0  0
 21 24  1  0  0  0  0
 22 27  1  0  0  0  0
 28 12  1  6  0  0  0
 28 29  1  0  0  0  0
 28 33  1  0  0  0  0
 29 30  1  0  0  0  0
 29 36  1  6  0  0  0
 30 31  1  0  0  0  0
 30 37  1  1  0  0  0
 31 32  1  0  0  0  0
 31 34  1  1  0  0  0
 32 33  1  0  0  0  0
 33 35  1  6  0  0  0
M  END
>  <CHROM.1>
-67.56232999,169.61483349,-178.36543567,-140.87346130,-64.71120272,152.92172810
20.43859168,-0.71946132,52.44158940,-1.38424225,-1.13480949,-1.86905133

>  <Name>
2oe5_lig

>  <RI>
0

>  <Rbt.Current_Directory>
/home/itssahil/PROJECTS/Mol_Feturizer/New_Systems/rnas/2oe5

>  <Rbt.Executable>
rbdock ($Id: //depot/dev/client3/rdock/2013.1/src/exe/rbdock.cxx#4 $)

>  <Rbt.Library>
libRbt.so (2013.1, Build901 2013/11/27)

>  <Rbt.Parameter_File>
/export/apps/rDock/src/rDock_2013.1_src/data/scripts/dock_solv.prm

>  <Rbt.Receptor>
prm/pocket_docking_7.prm

>  <SCORE>
-11.418

>  <SCORE.INTER>
-10.2715

>  <SCORE.INTER.CONST>
1

>  <SCORE.INTER.POLAR>
-0.247797

>  <SCORE.INTER.ROT>
6

>  <SCORE.INTER.SOLV>
12.5501

>  <SCORE.INTER.VDW>
-17.8051

>  <SCORE.INTER.norm>
-0.277608

>  <SCORE.INTRA>
-1.14653

>  <SCORE.INTRA.DIHEDRAL>
-7.35399

>  <SCORE.INTRA.DIHEDRAL.0>
16.2083

>  <SCORE.INTRA.POLAR>
0

>  <SCORE.INTRA.POLAR.0>
0

>  <SCORE.INTRA.REPUL>
0

>  <SCORE.INTRA.REPUL.0>
0

>  <SCORE.INTRA.SOLV>
2.32338

>  <SCORE.INTRA.SOLV.lig_0>
-89.8095

>  <SCORE.INTRA.VDW>
1.36877

>  <SCORE.INTRA.VDW.0>
-3.19502

>  <SCORE.INTRA.norm>
-0.0309873

>  <SCORE.RESTR>
0

>  <SCORE.RESTR.CAVITY>
0

>  <SCORE.RESTR.norm>
0

>  <SCORE.SYSTEM>
0

>  <SCORE.SYSTEM.CONST>
0

>  <SCORE.SYSTEM.DIHEDRAL>
0

>  <SCORE.SYSTEM.SOLV>
0

>  <SCORE.SYSTEM.norm>
0

>  <SCORE.heavy>
37

>  <SCORE.norm>
-0.308595

>  <RMSD>
2.230

$$$$
2oe5_lig
 OpenBabel11021811463D
libRbt.so/2013.1/901 2013/11/27
 37 40  0  0  0  0  0  0  0  0999 V2000
   20.6812    2.2672   54.2630 C   0  0  1  0  0  0  0  0  0  0  0  0
   19.5580    2.8036   53.3476 C   0  0  1  0  0  0  0  0  0  0  0  0
   18.6922    1.5970   52.8263 C   0  0  0  0  0  0  0  0  0  0  0  0
   19.6805    0.6839   52.0667 C   0  0  1  0  0  0  0  0  0  0  0  0
   20.8334    0.1446   53.0240 C   0  0  1  0  0  0  0  0  0  0  0  0
   21.8344   -0.7820   52.2812 C   0  0  1  0  0  0  0  0  0  0  0  0
   21.0109   -1.9737   51.7151 C   0  0  1  0  0  0  0  0  0  0  0  0
   19.8565   -1.3948   50.8120 C   0  0  2  0  0  0  0  0  0  0  0  0
   22.9740   -3.7057   51.6205 C   0  0  0  0  0  0  0  0  0  0  0  0
   18.6941    3.7404   54.1023 N   0  0  0  0  0  0  0  0  0  0  0  0
   21.9050   -2.9044   50.9285 N   0  0  0  0  0  0  0  0  0  0  0  0
   20.1571    1.6213   55.4348 O   0  0  0  0  0  0  0  0  0  0  0  0
   21.5469    1.2998   53.5722 O   0  0  0  0  0  0  0  0  0  0  0  0
   18.9686   -0.4680   51.5402 O   0  0  0  0  0  0  0  0  0  0  0  0
   22.4503   -0.0195   51.2384 O   0  0  0  0  0  0  0  0  0  0  0  0
   19.0462   -2.4482   50.3292 O   0  0  0  0  0  0  0  0  0  0  0  0
   19.6172   -3.0079   49.1615 C   0  0  2  0  0  0  0  0  0  0  0  0
   18.5713   -3.2991   48.0859 C   0  0  1  0  0  0  0  0  0  0  0  0
   17.5629   -4.3805   48.5621 C   0  0  2  0  0  0  0  0  0  0  0  0
   18.3808   -5.6519   48.9368 C   0  0  1  0  0  0  0  0  0  0  0  0
   19.3871   -5.2675   50.0708 C   0  0  1  0  0  0  0  0  0  0  0  0
   20.2759   -6.4205   50.4806 C   0  0  0  0  0  0  0  0  0  0  0  0
   17.4078   -6.7119   49.3990 N   0  0  0  0  0  0  0  0  0  0  0  0
   20.2968   -4.2471   49.5362 O   0  0  0  0  0  0  0  0  0  0  0  0
   17.8947   -2.0605   47.7929 O   0  0  0  0  0  0  0  0  0  0  0  0
   16.6803   -4.6808   47.4658 O   0  0  0  0  0  0  0  0  0  0  0  0
   21.0180   -6.1271   51.6146 O   0  0  0  0  0  0  0  0  0  0  0  0
   21.1473    1.2739   56.4031 C   0  0  1  0  0  0  0  0  0  0  0  0
   21.5121    2.5328   57.2686 C   0  0  1  0  0  0  0  0  0  0  0  0
   22.5917    2.1229   58.3338 C   0  0  2  0  0  0  0  0  0  0  0  0
   22.0170    1.0267   59.2437 C   0  0  1  0  0  0  0  0  0  0  0  0
   21.6645   -0.2420   58.3752 C   0  0  0  0  0  0  0  0  0  0  0  0
   20.5906    0.1710   57.2933 C   0  0  2  0  0  0  0  0  0  0  0  0
   23.0180    0.6701   60.2356 N   0  0  0  0  0  0  0  0  0  0  0  0
   20.2467   -0.9949   56.4375 N   0  0  0  0  0  0  0  0  0  0  0  0
   22.0569    3.5753   56.4096 O   0  0  0  0  0  0  0  0  0  0  0  0
   22.9070    3.2404   59.1213 O   0  0  0  0  0  0  0  0  0  0  0  0
  1  2  1  0  0  0  0
  1 12  1  1  0  0  0
  1 13  1  0  0  0  0
  2  3  1  0  0  0  0
  2 10  1  1  0  0  0
  4  3  1  1  0  0  0
  4  5  1  0  0  0  0
  4 14  1  0  0  0  0
  5  6  1  0  0  0  0
  5 13  1  6  0  0  0
  6  7  1  0  0  0  0
  6 15  1  6  0  0  0
  7  8  1  0  0  0  0
  7 11  1  6  0  0  0
  8 14  1  0  0  0  0
  8 16  1  1  0  0  0
  9 11  1  0  0  0  0
 17 16  1  1  0  0  0
 17 18  1  0  0  0  0
 17 24  1  0  0  0  0
 18 19  1  0  0  0  0
 18 25  1  1  0  0  0
 19 20  1  0  0  0  0
 19 26  1  6  0  0  0
 20 21  1  0  0  0  0
 20 23  1  1  0  0  0
 21 22  1  6  0  0  0
 21 24  1  0  0  0  0
 22 27  1  0  0  0  0
 28 12  1  6  0  0  0
 28 29  1  0  0  0  0
 28 33  1  0  0  0  0
 29 30  1  0  0  0  0
 29 36  1  6  0  0  0
 30 31  1  0  0  0  0
 30 37  1  1  0  0  0
 31 32  1  0  0  0  0
 31 34  1  1  0  0  0
 32 33  1  0  0  0  0
 33 35  1  6  0  0  0
M  END
>  <CHROM.1>
-171.69215807,67.20506745,-84.40803275,-137.81553929,-170.94461928,80.96007130
20.34832401,-1.03798395,52.91905150,1.02209409,-1.05814458,0.41982813

>  <Name>
2oe5_lig

>  <RI>
0

>  <Rbt.Current_Directory>
/home/itssahil/PROJECTS/Mol_Feturizer/New_Systems/rnas/2oe5

>  <Rbt.Executable>
rbdock ($Id: //depot/dev/client3/rdock/2013.1/src/exe/rbdock.cxx#4 $)

>  <Rbt.Library>
libRbt.so (2013.1, Build901 2013/11/27)

>  <Rbt.Parameter_File>
/export/apps/rDock/src/rDock_2013.1_src/data/scripts/dock_solv.prm

>  <Rbt.Receptor>
prm/pocket_docking_4.prm

>  <SCORE>
-12.1111

>  <SCORE.INTER>
-9.65994

>  <SCORE.INTER.CONST>
1

>  <SCORE.INTER.POLAR>
-0.634755

>  <SCORE.INTER.ROT>
6

>  <SCORE.INTER.SOLV>
20.2418

>  <SCORE.INTER.VDW>
-18.6714

>  <SCORE.INTER.norm>
-0.261079

>  <SCORE.INTRA>
-2.50948

>  <SCORE.INTRA.DIHEDRAL>
-5.22055

>  <SCORE.INTRA.DIHEDRAL.0>
16.2083

>  <SCORE.INTRA.POLAR>
0

>  <SCORE.INTRA.POLAR.0>
0

>  <SCORE.INTRA.REPUL>
0.0025364

>  <SCORE.INTRA.REPUL.0>
0

>  <SCORE.INTRA.SOLV>
-0.272668

>  <SCORE.INTRA.SOLV.lig_0>
-89.8095

>  <SCORE.INTRA.VDW>
0.224447

>  <SCORE.INTRA.VDW.0>
-3.19502

>  <SCORE.INTRA.norm>
-0.0678238

>  <SCORE.RESTR>
0.0582836

>  <SCORE.RESTR.CAVITY>
0.0582836

>  <SCORE.RESTR.norm>
0.00157523

>  <SCORE.SYSTEM>
0

>  <SCORE.SYSTEM.CONST>
0

>  <SCORE.SYSTEM.DIHEDRAL>
0

>  <SCORE.SYSTEM.SOLV>
0

>  <SCORE.SYSTEM.norm>
0

>  <SCORE.heavy>
37

>  <SCORE.norm>
-0.327328

>  <RMSD>
2.286

$$$$
2oe5_lig
 OpenBabel11021811463D
libRbt.so/2013.1/901 2013/11/27
 37 40  0  0  0  0  0  0  0  0999 V2000
   20.2797    1.1951   54.2201 C   0  0  1  0  0  0  0  0  0  0  0  0
   19.7602    1.9452   52.9732 C   0  0  1  0  0  0  0  0  0  0  0  0
   18.7549    1.0200   52.1919 C   0  0  0  0  0  0  0  0  0  0  0  0
   19.5660   -0.2416   51.8203 C   0  0  1  0  0  0  0  0  0  0  0  0
   20.0974   -0.9988   53.1167 C   0  0  1  0  0  0  0  0  0  0  0  0
   20.9098   -2.2750   52.7653 C   0  0  1  0  0  0  0  0  0  0  0  0
   19.9613   -3.2049   51.9564 C   0  0  1  0  0  0  0  0  0  0  0  0
   19.4246   -2.4035   50.7102 C   0  0  2  0  0  0  0  0  0  0  0  0
   19.9375   -5.7323   51.2675 C   0  0  0  0  0  0  0  0  0  0  0  0
   19.0688    3.1893   53.3827 N   0  0  0  0  0  0  0  0  0  0  0  0
   20.6918   -4.4566   51.5272 N   0  0  0  0  0  0  0  0  0  0  0  0
   19.2221    0.8914   55.1442 O   0  0  0  0  0  0  0  0  0  0  0  0
   20.9420   -0.0708   53.8714 O   0  0  0  0  0  0  0  0  0  0  0  0
   18.7170   -1.1644   51.0866 O   0  0  0  0  0  0  0  0  0  0  0  0
   22.0467   -1.8753   51.9934 O   0  0  0  0  0  0  0  0  0  0  0  0
   18.5076   -3.1973   49.9835 O   0  0  0  0  0  0  0  0  0  0  0  0
   18.3930   -2.7198   48.6561 C   0  0  2  0  0  0  0  0  0  0  0  0
   17.7040   -3.7257   47.7347 C   0  0  1  0  0  0  0  0  0  0  0  0
   18.5456   -5.0236   47.5918 C   0  0  2  0  0  0  0  0  0  0  0  0
   19.9509   -4.6150   47.0590 C   0  0  1  0  0  0  0  0  0  0  0  0
   20.5930   -3.6257   48.0863 C   0  0  1  0  0  0  0  0  0  0  0  0
   21.9475   -3.1191   47.6436 C   0  0  0  0  0  0  0  0  0  0  0  0
   20.7772   -5.8720   46.9136 N   0  0  0  0  0  0  0  0  0  0  0  0
   19.7375   -2.4350   48.1572 O   0  0  0  0  0  0  0  0  0  0  0  0
   16.4091   -4.0136   48.2985 O   0  0  0  0  0  0  0  0  0  0  0  0
   17.8942   -5.8738   46.6306 O   0  0  0  0  0  0  0  0  0  0  0  0
   21.8659   -2.3620   46.4847 O   0  0  0  0  0  0  0  0  0  0  0  0
   19.5952    1.0049   56.5177 C   0  0  1  0  0  0  0  0  0  0  0  0
   20.7824    0.0254   56.8308 C   0  0  1  0  0  0  0  0  0  0  0  0
   21.1833    0.1780   58.3423 C   0  0  2  0  0  0  0  0  0  0  0  0
   21.6309    1.6237   58.6057 C   0  0  1  0  0  0  0  0  0  0  0  0
   20.4331    2.6049   58.3045 C   0  0  0  0  0  0  0  0  0  0  0  0
   20.0178    2.4423   56.7894 C   0  0  2  0  0  0  0  0  0  0  0  0
   22.0166    1.7467   60.0018 N   0  0  0  0  0  0  0  0  0  0  0  0
   18.8742    3.3367   56.4699 N   0  0  0  0  0  0  0  0  0  0  0  0
   20.3627   -1.3469   56.5818 O   0  0  0  0  0  0  0  0  0  0  0  0
   22.2560   -0.6820   58.6217 O   0  0  0  0  0  0  0  0  0  0  0  0
  1  2  1  0  0  0  0
  1 12  1  1  0  0  0
  1 13  1  0  0  0  0
  2  3  1  0  0  0  0
  2 10  1  1  0  0  0
  4  3  1  1  0  0  0
  4  5  1  0  0  0  0
  4 14  1  0  0  0  0
  5  6  1  0  0  0  0
  5 13  1  6  0  0  0
  6  7  1  0  0  0  0
  6 15  1  6  0  0  0
  7  8  1  0  0  0  0
  7 11  1  6  0  0  0
  8 14  1  0  0  0  0
  8 16  1  1  0  0  0
  9 11  1  0  0  0  0
 17 16  1  1  0  0  0
 17 18  1  0  0  0  0
 17 24  1  0  0  0  0
 18 19  1  0  0  0  0
 18 25  1  1  0  0  0
 19 20  1  0  0  0  0
 19 26  1  6  0  0  0
 20 21  1  0  0  0  0
 20 23  1  1  0  0  0
 21 22  1  6  0  0  0
 21 24  1  0  0  0  0
 22 27  1  0  0  0  0
 28 12  1  6  0  0  0
 28 29  1  0  0  0  0
 28 33  1  0  0  0  0
 29 30  1  0  0  0  0
 29 36  1  1  0  0  0
 30 31  1  0  0  0  0
 30 37  1  6  0  0  0
 31 32  1  0  0  0  0
 31 34  1  1  0  0  0
 32 33  1  0  0  0  0
 33 35  1  1  0  0  0
M  END
>  <CHROM.1>
-142.63346939,153.99998664,-158.89521248,165.54352399,64.13605285,-59.50001145
19.96468005,-1.38767619,52.34344149,1.34875422,-1.02963775,0.84659858

>  <Name>
2oe5_lig

>  <RI>
0

>  <Rbt.Current_Directory>
/home/itssahil/PROJECTS/Mol_Feturizer/New_Systems/rnas/2oe5

>  <Rbt.Executable>
rbdock ($Id: //depot/dev/client3/rdock/2013.1/src/exe/rbdock.cxx#4 $)

>  <Rbt.Library>
libRbt.so (2013.1, Build901 2013/11/27)

>  <Rbt.Parameter_File>
/export/apps/rDock/src/rDock_2013.1_src/data/scripts/dock_solv.prm

>  <Rbt.Receptor>
prm/pocket_docking_4.prm

>  <SCORE>
-23.5637

>  <SCORE.INTER>
-21.6885

>  <SCORE.INTER.CONST>
1

>  <SCORE.INTER.POLAR>
-1.93137

>  <SCORE.INTER.ROT>
6

>  <SCORE.INTER.SOLV>
14.7421

>  <SCORE.INTER.VDW>
-20.5352

>  <SCORE.INTER.norm>
-0.586177

>  <SCORE.INTRA>
-1.87515

>  <SCORE.INTRA.DIHEDRAL>
-7.73637

>  <SCORE.INTRA.DIHEDRAL.0>
16.2083

>  <SCORE.INTRA.POLAR>
0

>  <SCORE.INTRA.POLAR.0>
0

>  <SCORE.INTRA.REPUL>
0

>  <SCORE.INTRA.REPUL.0>
0

>  <SCORE.INTRA.SOLV>
1.33551

>  <SCORE.INTRA.SOLV.lig_0>
-89.8095

>  <SCORE.INTRA.VDW>
1.32528

>  <SCORE.INTRA.VDW.0>
-3.19502

>  <SCORE.INTRA.norm>
-0.0506798

>  <SCORE.RESTR>
0

>  <SCORE.RESTR.CAVITY>
0

>  <SCORE.RESTR.norm>
0

>  <SCORE.SYSTEM>
0

>  <SCORE.SYSTEM.CONST>
0

>  <SCORE.SYSTEM.DIHEDRAL>
0

>  <SCORE.SYSTEM.SOLV>
0

>  <SCORE.SYSTEM.norm>
0

>  <SCORE.heavy>
37

>  <SCORE.norm>
-0.636856

>  <RMSD>
2.304

$$$$
2oe5_lig
 OpenBabel11021811463D
libRbt.so/2013.1/901 2013/11/27
 37 40  0  0  0  0  0  0  0  0999 V2000
   20.4634    2.6057   54.1153 C   0  0  1  0  0  0  0  0  0  0  0  0
   19.0008    2.3090   53.7151 C   0  0  1  0  0  0  0  0  0  0  0  0
   18.9039    0.8430   53.1505 C   0  0  0  0  0  0  0  0  0  0  0  0
   19.8610    0.8088   51.9379 C   0  0  1  0  0  0  0  0  0  0  0  0
   21.3622    1.1214   52.3678 C   0  0  1  0  0  0  0  0  0  0  0  0
   22.3426    1.0848   51.1638 C   0  0  1  0  0  0  0  0  0  0  0  0
   22.2500   -0.3412   50.5501 C   0  0  1  0  0  0  0  0  0  0  0  0
   20.7448   -0.6260   50.1811 C   0  0  2  0  0  0  0  0  0  0  0  0
   23.4813   -1.7940   48.7513 C   0  0  0  0  0  0  0  0  0  0  0  0
   18.1164    2.4421   54.8956 N   0  0  0  0  0  0  0  0  0  0  0  0
   23.1403   -0.4492   49.3335 N   0  0  0  0  0  0  0  0  0  0  0  0
   20.9169    1.7441   55.1722 O   0  0  0  0  0  0  0  0  0  0  0  0
   21.3915    2.4489   52.9853 O   0  0  0  0  0  0  0  0  0  0  0  0
   19.8390   -0.5155   51.3410 O   0  0  0  0  0  0  0  0  0  0  0  0
   21.9341    2.0913   50.2320 O   0  0  0  0  0  0  0  0  0  0  0  0
   20.6110   -1.9404   49.6774 O   0  0  0  0  0  0  0  0  0  0  0  0
   19.2548   -2.2134   49.3787 C   0  0  2  0  0  0  0  0  0  0  0  0
   18.7495   -3.4761   50.0757 C   0  0  1  0  0  0  0  0  0  0  0  0
   19.5031   -4.7364   49.5687 C   0  0  2  0  0  0  0  0  0  0  0  0
   19.3110   -4.8082   48.0248 C   0  0  1  0  0  0  0  0  0  0  0  0
   19.8968   -3.4998   47.3993 C   0  0  1  0  0  0  0  0  0  0  0  0
   19.7172   -3.4366   45.8989 C   0  0  0  0  0  0  0  0  0  0  0  0
   20.0385   -6.0336   47.5216 N   0  0  0  0  0  0  0  0  0  0  0  0
   19.1297   -2.3665   47.9300 O   0  0  0  0  0  0  0  0  0  0  0  0
   18.9453   -3.2969   51.4924 O   0  0  0  0  0  0  0  0  0  0  0  0
   18.9039   -5.8915   50.1833 O   0  0  0  0  0  0  0  0  0  0  0  0
   20.0200   -2.1822   45.3916 O   0  0  0  0  0  0  0  0  0  0  0  0
   21.8175    2.3670   56.0885 C   0  0  1  0  0  0  0  0  0  0  0  0
   21.4377    1.9733   57.5608 C   0  0  1  0  0  0  0  0  0  0  0  0
   22.4493    2.6590   58.5482 C   0  0  2  0  0  0  0  0  0  0  0  0
   23.8720    2.1688   58.2393 C   0  0  1  0  0  0  0  0  0  0  0  0
   24.2573    2.5775   56.7652 C   0  0  0  0  0  0  0  0  0  0  0  0
   23.2324    1.9020   55.7714 C   0  0  2  0  0  0  0  0  0  0  0  0
   24.7951    2.7955   59.1710 N   0  0  0  0  0  0  0  0  0  0  0  0
   23.5483    2.2812   54.3691 N   0  0  0  0  0  0  0  0  0  0  0  0
   20.0888    2.4356   57.8580 O   0  0  0  0  0  0  0  0  0  0  0  0
   22.1249    2.2950   59.8637 O   0  0  0  0  0  0  0  0  0  0  0  0
  1  2  1  0  0  0  0
  1 12  1  1  0  0  0
  1 13  1  0  0  0  0
  2  3  1  0  0  0  0
  2 10  1  1  0  0  0
  4  3  1  1  0  0  0
  4  5  1  0  0  0  0
  4 14  1  0  0  0  0
  5  6  1  0  0  0  0
  5 13  1  6  0  0  0
  6  7  1  0  0  0  0
  6 15  1  6  0  0  0
  7  8  1  0  0  0  0
  7 11  1  6  0  0  0
  8 14  1  0  0  0  0
  8 16  1  1  0  0  0
  9 11  1  0  0  0  0
 17 16  1  6  0  0  0
 17 18  1  0  0  0  0
 17 24  1  0  0  0  0
 18 19  1  0  0  0  0
 18 25  1  1  0  0  0
 19 20  1  0  0  0  0
 19 26  1  1  0  0  0
 20 21  1  0  0  0  0
 20 23  1  6  0  0  0
 21 22  1  6  0  0  0
 21 24  1  0  0  0  0
 22 27  1  0  0  0  0
 28 12  1  6  0  0  0
 28 29  1  0  0  0  0
 28 33  1  0  0  0  0
 29 30  1  0  0  0  0
 29 36  1  1  0  0  0
 30 31  1  0  0  0  0
 30 37  1  1  0  0  0
 31 32  1  0  0  0  0
 31 34  1  1  0  0  0
 32 33  1  0  0  0  0
 33 35  1  6  0  0  0
M  END
>  <CHROM.1>
-145.09091589,165.59146272,178.40909281,-125.63232701,169.25003703,136.68466759
20.93930346,-0.19956509,52.31234515,-1.28245193,-0.71763023,-1.95576084

>  <Name>
2oe5_lig

>  <RI>
0

>  <Rbt.Current_Directory>
/home/itssahil/PROJECTS/Mol_Feturizer/New_Systems/rnas/2oe5

>  <Rbt.Executable>
rbdock ($Id: //depot/dev/client3/rdock/2013.1/src/exe/rbdock.cxx#4 $)

>  <Rbt.Library>
libRbt.so (2013.1, Build901 2013/11/27)

>  <Rbt.Parameter_File>
/export/apps/rDock/src/rDock_2013.1_src/data/scripts/dock_solv.prm

>  <Rbt.Receptor>
prm/pocket_docking_5.prm

>  <SCORE>
-12.6406

>  <SCORE.INTER>
-14.0082

>  <SCORE.INTER.CONST>
1

>  <SCORE.INTER.POLAR>
-1.17349

>  <SCORE.INTER.ROT>
6

>  <SCORE.INTER.SOLV>
13.3233

>  <SCORE.INTER.VDW>
-17.4682

>  <SCORE.INTER.norm>
-0.378599

>  <SCORE.INTRA>
1.36752

>  <SCORE.INTRA.DIHEDRAL>
1.88065

>  <SCORE.INTRA.DIHEDRAL.0>
16.2083

>  <SCORE.INTRA.POLAR>
0

>  <SCORE.INTRA.POLAR.0>
0

>  <SCORE.INTRA.REPUL>
0

>  <SCORE.INTRA.REPUL.0>
0

>  <SCORE.INTRA.SOLV>
0.176298

>  <SCORE.INTRA.SOLV.lig_0>
-89.8095

>  <SCORE.INTRA.VDW>
0.339049

>  <SCORE.INTRA.VDW.0>
-3.19502

>  <SCORE.INTRA.norm>
0.0369601

>  <SCORE.RESTR>
0

>  <SCORE.RESTR.CAVITY>
0

>  <SCORE.RESTR.norm>
0

>  <SCORE.SYSTEM>
0

>  <SCORE.SYSTEM.CONST>
0

>  <SCORE.SYSTEM.DIHEDRAL>
0

>  <SCORE.SYSTEM.SOLV>
0

>  <SCORE.SYSTEM.norm>
0

>  <SCORE.heavy>
37

>  <SCORE.norm>
-0.341639

>  <RMSD>
2.316

$$$$
2oe5_lig
 OpenBabel11021811463D
libRbt.so/2013.1/901 2013/11/27
 37 40  0  0  0  0  0  0  0  0999 V2000
   20.3044    1.1793   54.2459 C   0  0  1  0  0  0  0  0  0  0  0  0
   19.8190    1.9471   52.9959 C   0  0  1  0  0  0  0  0  0  0  0  0
   18.8067    1.0472   52.1942 C   0  0  0  0  0  0  0  0  0  0  0  0
   19.5973   -0.2286   51.8271 C   0  0  1  0  0  0  0  0  0  0  0  0
   20.0936   -1.0041   53.1266 C   0  0  1  0  0  0  0  0  0  0  0  0
   20.8848   -2.2947   52.7797 C   0  0  1  0  0  0  0  0  0  0  0  0
   19.9297   -3.2002   51.9511 C   0  0  1  0  0  0  0  0  0  0  0  0
   19.4282   -2.3808   50.7020 C   0  0  2  0  0  0  0  0  0  0  0  0
   21.8729   -4.3966   50.6646 C   0  0  0  0  0  0  0  0  0  0  0  0
   19.1472    3.2028   53.4026 N   0  0  0  0  0  0  0  0  0  0  0  0
   20.6407   -4.4642   51.5253 N   0  0  0  0  0  0  0  0  0  0  0  0
   19.2270    0.8922   55.1523 O   0  0  0  0  0  0  0  0  0  0  0  0
   20.9457   -0.0979   53.8994 O   0  0  0  0  0  0  0  0  0  0  0  0
   18.7406   -1.1295   51.0753 O   0  0  0  0  0  0  0  0  0  0  0  0
   22.0411   -1.9140   52.0272 O   0  0  0  0  0  0  0  0  0  0  0  0
   18.5061   -3.1514   49.9570 O   0  0  0  0  0  0  0  0  0  0  0  0
   18.2944   -2.5656   48.6861 C   0  0  2  0  0  0  0  0  0  0  0  0
   17.7355   -3.5636   47.6726 C   0  0  1  0  0  0  0  0  0  0  0  0
   18.7504   -4.7056   47.3915 C   0  0  2  0  0  0  0  0  0  0  0  0
   20.0705   -4.0474   46.8919 C   0  0  1  0  0  0  0  0  0  0  0  0
   20.5878   -3.0830   48.0093 C   0  0  1  0  0  0  0  0  0  0  0  0
   21.8457   -2.3447   47.6095 C   0  0  0  0  0  0  0  0  0  0  0  0
   21.0644   -5.1512   46.6125 N   0  0  0  0  0  0  0  0  0  0  0  0
   19.5729   -2.0414   48.2079 O   0  0  0  0  0  0  0  0  0  0  0  0
   16.5081   -4.0902   48.2146 O   0  0  0  0  0  0  0  0  0  0  0  0
   18.2055   -5.5411   46.3541 O   0  0  0  0  0  0  0  0  0  0  0  0
   22.9688   -2.8470   48.2491 O   0  0  0  0  0  0  0  0  0  0  0  0
   19.5803    0.9953   56.5319 C   0  0  1  0  0  0  0  0  0  0  0  0
   20.7759    0.0277   56.8502 C   0  0  1  0  0  0  0  0  0  0  0  0
   21.1547    0.1687   58.3685 C   0  0  2  0  0  0  0  0  0  0  0  0
   21.5799    1.6170   58.6535 C   0  0  1  0  0  0  0  0  0  0  0  0
   20.3736    2.5861   58.3470 C   0  0  0  0  0  0  0  0  0  0  0  0
   19.9807    2.4349   56.8248 C   0  0  2  0  0  0  0  0  0  0  0  0
   21.9455    1.7296   60.0559 N   0  0  0  0  0  0  0  0  0  0  0  0
   18.8298    3.3180   56.4996 N   0  0  0  0  0  0  0  0  0  0  0  0
   20.3773   -1.3471   56.5807 O   0  0  0  0  0  0  0  0  0  0  0  0
   22.2346   -0.6805   58.6530 O   0  0  0  0  0  0  0  0  0  0  0  0
  1  2  1  0  0  0  0
  1 12  1  1  0  0  0
  1 13  1  0  0  0  0
  2  3  1  0  0  0  0
  2 10  1  1  0  0  0
  4  3  1  1  0  0  0
  4  5  1  0  0  0  0
  4 14  1  0  0  0  0
  5  6  1  0  0  0  0
  5 13  1  6  0  0  0
  6  7  1  0  0  0  0
  6 15  1  6  0  0  0
  7  8  1  0  0  0  0
  7 11  1  6  0  0  0
  8 14  1  0  0  0  0
  8 16  1  1  0  0  0
  9 11  1  0  0  0  0
 17 16  1  1  0  0  0
 17 18  1  0  0  0  0
 17 24  1  0  0  0  0
 18 19  1  0  0  0  0
 18 25  1  1  0  0  0
 19 20  1  0  0  0  0
 19 26  1  6  0  0  0
 20 21  1  0  0  0  0
 20 23  1  1  0  0  0
 21 22  1  6  0  0  0
 21 24  1  0  0  0  0
 22 27  1  0  0  0  0
 28 12  1  6  0  0  0
 28 29  1  0  0  0  0
 28 33  1  0  0  0  0
 29 30  1  0  0  0  0
 29 36  1  1  0  0  0
 30 31  1  0  0  0  0
 30 37  1  6  0  0  0
 31 32  1  0  0  0  0
 31 34  1  1  0  0  0
 32 33  1  0  0  0  0
 33 35  1  1  0  0  0
M  END
>  <CHROM.1>
-142.39572160,-60.16734318,-166.21747302,159.41370769,-105.53165169,-57.66890414
20.06852509,-1.26185953,52.36076740,1.43222793,-0.77850783,0.96790956

>  <Name>
2oe5_lig

>  <RI>
0

>  <Rbt.Current_Directory>
/home/itssahil/PROJECTS/Mol_Feturizer/New_Systems/rnas/2oe5

>  <Rbt.Executable>
rbdock ($Id: //depot/dev/client3/rdock/2013.1/src/exe/rbdock.cxx#4 $)

>  <Rbt.Library>
libRbt.so (2013.1, Build901 2013/11/27)

>  <Rbt.Parameter_File>
/export/apps/rDock/src/rDock_2013.1_src/data/scripts/dock_solv.prm

>  <Rbt.Receptor>
prm/pocket_docking_5.prm

>  <SCORE>
-16.2957

>  <SCORE.INTER>
-18.9034

>  <SCORE.INTER.CONST>
1

>  <SCORE.INTER.POLAR>
-1.89138

>  <SCORE.INTER.ROT>
6

>  <SCORE.INTER.SOLV>
14.5032

>  <SCORE.INTER.VDW>
-18.7321

>  <SCORE.INTER.norm>
-0.510902

>  <SCORE.INTRA>
2.60766

>  <SCORE.INTRA.DIHEDRAL>
-3.82914

>  <SCORE.INTRA.DIHEDRAL.0>
16.2083

>  <SCORE.INTRA.POLAR>
0

>  <SCORE.INTRA.POLAR.0>
0

>  <SCORE.INTRA.REPUL>
0

>  <SCORE.INTRA.REPUL.0>
0

>  <SCORE.INTRA.SOLV>
1.70662

>  <SCORE.INTRA.SOLV.lig_0>
-89.8095

>  <SCORE.INTRA.VDW>
3.66892

>  <SCORE.INTRA.VDW.0>
-3.19502

>  <SCORE.INTRA.norm>
0.0704772

>  <SCORE.RESTR>
0

>  <SCORE.RESTR.CAVITY>
0

>  <SCORE.RESTR.norm>
0

>  <SCORE.SYSTEM>
0

>  <SCORE.SYSTEM.CONST>
0

>  <SCORE.SYSTEM.DIHEDRAL>
0

>  <SCORE.SYSTEM.SOLV>
0

>  <SCORE.SYSTEM.norm>
0

>  <SCORE.heavy>
37

>  <SCORE.norm>
-0.440425

>  <RMSD>
2.316

$$$$
2oe5_lig
 OpenBabel11021811463D
libRbt.so/2013.1/901 2013/11/27
 37 40  0  0  0  0  0  0  0  0999 V2000
   20.8127    2.2860   53.9361 C   0  0  1  0  0  0  0  0  0  0  0  0
   19.6084    2.6754   53.0499 C   0  0  1  0  0  0  0  0  0  0  0  0
   19.0205    1.3811   52.3745 C   0  0  0  0  0  0  0  0  0  0  0  0
   20.1847    0.7858   51.5513 C   0  0  1  0  0  0  0  0  0  0  0  0
   21.4184    0.3950   52.4795 C   0  0  1  0  0  0  0  0  0  0  0  0
   22.5978   -0.2125   51.6719 C   0  0  1  0  0  0  0  0  0  0  0  0
   22.0484   -1.4785   50.9549 C   0  0  1  0  0  0  0  0  0  0  0  0
   20.8046   -1.0557   50.0847 C   0  0  2  0  0  0  0  0  0  0  0  0
   23.1542   -3.5955   49.8786 C   0  0  0  0  0  0  0  0  0  0  0  0
   18.5609    3.3202   53.8747 N   0  0  0  0  0  0  0  0  0  0  0  0
   23.1245   -2.1076   50.0999 N   0  0  0  0  0  0  0  0  0  0  0  0
   20.4282    1.4173   55.0142 O   0  0  0  0  0  0  0  0  0  0  0  0
   21.8681    1.6047   53.1714 O   0  0  0  0  0  0  0  0  0  0  0  0
   19.7357   -0.4226   50.8813 O   0  0  0  0  0  0  0  0  0  0  0  0
   23.0466    0.7741   50.7374 O   0  0  0  0  0  0  0  0  0  0  0  0
   20.2383   -2.1939   49.4658 O   0  0  0  0  0  0  0  0  0  0  0  0
   19.1083   -2.6350   50.1950 C   0  0  2  0  0  0  0  0  0  0  0  0
   19.4539   -3.7471   51.1847 C   0  0  1  0  0  0  0  0  0  0  0  0
   19.9417   -5.0237   50.4462 C   0  0  2  0  0  0  0  0  0  0  0  0
   18.8163   -5.4532   49.4589 C   0  0  1  0  0  0  0  0  0  0  0  0
   18.5664   -4.2744   48.4618 C   0  0  1  0  0  0  0  0  0  0  0  0
   17.4501   -4.5621   47.4828 C   0  0  0  0  0  0  0  0  0  0  0  0
   19.2802   -6.6973   48.7369 N   0  0  0  0  0  0  0  0  0  0  0  0
   18.1107   -3.1170   49.2409 O   0  0  0  0  0  0  0  0  0  0  0  0
   20.4772   -3.2412   52.0649 O   0  0  0  0  0  0  0  0  0  0  0  0
   20.1425   -6.0571   51.4274 O   0  0  0  0  0  0  0  0  0  0  0  0
   16.2287   -4.7214   48.1194 O   0  0  0  0  0  0  0  0  0  0  0  0
   21.3947    1.3212   56.0608 C   0  0  1  0  0  0  0  0  0  0  0  0
   21.2934    2.5776   56.9977 C   0  0  1  0  0  0  0  0  0  0  0  0
   22.3559    2.4426   58.1472 C   0  0  2  0  0  0  0  0  0  0  0  0
   22.0645    1.1732   58.9618 C   0  0  1  0  0  0  0  0  0  0  0  0
   22.1807   -0.0888   58.0227 C   0  0  0  0  0  0  0  0  0  0  0  0
   21.1241    0.0519   56.8573 C   0  0  2  0  0  0  0  0  0  0  0  0
   23.0422    1.0701   60.0325 N   0  0  0  0  0  0  0  0  0  0  0  0
   21.2166   -1.1103   55.9349 N   0  0  0  0  0  0  0  0  0  0  0  0
   21.5684    3.7840   56.2293 O   0  0  0  0  0  0  0  0  0  0  0  0
   22.2563    3.5542   58.9973 O   0  0  0  0  0  0  0  0  0  0  0  0
  1  2  1  0  0  0  0
  1 12  1  1  0  0  0
  1 13  1  0  0  0  0
  2  3  1  0  0  0  0
  2 10  1  1  0  0  0
  4  3  1  1  0  0  0
  4  5  1  0  0  0  0
  4 14  1  0  0  0  0
  5  6  1  0  0  0  0
  5 13  1  6  0  0  0
  6  7  1  0  0  0  0
  6 15  1  6  0  0  0
  7  8  1  0  0  0  0
  7 11  1  6  0  0  0
  8 14  1  0  0  0  0
  8 16  1  1  0  0  0
  9 11  1  0  0  0  0
 17 16  1  6  0  0  0
 17 18  1  0  0  0  0
 17 24  1  0  0  0  0
 18 19  1  0  0  0  0
 18 25  1  1  0  0  0
 19 20  1  0  0  0  0
 19 26  1  1  0  0  0
 20 21  1  0  0  0  0
 20 23  1  6  0  0  0
 21 22  1  6  0  0  0
 21 24  1  0  0  0  0
 22 27  1  0  0  0  0
 28 12  1  6  0  0  0
 28 29  1  0  0  0  0
 28 33  1  0  0  0  0
 29 30  1  0  0  0  0
 29 36  1  6  0  0  0
 30 31  1  0  0  0  0
 30 37  1  1  0  0  0
 31 32  1  0  0  0  0
 31 34  1  1  0  0  0
 32 33  1  0  0  0  0
 33 35  1  6  0  0  0
M  END
>  <CHROM.1>
-163.63302078,148.58594654,99.39895575,-95.32898335,63.32690253,79.39562579
20.60677005,-0.85349762,52.73300295,0.83388697,-1.20029121,0.19206021

>  <Name>
2oe5_lig

>  <RI>
0

>  <Rbt.Current_Directory>
/home/itssahil/PROJECTS/Mol_Feturizer/New_Systems/rnas/2oe5

>  <Rbt.Executable>
rbdock ($Id: //depot/dev/client3/rdock/2013.1/src/exe/rbdock.cxx#4 $)

>  <Rbt.Library>
libRbt.so (2013.1, Build901 2013/11/27)

>  <Rbt.Parameter_File>
/export/apps/rDock/src/rDock_2013.1_src/data/scripts/dock_solv.prm

>  <Rbt.Receptor>
prm/pocket_docking_4.prm

>  <SCORE>
-15.5122

>  <SCORE.INTER>
-18.1714

>  <SCORE.INTER.CONST>
1

>  <SCORE.INTER.POLAR>
-1.85003

>  <SCORE.INTER.ROT>
6

>  <SCORE.INTER.SOLV>
14.7828

>  <SCORE.INTER.VDW>
-18.4751

>  <SCORE.INTER.norm>
-0.491119

>  <SCORE.INTRA>
2.65922

>  <SCORE.INTRA.DIHEDRAL>
-2.6557

>  <SCORE.INTRA.DIHEDRAL.0>
16.2083

>  <SCORE.INTRA.POLAR>
0

>  <SCORE.INTRA.POLAR.0>
0

>  <SCORE.INTRA.REPUL>
0

>  <SCORE.INTRA.REPUL.0>
0

>  <SCORE.INTRA.SOLV>
-0.0601902

>  <SCORE.INTRA.SOLV.lig_0>
-89.8095

>  <SCORE.INTRA.VDW>
4.01717

>  <SCORE.INTRA.VDW.0>
-3.19502

>  <SCORE.INTRA.norm>
0.0718708

>  <SCORE.RESTR>
0

>  <SCORE.RESTR.CAVITY>
0

>  <SCORE.RESTR.norm>
0

>  <SCORE.SYSTEM>
0

>  <SCORE.SYSTEM.CONST>
0

>  <SCORE.SYSTEM.DIHEDRAL>
0

>  <SCORE.SYSTEM.SOLV>
0

>  <SCORE.SYSTEM.norm>
0

>  <SCORE.heavy>
37

>  <SCORE.norm>
-0.419248

>  <RMSD>
2.317

$$$$
2oe5_lig
 OpenBabel11021811463D
libRbt.so/2013.1/901 2013/11/27
 37 40  0  0  0  0  0  0  0  0999 V2000
   20.1171    2.0168   54.6188 C   0  0  1  0  0  0  0  0  0  0  0  0
   19.4942    2.7043   53.3833 C   0  0  1  0  0  0  0  0  0  0  0  0
   18.7875    1.6206   52.4869 C   0  0  0  0  0  0  0  0  0  0  0  0
   19.9010    0.6211   52.1013 C   0  0  1  0  0  0  0  0  0  0  0  0
   20.5346   -0.0740   53.3865 C   0  0  1  0  0  0  0  0  0  0  0  0
   21.6519   -1.0888   53.0203 C   0  0  1  0  0  0  0  0  0  0  0  0
   21.0029   -2.1614   52.0999 C   0  0  1  0  0  0  0  0  0  0  0  0
   20.3507   -1.4284   50.8669 C   0  0  2  0  0  0  0  0  0  0  0  0
   22.9178   -3.8599   52.6575 C   0  0  0  0  0  0  0  0  0  0  0  0
   18.4989    3.7131   53.8137 N   0  0  0  0  0  0  0  0  0  0  0  0
   22.0388   -3.1668   51.6521 N   0  0  0  0  0  0  0  0  0  0  0  0
   19.1202    1.4032   55.4523 O   0  0  0  0  0  0  0  0  0  0  0  0
   21.0863    0.9755   54.2458 O   0  0  0  0  0  0  0  0  0  0  0  0
   19.3427   -0.4259   51.2629 O   0  0  0  0  0  0  0  0  0  0  0  0
   22.6942   -0.3737   52.3491 O   0  0  0  0  0  0  0  0  0  0  0  0
   19.6946   -2.3674   50.0380 O   0  0  0  0  0  0  0  0  0  0  0  0
   20.0888   -2.1888   48.6905 C   0  0  2  0  0  0  0  0  0  0  0  0
   19.1018   -2.8190   47.7085 C   0  0  1  0  0  0  0  0  0  0  0  0
   19.0486   -4.3621   47.8792 C   0  0  2  0  0  0  0  0  0  0  0  0
   20.4943   -4.9062   47.6800 C   0  0  1  0  0  0  0  0  0  0  0  0
   21.4173   -4.2422   48.7539 C   0  0  1  0  0  0  0  0  0  0  0  0
   22.8647   -4.6605   48.6214 C   0  0  0  0  0  0  0  0  0  0  0  0
   20.4528   -6.4083   47.8413 N   0  0  0  0  0  0  0  0  0  0  0  0
   21.4089   -2.7934   48.5185 O   0  0  0  0  0  0  0  0  0  0  0  0
   17.8093   -2.2308   47.9556 O   0  0  0  0  0  0  0  0  0  0  0  0
   18.1879   -4.8945   46.8560 O   0  0  0  0  0  0  0  0  0  0  0  0
   23.6720   -4.0454   49.5662 O   0  0  0  0  0  0  0  0  0  0  0  0
   19.5250    1.2190   56.8090 C   0  0  1  0  0  0  0  0  0  0  0  0
   20.6992    0.1781   56.8789 C   0  0  1  0  0  0  0  0  0  0  0  0
   21.1355    0.0026   58.3779 C   0  0  2  0  0  0  0  0  0  0  0  0
   21.6171    1.3535   58.9283 C   0  0  1  0  0  0  0  0  0  0  0  0
   20.4327    2.3937   58.8708 C   0  0  0  0  0  0  0  0  0  0  0  0
   19.9817    2.5604   57.3664 C   0  0  2  0  0  0  0  0  0  0  0  0
   22.0353    1.1736   60.3088 N   0  0  0  0  0  0  0  0  0  0  0  0
   18.8493    3.5188   57.2712 N   0  0  0  0  0  0  0  0  0  0  0  0
   20.2472   -1.1045   56.3573 O   0  0  0  0  0  0  0  0  0  0  0  0
   22.1968   -0.9127   58.4430 O   0  0  0  0  0  0  0  0  0  0  0  0
  1  2  1  0  0  0  0
  1 12  1  6  0  0  0
  1 13  1  0  0  0  0
  2  3  1  0  0  0  0
  2 10  1  1  0  0  0
  4  3  1  1  0  0  0
  4  5  1  0  0  0  0
  4 14  1  0  0  0  0
  5  6  1  0  0  0  0
  5 13  1  1  0  0  0
  6  7  1  0  0  0  0
  6 15  1  6  0  0  0
  7  8  1  0  0  0  0
  7 11  1  6  0  0  0
  8 14  1  0  0  0  0
  8 16  1  6  0  0  0
  9 11  1  0  0  0  0
 17 16  1  1  0  0  0
 17 18  1  0  0  0  0
 17 24  1  0  0  0  0
 18 19  1  0  0  0  0
 18 25  1  1  0  0  0
 19 20  1  0  0  0  0
 19 26  1  6  0  0  0
 20 21  1  0  0  0  0
 20 23  1  1  0  0  0
 21 22  1  6  0  0  0
 21 24  1  0  0  0  0
 22 27  1  0  0  0  0
 28 12  1  6  0  0  0
 28 29  1  0  0  0  0
 28 33  1  0  0  0  0
 29 30  1  0  0  0  0
 29 36  1  1  0  0  0
 30 31  1  0  0  0  0
 30 37  1  6  0  0  0
 31 32  1  0  0  0  0
 31 34  1  1  0  0  0
 32 33  1  0  0  0  0
 33 35  1  1  0  0  0
M  END
>  <CHROM.1>
-156.92992177,51.83839460,-130.29802572,-160.63729170,178.97740133,-65.99914971
20.50900377,-0.98389913,52.74804847,1.55719584,-0.81593917,1.01465963

>  <Name>
2oe5_lig

>  <RI>
0

>  <Rbt.Current_Directory>
/home/itssahil/PROJECTS/Mol_Feturizer/New_Systems/rnas/2oe5

>  <Rbt.Executable>
rbdock ($Id: //depot/dev/client3/rdock/2013.1/src/exe/rbdock.cxx#4 $)

>  <Rbt.Library>
libRbt.so (2013.1, Build901 2013/11/27)

>  <Rbt.Parameter_File>
/export/apps/rDock/src/rDock_2013.1_src/data/scripts/dock_solv.prm

>  <Rbt.Receptor>
prm/pocket_docking_5.prm

>  <SCORE>
-12.7041

>  <SCORE.INTER>
-11.5794

>  <SCORE.INTER.CONST>
1

>  <SCORE.INTER.POLAR>
-1.13297

>  <SCORE.INTER.ROT>
6

>  <SCORE.INTER.SOLV>
12.2607

>  <SCORE.INTER.VDW>
-15.6299

>  <SCORE.INTER.norm>
-0.312956

>  <SCORE.INTRA>
-1.12477

>  <SCORE.INTRA.DIHEDRAL>
-5.2517

>  <SCORE.INTRA.DIHEDRAL.0>
16.2083

>  <SCORE.INTRA.POLAR>
0

>  <SCORE.INTRA.POLAR.0>
0

>  <SCORE.INTRA.REPUL>
0

>  <SCORE.INTRA.REPUL.0>
0

>  <SCORE.INTRA.SOLV>
1.22969

>  <SCORE.INTRA.SOLV.lig_0>
-89.8095

>  <SCORE.INTRA.VDW>
0.886233

>  <SCORE.INTRA.VDW.0>
-3.19502

>  <SCORE.INTRA.norm>
-0.0303992

>  <SCORE.RESTR>
0

>  <SCORE.RESTR.CAVITY>
0

>  <SCORE.RESTR.norm>
0

>  <SCORE.SYSTEM>
0

>  <SCORE.SYSTEM.CONST>
0

>  <SCORE.SYSTEM.DIHEDRAL>
0

>  <SCORE.SYSTEM.SOLV>
0

>  <SCORE.SYSTEM.norm>
0

>  <SCORE.heavy>
37

>  <SCORE.norm>
-0.343355

>  <RMSD>
2.323

$$$$
2oe5_lig
 OpenBabel11021811463D
libRbt.so/2013.1/901 2013/11/27
 37 40  0  0  0  0  0  0  0  0999 V2000
   23.2169   -1.1882   54.3747 C   0  0  1  0  0  0  0  0  0  0  0  0
   22.7798   -0.0179   53.4655 C   0  0  1  0  0  0  0  0  0  0  0  0
   21.5660   -0.4772   52.5751 C   0  0  0  0  0  0  0  0  0  0  0  0
   22.0884   -1.6846   51.7647 C   0  0  1  0  0  0  0  0  0  0  0  0
   22.5388   -2.8786   52.7174 C   0  0  1  0  0  0  0  0  0  0  0  0
   23.0609   -4.1060   51.9218 C   0  0  1  0  0  0  0  0  0  0  0  0
   21.9001   -4.5710   50.9971 C   0  0  1  0  0  0  0  0  0  0  0  0
   21.4563   -3.3499   50.1054 C   0  0  2  0  0  0  0  0  0  0  0  0
   21.3926   -6.8636   49.8355 C   0  0  0  0  0  0  0  0  0  0  0  0
   22.3733    1.1412   54.2930 N   0  0  0  0  0  0  0  0  0  0  0  0
   22.3421   -5.7379   50.1441 N   0  0  0  0  0  0  0  0  0  0  0  0
   22.1788   -1.5743   55.2902 O   0  0  0  0  0  0  0  0  0  0  0  0
   23.5943   -2.3813   53.6022 O   0  0  0  0  0  0  0  0  0  0  0  0
   21.0310   -2.1826   50.9018 O   0  0  0  0  0  0  0  0  0  0  0  0
   24.2047   -3.6895   51.1693 O   0  0  0  0  0  0  0  0  0  0  0  0
   20.3581   -3.7177   49.2942 O   0  0  0  0  0  0  0  0  0  0  0  0
   19.9442   -2.6184   48.5047 C   0  0  2  0  0  0  0  0  0  0  0  0
   18.5612   -2.8325   47.8908 C   0  0  1  0  0  0  0  0  0  0  0  0
   18.5680   -4.0244   46.8945 C   0  0  2  0  0  0  0  0  0  0  0  0
   19.6450   -3.7233   45.8104 C   0  0  1  0  0  0  0  0  0  0  0  0
   21.0267   -3.5666   46.5262 C   0  0  1  0  0  0  0  0  0  0  0  0
   22.1456   -3.2187   45.5699 C   0  0  0  0  0  0  0  0  0  0  0  0
   19.6575   -4.8766   44.8338 N   0  0  0  0  0  0  0  0  0  0  0  0
   20.9301   -2.4241   47.4425 O   0  0  0  0  0  0  0  0  0  0  0  0
   17.6395   -3.0736   48.9725 O   0  0  0  0  0  0  0  0  0  0  0  0
   17.2700   -4.0973   46.2774 O   0  0  0  0  0  0  0  0  0  0  0  0
   22.3855   -4.2359   44.6586 O   0  0  0  0  0  0  0  0  0  0  0  0
   21.9392   -0.6304   56.3344 C   0  0  1  0  0  0  0  0  0  0  0  0
   20.3934   -0.4519   56.5479 C   0  0  1  0  0  0  0  0  0  0  0  0
   20.1556    0.5797   57.7088 C   0  0  2  0  0  0  0  0  0  0  0  0
   20.7913    0.0455   59.0012 C   0  0  1  0  0  0  0  0  0  0  0  0
   22.3457   -0.1197   58.7897 C   0  0  0  0  0  0  0  0  0  0  0  0
   22.5875   -1.1446   57.6127 C   0  0  2  0  0  0  0  0  0  0  0  0
   20.5481    0.9993   60.0708 N   0  0  0  0  0  0  0  0  0  0  0  0
   24.0440   -1.3119   57.3663 N   0  0  0  0  0  0  0  0  0  0  0  0
   19.7861    0.0540   55.3245 O   0  0  0  0  0  0  0  0  0  0  0  0
   18.7758    0.7283   57.9154 O   0  0  0  0  0  0  0  0  0  0  0  0
  1  2  1  0  0  0  0
  1 12  1  1  0  0  0
  1 13  1  0  0  0  0
  2  3  1  0  0  0  0
  2 10  1  1  0  0  0
  4  3  1  1  0  0  0
  4  5  1  0  0  0  0
  4 14  1  0  0  0  0
  5  6  1  0  0  0  0
  5 13  1  1  0  0  0
  6  7  1  0  0  0  0
  6 15  1  6  0  0  0
  7  8  1  0  0  0  0
  7 11  1  6  0  0  0
  8 14  1  0  0  0  0
  8 16  1  6  0  0  0
  9 11  1  0  0  0  0
 17 16  1  6  0  0  0
 17 18  1  0  0  0  0
 17 24  1  0  0  0  0
 18 19  1  0  0  0  0
 18 25  1  1  0  0  0
 19 20  1  0  0  0  0
 19 26  1  6  0  0  0
 20 21  1  0  0  0  0
 20 23  1  6  0  0  0
 21 22  1  6  0  0  0
 21 24  1  0  0  0  0
 22 27  1  0  0  0  0
 28 12  1  6  0  0  0
 28 29  1  0  0  0  0
 28 33  1  0  0  0  0
 29 30  1  0  0  0  0
 29 36  1  6  0  0  0
 30 31  1  0  0  0  0
 30 37  1  1  0  0  0
 31 32  1  0  0  0  0
 31 34  1  1  0  0  0
 32 33  1  0  0  0  0
 33 35  1  6  0  0  0
M  END
>  <CHROM.1>
-71.31481229,142.41057003,179.19813723,-165.01503278,-64.60781900,137.03569122
21.20277868,-2.26912741,51.90561893,-1.45665069,0.36071876,-1.96556538

>  <Name>
2oe5_lig

>  <RI>
0

>  <Rbt.Current_Directory>
/home/itssahil/PROJECTS/Mol_Feturizer/New_Systems/rnas/2oe5

>  <Rbt.Executable>
rbdock ($Id: //depot/dev/client3/rdock/2013.1/src/exe/rbdock.cxx#4 $)

>  <Rbt.Library>
libRbt.so (2013.1, Build901 2013/11/27)

>  <Rbt.Parameter_File>
/export/apps/rDock/src/rDock_2013.1_src/data/scripts/dock_solv.prm

>  <Rbt.Receptor>
prm/pocket_docking_5.prm

>  <SCORE>
-21.4463

>  <SCORE.INTER>
-19.069

>  <SCORE.INTER.CONST>
1

>  <SCORE.INTER.POLAR>
-1.44669

>  <SCORE.INTER.ROT>
6

>  <SCORE.INTER.SOLV>
15.499

>  <SCORE.INTER.VDW>
-20.6567

>  <SCORE.INTER.norm>
-0.515377

>  <SCORE.INTRA>
-2.37736

>  <SCORE.INTRA.DIHEDRAL>
-7.68044

>  <SCORE.INTRA.DIHEDRAL.0>
16.2083

>  <SCORE.INTRA.POLAR>
0

>  <SCORE.INTRA.POLAR.0>
0

>  <SCORE.INTRA.REPUL>
0

>  <SCORE.INTRA.REPUL.0>
0

>  <SCORE.INTRA.SOLV>
1.53133

>  <SCORE.INTRA.SOLV.lig_0>
-89.8095

>  <SCORE.INTRA.VDW>
0.697196

>  <SCORE.INTRA.VDW.0>
-3.19502

>  <SCORE.INTRA.norm>
-0.0642529

>  <SCORE.RESTR>
0

>  <SCORE.RESTR.CAVITY>
0

>  <SCORE.RESTR.norm>
0

>  <SCORE.SYSTEM>
0

>  <SCORE.SYSTEM.CONST>
0

>  <SCORE.SYSTEM.DIHEDRAL>
0

>  <SCORE.SYSTEM.SOLV>
0

>  <SCORE.SYSTEM.norm>
0

>  <SCORE.heavy>
37

>  <SCORE.norm>
-0.57963

>  <RMSD>
2.336

$$$$
2oe5_lig
 OpenBabel11021811463D
libRbt.so/2013.1/901 2013/11/27
 37 40  0  0  0  0  0  0  0  0999 V2000
   21.7169    0.2311   52.8580 C   0  0  1  0  0  0  0  0  0  0  0  0
   20.2470    0.5836   52.5379 C   0  0  1  0  0  0  0  0  0  0  0  0
   19.4660   -0.7320   52.1683 C   0  0  0  0  0  0  0  0  0  0  0  0
   20.2075   -1.3166   50.9453 C   0  0  1  0  0  0  0  0  0  0  0  0
   21.7213   -1.6693   51.2919 C   0  0  1  0  0  0  0  0  0  0  0  0
   22.4833   -2.2657   50.0770 C   0  0  1  0  0  0  0  0  0  0  0  0
   21.7198   -3.5528   49.6536 C   0  0  1  0  0  0  0  0  0  0  0  0
   20.2196   -3.1674   49.3639 C   0  0  2  0  0  0  0  0  0  0  0  0
   22.2605   -5.6523   48.1831 C   0  0  0  0  0  0  0  0  0  0  0  0
   19.6115    1.2201   53.7145 N   0  0  0  0  0  0  0  0  0  0  0  0
   22.3687   -4.1734   48.4377 N   0  0  0  0  0  0  0  0  0  0  0  0
   21.8261   -0.6288   54.0042 O   0  0  0  0  0  0  0  0  0  0  0  0
   22.3850   -0.4409   51.7333 O   0  0  0  0  0  0  0  0  0  0  0  0
   19.5535   -2.5434   50.5235 O   0  0  0  0  0  0  0  0  0  0  0  0
   22.4885   -1.2846   49.0351 O   0  0  0  0  0  0  0  0  0  0  0  0
   19.4776   -4.3256   49.0363 O   0  0  0  0  0  0  0  0  0  0  0  0
   18.1829   -3.9667   48.5914 C   0  0  2  0  0  0  0  0  0  0  0  0
   17.2508   -5.1730   48.4840 C   0  0  1  0  0  0  0  0  0  0  0  0
   17.7504   -6.1738   47.4061 C   0  0  2  0  0  0  0  0  0  0  0  0
   17.8555   -5.3987   46.0593 C   0  0  1  0  0  0  0  0  0  0  0  0
   18.8613   -4.2169   46.2542 C   0  0  1  0  0  0  0  0  0  0  0  0
   19.0035   -3.3588   45.0169 C   0  0  0  0  0  0  0  0  0  0  0  0
   18.3384   -6.3651   45.0025 N   0  0  0  0  0  0  0  0  0  0  0  0
   18.3124   -3.3260   47.2835 O   0  0  0  0  0  0  0  0  0  0  0  0
   17.2011   -5.7990   49.7814 O   0  0  0  0  0  0  0  0  0  0  0  0
   16.7723   -7.2224   47.2838 O   0  0  0  0  0  0  0  0  0  0  0  0
   19.9241   -2.3374   45.1958 O   0  0  0  0  0  0  0  0  0  0  0  0
   22.0978    0.0577   55.2263 C   0  0  1  0  0  0  0  0  0  0  0  0
   21.6921   -0.8442   56.4465 C   0  0  1  0  0  0  0  0  0  0  0  0
   22.0124   -0.0739   57.7778 C   0  0  2  0  0  0  0  0  0  0  0  0
   23.5178    0.2252   57.8420 C   0  0  1  0  0  0  0  0  0  0  0  0
   23.9210    1.1428   56.6240 C   0  0  0  0  0  0  0  0  0  0  0  0
   23.5856    0.3769   55.2841 C   0  0  2  0  0  0  0  0  0  0  0  0
   23.8036    0.9208   59.0860 N   0  0  0  0  0  0  0  0  0  0  0  0
   23.9314    1.2191   54.1089 N   0  0  0  0  0  0  0  0  0  0  0  0
   20.2652   -1.1310   56.3893 O   0  0  0  0  0  0  0  0  0  0  0  0
   21.6685   -0.8835   58.8708 O   0  0  0  0  0  0  0  0  0  0  0  0
  1  2  1  0  0  0  0
  1 12  1  1  0  0  0
  1 13  1  0  0  0  0
  2  3  1  0  0  0  0
  2 10  1  1  0  0  0
  4  3  1  1  0  0  0
  4  5  1  0  0  0  0
  4 14  1  0  0  0  0
  5  6  1  0  0  0  0
  5 13  1  6  0  0  0
  6  7  1  0  0  0  0
  6 15  1  6  0  0  0
  7  8  1  0  0  0  0
  7 11  1  6  0  0  0
  8 14  1  0  0  0  0
  8 16  1  1  0  0  0
  9 11  1  0  0  0  0
 17 16  1  6  0  0  0
 17 18  1  0  0  0  0
 17 24  1  0  0  0  0
 18 19  1  0  0  0  0
 18 25  1  1  0  0  0
 19 20  1  0  0  0  0
 19 26  1  6  0  0  0
 20 21  1  0  0  0  0
 20 23  1  6  0  0  0
 21 22  1  6  0  0  0
 21 24  1  0  0  0  0
 22 27  1  0  0  0  0
 28 12  1  6  0  0  0
 28 29  1  0  0  0  0
 28 33  1  0  0  0  0
 29 30  1  0  0  0  0
 29 36  1  6  0  0  0
 30 31  1  0  0  0  0
 30 37  1  1  0  0  0
 31 32  1  0  0  0  0
 31 34  1  1  0  0  0
 32 33  1  0  0  0  0
 33 35  1  6  0  0  0
M  END
>  <CHROM.1>
-96.48279409,152.79011671,-171.69825857,-168.84326371,-178.43604596,159.64636400
20.61606573,-2.24761779,51.25279567,-1.12337561,-0.69646639,-1.76577621

>  <Name>
2oe5_lig

>  <RI>
0

>  <Rbt.Current_Directory>
/home/itssahil/PROJECTS/Mol_Feturizer/New_Systems/rnas/2oe5

>  <Rbt.Executable>
rbdock ($Id: //depot/dev/client3/rdock/2013.1/src/exe/rbdock.cxx#4 $)

>  <Rbt.Library>
libRbt.so (2013.1, Build901 2013/11/27)

>  <Rbt.Parameter_File>
/export/apps/rDock/src/rDock_2013.1_src/data/scripts/dock_solv.prm

>  <Rbt.Receptor>
prm/pocket_docking_6.prm

>  <SCORE>
-16.7708

>  <SCORE.INTER>
-13.1187

>  <SCORE.INTER.CONST>
1

>  <SCORE.INTER.POLAR>
-1.53456

>  <SCORE.INTER.ROT>
6

>  <SCORE.INTER.SOLV>
9.98875

>  <SCORE.INTER.VDW>
-14.5602

>  <SCORE.INTER.norm>
-0.354561

>  <SCORE.INTRA>
-3.65204

>  <SCORE.INTRA.DIHEDRAL>
-8.06782

>  <SCORE.INTRA.DIHEDRAL.0>
16.2083

>  <SCORE.INTRA.POLAR>
0

>  <SCORE.INTRA.POLAR.0>
0

>  <SCORE.INTRA.REPUL>
0

>  <SCORE.INTRA.REPUL.0>
0

>  <SCORE.INTRA.SOLV>
-0.353085

>  <SCORE.INTRA.SOLV.lig_0>
-89.8095

>  <SCORE.INTRA.VDW>
0.558411

>  <SCORE.INTRA.VDW.0>
-3.19502

>  <SCORE.INTRA.norm>
-0.0987039

>  <SCORE.RESTR>
0

>  <SCORE.RESTR.CAVITY>
0

>  <SCORE.RESTR.norm>
0

>  <SCORE.SYSTEM>
0

>  <SCORE.SYSTEM.CONST>
0

>  <SCORE.SYSTEM.DIHEDRAL>
0

>  <SCORE.SYSTEM.SOLV>
0

>  <SCORE.SYSTEM.norm>
0

>  <SCORE.heavy>
37

>  <SCORE.norm>
-0.453265

>  <RMSD>
2.336

$$$$
2oe5_lig
 OpenBabel11021811463D
libRbt.so/2013.1/901 2013/11/27
 37 40  0  0  0  0  0  0  0  0999 V2000
   20.5166    2.8103   53.7494 C   0  0  1  0  0  0  0  0  0  0  0  0
   19.0532    2.5833   53.3088 C   0  0  1  0  0  0  0  0  0  0  0  0
   18.8311    1.0535   53.0131 C   0  0  0  0  0  0  0  0  0  0  0  0
   19.8396    0.7033   51.8961 C   0  0  1  0  0  0  0  0  0  0  0  0
   21.3416    0.9478   52.3657 C   0  0  1  0  0  0  0  0  0  0  0  0
   22.3727    0.5946   51.2592 C   0  0  1  0  0  0  0  0  0  0  0  0
   22.1616   -0.9057   50.9084 C   0  0  1  0  0  0  0  0  0  0  0  0
   20.6554   -1.1113   50.4933 C   0  0  2  0  0  0  0  0  0  0  0  0
   23.5536   -2.7509   49.6753 C   0  0  0  0  0  0  0  0  0  0  0  0
   18.1288    3.0173   54.3815 N   0  0  0  0  0  0  0  0  0  0  0  0
   23.0963   -1.3226   49.7961 N   0  0  0  0  0  0  0  0  0  0  0  0
   20.8224    2.1225   54.9735 O   0  0  0  0  0  0  0  0  0  0  0  0
   21.4793    2.3584   52.7336 O   0  0  0  0  0  0  0  0  0  0  0  0
   19.7085   -0.7012   51.5483 O   0  0  0  0  0  0  0  0  0  0  0  0
   22.1206    1.4432   50.1347 O   0  0  0  0  0  0  0  0  0  0  0  0
   20.4095   -2.4781   50.2273 O   0  0  0  0  0  0  0  0  0  0  0  0
   19.2521   -2.6191   49.4252 C   0  0  2  0  0  0  0  0  0  0  0  0
   18.6955   -4.0421   49.4541 C   0  0  1  0  0  0  0  0  0  0  0  0
   19.7020   -5.0509   48.8357 C   0  0  2  0  0  0  0  0  0  0  0  0
   20.0096   -4.5764   47.3844 C   0  0  1  0  0  0  0  0  0  0  0  0
   20.6149   -3.1363   47.4604 C   0  0  1  0  0  0  0  0  0  0  0  0
   20.9060   -2.5507   46.0966 C   0  0  0  0  0  0  0  0  0  0  0  0
   20.9865   -5.5537   46.7724 N   0  0  0  0  0  0  0  0  0  0  0  0
   19.6020   -2.2547   48.0531 O   0  0  0  0  0  0  0  0  0  0  0  0
   18.4193   -4.3715   50.8300 O   0  0  0  0  0  0  0  0  0  0  0  0
   19.0707   -6.3436   48.7966 O   0  0  0  0  0  0  0  0  0  0  0  0
   19.7501   -2.1422   45.4489 O   0  0  0  0  0  0  0  0  0  0  0  0
   22.1591    2.3180   55.4358 C   0  0  1  0  0  0  0  0  0  0  0  0
   22.3291    3.7844   55.9721 C   0  0  1  0  0  0  0  0  0  0  0  0
   23.8018    3.9708   56.4867 C   0  0  2  0  0  0  0  0  0  0  0  0
   24.0717    2.9759   57.6256 C   0  0  1  0  0  0  0  0  0  0  0  0
   23.9145    1.5035   57.0820 C   0  0  0  0  0  0  0  0  0  0  0  0
   22.4391    1.3182   56.5497 C   0  0  2  0  0  0  0  0  0  0  0  0
   25.4300    3.1713   58.1051 N   0  0  0  0  0  0  0  0  0  0  0  0
   22.2558   -0.0535   56.0069 N   0  0  0  0  0  0  0  0  0  0  0  0
   22.0735    4.7314   54.8954 O   0  0  0  0  0  0  0  0  0  0  0  0
   23.9529    5.2740   56.9838 O   0  0  0  0  0  0  0  0  0  0  0  0
  1  2  1  0  0  0  0
  1 12  1  1  0  0  0
  1 13  1  0  0  0  0
  2  3  1  0  0  0  0
  2 10  1  1  0  0  0
  4  3  1  1  0  0  0
  4  5  1  0  0  0  0
  4 14  1  0  0  0  0
  5  6  1  0  0  0  0
  5 13  1  6  0  0  0
  6  7  1  0  0  0  0
  6 15  1  6  0  0  0
  7  8  1  0  0  0  0
  7 11  1  6  0  0  0
  8 14  1  0  0  0  0
  8 16  1  1  0  0  0
  9 11  1  0  0  0  0
 17 16  1  1  0  0  0
 17 18  1  0  0  0  0
 17 24  1  0  0  0  0
 18 19  1  0  0  0  0
 18 25  1  1  0  0  0
 19 20  1  0  0  0  0
 19 26  1  6  0  0  0
 20 21  1  0  0  0  0
 20 23  1  1  0  0  0
 21 22  1  6  0  0  0
 21 24  1  0  0  0  0
 22 27  1  0  0  0  0
 28 12  1  1  0  0  0
 28 29  1  0  0  0  0
 28 33  1  0  0  0  0
 29 30  1  0  0  0  0
 29 36  1  6  0  0  0
 30 31  1  0  0  0  0
 30 37  1  1  0  0  0
 31 32  1  0  0  0  0
 31 34  1  6  0  0  0
 32 33  1  0  0  0  0
 33 35  1  6  0  0  0
M  END
>  <CHROM.1>
-179.04068349,152.45538857,-159.47358950,-162.65666789,75.13937655,71.51086317
21.16190508,-0.15651293,51.96314573,1.30337929,-0.37447322,0.75919878

>  <Name>
2oe5_lig

>  <RI>
0

>  <Rbt.Current_Directory>
/home/itssahil/PROJECTS/Mol_Feturizer/New_Systems/rnas/2oe5

>  <Rbt.Executable>
rbdock ($Id: //depot/dev/client3/rdock/2013.1/src/exe/rbdock.cxx#4 $)

>  <Rbt.Library>
libRbt.so (2013.1, Build901 2013/11/27)

>  <Rbt.Parameter_File>
/export/apps/rDock/src/rDock_2013.1_src/data/scripts/dock_solv.prm

>  <Rbt.Receptor>
prm/pocket_docking_7.prm

>  <SCORE>
-18.7617

>  <SCORE.INTER>
-12.7404

>  <SCORE.INTER.CONST>
1

>  <SCORE.INTER.POLAR>
-0.871289

>  <SCORE.INTER.ROT>
6

>  <SCORE.INTER.SOLV>
12.4688

>  <SCORE.INTER.VDW>
-17.3456

>  <SCORE.INTER.norm>
-0.344335

>  <SCORE.INTRA>
-6.0213

>  <SCORE.INTRA.DIHEDRAL>
-10.925

>  <SCORE.INTRA.DIHEDRAL.0>
16.2083

>  <SCORE.INTRA.POLAR>
0

>  <SCORE.INTRA.POLAR.0>
0

>  <SCORE.INTRA.REPUL>
0

>  <SCORE.INTRA.REPUL.0>
0

>  <SCORE.INTRA.SOLV>
-2.17629

>  <SCORE.INTRA.SOLV.lig_0>
-89.8095

>  <SCORE.INTRA.VDW>
0.529354

>  <SCORE.INTRA.VDW.0>
-3.19502

>  <SCORE.INTRA.norm>
-0.162738

>  <SCORE.RESTR>
0

>  <SCORE.RESTR.CAVITY>
0

>  <SCORE.RESTR.norm>
0

>  <SCORE.SYSTEM>
0

>  <SCORE.SYSTEM.CONST>
0

>  <SCORE.SYSTEM.DIHEDRAL>
0

>  <SCORE.SYSTEM.SOLV>
0

>  <SCORE.SYSTEM.norm>
0

>  <SCORE.heavy>
37

>  <SCORE.norm>
-0.507073

>  <RMSD>
2.368

$$$$
2oe5_lig
 OpenBabel11021811463D
libRbt.so/2013.1/901 2013/11/27
 37 40  0  0  0  0  0  0  0  0999 V2000
   20.2600    1.1462   54.2312 C   0  0  1  0  0  0  0  0  0  0  0  0
   19.7470    1.9177   52.9947 C   0  0  1  0  0  0  0  0  0  0  0  0
   18.7422    1.0079   52.1948 C   0  0  0  0  0  0  0  0  0  0  0  0
   19.5515   -0.2496   51.8059 C   0  0  1  0  0  0  0  0  0  0  0  0
   20.0763   -1.0291   53.0917 C   0  0  1  0  0  0  0  0  0  0  0  0
   20.8868   -2.3015   52.7226 C   0  0  1  0  0  0  0  0  0  0  0  0
   19.9390   -3.2157   51.8953 C   0  0  1  0  0  0  0  0  0  0  0  0
   19.4088   -2.3929   50.6603 C   0  0  2  0  0  0  0  0  0  0  0  0
   19.9414   -5.7749   51.3353 C   0  0  0  0  0  0  0  0  0  0  0  0
   19.0571    3.1568   53.4218 N   0  0  0  0  0  0  0  0  0  0  0  0
   20.6680   -4.4622   51.4485 N   0  0  0  0  0  0  0  0  0  0  0  0
   19.1982    0.8303   55.1464 O   0  0  0  0  0  0  0  0  0  0  0  0
   20.9205   -0.1155   53.8644 O   0  0  0  0  0  0  0  0  0  0  0  0
   18.7029   -1.1582   51.0541 O   0  0  0  0  0  0  0  0  0  0  0  0
   22.0275   -1.8922   51.9614 O   0  0  0  0  0  0  0  0  0  0  0  0
   18.4926   -3.1725   49.9175 O   0  0  0  0  0  0  0  0  0  0  0  0
   18.3542   -2.6496   48.6096 C   0  0  2  0  0  0  0  0  0  0  0  0
   17.7008   -3.6456   47.6522 C   0  0  1  0  0  0  0  0  0  0  0  0
   18.5911   -4.9035   47.4577 C   0  0  2  0  0  0  0  0  0  0  0  0
   19.9775   -4.4209   46.9373 C   0  0  1  0  0  0  0  0  0  0  0  0
   20.5851   -3.4473   47.9999 C   0  0  1  0  0  0  0  0  0  0  0  0
   21.9173   -2.8722   47.5733 C   0  0  0  0  0  0  0  0  0  0  0  0
   20.8511   -5.6385   46.7418 N   0  0  0  0  0  0  0  0  0  0  0  0
   19.6847   -2.2942   48.1184 O   0  0  0  0  0  0  0  0  0  0  0  0
   16.4202   -4.0046   48.2081 O   0  0  0  0  0  0  0  0  0  0  0  0
   17.9691   -5.7412   46.4665 O   0  0  0  0  0  0  0  0  0  0  0  0
   22.3829   -1.9204   48.4676 O   0  0  0  0  0  0  0  0  0  0  0  0
   19.5515    0.9706   56.5227 C   0  0  1  0  0  0  0  0  0  0  0  0
   20.7592    0.0258   56.8626 C   0  0  1  0  0  0  0  0  0  0  0  0
   21.1375    0.2076   58.3766 C   0  0  2  0  0  0  0  0  0  0  0  0
   21.5450    1.6675   58.6266 C   0  0  1  0  0  0  0  0  0  0  0  0
   20.3265    2.6140   58.2985 C   0  0  0  0  0  0  0  0  0  0  0  0
   19.9342    2.4217   56.7808 C   0  0  2  0  0  0  0  0  0  0  0  0
   21.9103    1.8179   60.0255 N   0  0  0  0  0  0  0  0  0  0  0  0
   18.7722    3.2824   56.4360 N   0  0  0  0  0  0  0  0  0  0  0  0
   20.3775   -1.3599   56.6263 O   0  0  0  0  0  0  0  0  0  0  0  0
   22.2281   -0.6211   58.6800 O   0  0  0  0  0  0  0  0  0  0  0  0
  1  2  1  0  0  0  0
  1 12  1  1  0  0  0
  1 13  1  0  0  0  0
  2  3  1  0  0  0  0
  2 10  1  1  0  0  0
  4  3  1  1  0  0  0
  4  5  1  0  0  0  0
  4 14  1  0  0  0  0
  5  6  1  0  0  0  0
  5 13  1  6  0  0  0
  6  7  1  0  0  0  0
  6 15  1  6  0  0  0
  7  8  1  0  0  0  0
  7 11  1  6  0  0  0
  8 14  1  0  0  0  0
  8 16  1  1  0  0  0
  9 11  1  0  0  0  0
 17 16  1  1  0  0  0
 17 18  1  0  0  0  0
 17 24  1  0  0  0  0
 18 19  1  0  0  0  0
 18 25  1  1  0  0  0
 19 20  1  0  0  0  0
 19 26  1  6  0  0  0
 20 21  1  0  0  0  0
 20 23  1  1  0  0  0
 21 22  1  6  0  0  0
 21 24  1  0  0  0  0
 22 27  1  0  0  0  0
 28 12  1  6  0  0  0
 28 29  1  0  0  0  0
 28 33  1  0  0  0  0
 29 30  1  0  0  0  0
 29 36  1  1  0  0  0
 30 31  1  0  0  0  0
 30 37  1  6  0  0  0
 31 32  1  0  0  0  0
 31 34  1  1  0  0  0
 32 33  1  0  0  0  0
 33 35  1  1  0  0  0
M  END
>  <CHROM.1>
-140.33304719,146.12407386,-160.61656451,163.97139010,174.49936243,-59.36500735
19.96012083,-1.34302943,52.37444424,1.36808663,-0.97057167,0.87473967

>  <Name>
2oe5_lig

>  <RI>
0

>  <Rbt.Current_Directory>
/home/itssahil/PROJECTS/Mol_Feturizer/New_Systems/rnas/2oe5

>  <Rbt.Executable>
rbdock ($Id: //depot/dev/client3/rdock/2013.1/src/exe/rbdock.cxx#4 $)

>  <Rbt.Library>
libRbt.so (2013.1, Build901 2013/11/27)

>  <Rbt.Parameter_File>
/export/apps/rDock/src/rDock_2013.1_src/data/scripts/dock_solv.prm

>  <Rbt.Receptor>
prm/pocket_docking_4.prm

>  <SCORE>
-23.6596

>  <SCORE.INTER>
-22.1161

>  <SCORE.INTER.CONST>
1

>  <SCORE.INTER.POLAR>
-1.9454

>  <SCORE.INTER.ROT>
6

>  <SCORE.INTER.SOLV>
14.6874

>  <SCORE.INTER.VDW>
-20.7552

>  <SCORE.INTER.norm>
-0.597733

>  <SCORE.INTRA>
-1.5435

>  <SCORE.INTRA.DIHEDRAL>
-7.11769

>  <SCORE.INTRA.DIHEDRAL.0>
16.2083

>  <SCORE.INTRA.POLAR>
0

>  <SCORE.INTRA.POLAR.0>
0

>  <SCORE.INTRA.REPUL>
0.0643975

>  <SCORE.INTRA.REPUL.0>
0

>  <SCORE.INTRA.SOLV>
0.949791

>  <SCORE.INTRA.SOLV.lig_0>
-89.8095

>  <SCORE.INTRA.VDW>
1.21847

>  <SCORE.INTRA.VDW.0>
-3.19502

>  <SCORE.INTRA.norm>
-0.0417162

>  <SCORE.RESTR>
0

>  <SCORE.RESTR.CAVITY>
0

>  <SCORE.RESTR.norm>
0

>  <SCORE.SYSTEM>
0

>  <SCORE.SYSTEM.CONST>
0

>  <SCORE.SYSTEM.DIHEDRAL>
0

>  <SCORE.SYSTEM.SOLV>
0

>  <SCORE.SYSTEM.norm>
0

>  <SCORE.heavy>
37

>  <SCORE.norm>
-0.63945

>  <RMSD>
2.399

$$$$
2oe5_lig
 OpenBabel11021811463D
libRbt.so/2013.1/901 2013/11/27
 37 40  0  0  0  0  0  0  0  0999 V2000
   20.2521    1.2074   54.2539 C   0  0  1  0  0  0  0  0  0  0  0  0
   19.7418    1.9721   53.0120 C   0  0  1  0  0  0  0  0  0  0  0  0
   18.7416    1.0566   52.2130 C   0  0  0  0  0  0  0  0  0  0  0  0
   19.5547   -0.2011   51.8327 C   0  0  1  0  0  0  0  0  0  0  0  0
   20.0765   -0.9736   53.1239 C   0  0  1  0  0  0  0  0  0  0  0  0
   20.8907   -2.2461   52.7637 C   0  0  1  0  0  0  0  0  0  0  0  0
   19.9476   -3.1660   51.9373 C   0  0  1  0  0  0  0  0  0  0  0  0
   19.4201   -2.3500   50.6967 C   0  0  2  0  0  0  0  0  0  0  0  0
   19.9211   -5.6091   50.9921 C   0  0  0  0  0  0  0  0  0  0  0  0
   19.0481    3.2118   53.4309 N   0  0  0  0  0  0  0  0  0  0  0  0
   20.6804   -4.4131   51.4989 N   0  0  0  0  0  0  0  0  0  0  0  0
   19.1877    0.8937   55.1669 O   0  0  0  0  0  0  0  0  0  0  0  0
   20.9162   -0.0548   53.8953 O   0  0  0  0  0  0  0  0  0  0  0  0
   18.7105   -1.1148   51.0823 O   0  0  0  0  0  0  0  0  0  0  0  0
   22.0333   -1.8381   52.0045 O   0  0  0  0  0  0  0  0  0  0  0  0
   18.5079   -3.1348   49.9543 O   0  0  0  0  0  0  0  0  0  0  0  0
   18.3591   -2.6076   48.6494 C   0  0  2  0  0  0  0  0  0  0  0  0
   17.7119   -3.6058   47.6902 C   0  0  1  0  0  0  0  0  0  0  0  0
   18.6139   -4.8540   47.4865 C   0  0  2  0  0  0  0  0  0  0  0  0
   19.9934   -4.3552   46.9628 C   0  0  1  0  0  0  0  0  0  0  0  0
   20.5955   -3.3803   48.0274 C   0  0  1  0  0  0  0  0  0  0  0  0
   21.9201   -2.7900   47.5980 C   0  0  0  0  0  0  0  0  0  0  0  0
   20.8782   -5.5632   46.7585 N   0  0  0  0  0  0  0  0  0  0  0  0
   19.6840   -2.2368   48.1545 O   0  0  0  0  0  0  0  0  0  0  0  0
   16.4372   -3.9801   48.2494 O   0  0  0  0  0  0  0  0  0  0  0  0
   17.9963   -5.6934   46.4941 O   0  0  0  0  0  0  0  0  0  0  0  0
   22.3932   -1.8576   48.5087 O   0  0  0  0  0  0  0  0  0  0  0  0
   19.5500    0.9949   56.5443 C   0  0  1  0  0  0  0  0  0  0  0  0
   20.7605    0.0416   56.8490 C   0  0  1  0  0  0  0  0  0  0  0  0
   21.1487    0.1804   58.3651 C   0  0  2  0  0  0  0  0  0  0  0  0
   21.5570    1.6328   58.6540 C   0  0  1  0  0  0  0  0  0  0  0  0
   20.3359    2.5874   58.3611 C   0  0  0  0  0  0  0  0  0  0  0  0
   19.9336    2.4383   56.8412 C   0  0  2  0  0  0  0  0  0  0  0  0
   21.9316    1.7436   60.0542 N   0  0  0  0  0  0  0  0  0  0  0  0
   18.7688    3.3077   56.5288 N   0  0  0  0  0  0  0  0  0  0  0  0
   20.3780   -1.3370   56.5758 O   0  0  0  0  0  0  0  0  0  0  0  0
   22.2418   -0.6558   58.6375 O   0  0  0  0  0  0  0  0  0  0  0  0
  1  2  1  0  0  0  0
  1 12  1  1  0  0  0
  1 13  1  0  0  0  0
  2  3  1  0  0  0  0
  2 10  1  1  0  0  0
  4  3  1  1  0  0  0
  4  5  1  0  0  0  0
  4 14  1  0  0  0  0
  5  6  1  0  0  0  0
  5 13  1  6  0  0  0
  6  7  1  0  0  0  0
  6 15  1  6  0  0  0
  7  8  1  0  0  0  0
  7 11  1  6  0  0  0
  8 14  1  0  0  0  0
  8 16  1  1  0  0  0
  9 11  1  0  0  0  0
 17 16  1  1  0  0  0
 17 18  1  0  0  0  0
 17 24  1  0  0  0  0
 18 19  1  0  0  0  0
 18 25  1  1  0  0  0
 19 20  1  0  0  0  0
 19 26  1  6  0  0  0
 20 21  1  0  0  0  0
 20 23  1  1  0  0  0
 21 22  1  6  0  0  0
 21 24  1  0  0  0  0
 22 27  1  0  0  0  0
 28 12  1  6  0  0  0
 28 29  1  0  0  0  0
 28 33  1  0  0  0  0
 29 30  1  0  0  0  0
 29 36  1  1  0  0  0
 30 31  1  0  0  0  0
 30 37  1  6  0  0  0
 31 32  1  0  0  0  0
 31 34  1  1  0  0  0
 32 33  1  0  0  0  0
 33 35  1  1  0  0  0
M  END
>  <CHROM.1>
-142.45898439,164.61193324,-161.41591761,163.92636662,175.74088855,-58.03854295
19.96615016,-1.30303311,52.39068528,1.37465351,-0.95332116,0.88554212

>  <Name>
2oe5_lig

>  <RI>
0

>  <Rbt.Current_Directory>
/home/itssahil/PROJECTS/Mol_Feturizer/New_Systems/rnas/2oe5

>  <Rbt.Executable>
rbdock ($Id: //depot/dev/client3/rdock/2013.1/src/exe/rbdock.cxx#4 $)

>  <Rbt.Library>
libRbt.so (2013.1, Build901 2013/11/27)

>  <Rbt.Parameter_File>
/export/apps/rDock/src/rDock_2013.1_src/data/scripts/dock_solv.prm

>  <Rbt.Receptor>
prm/pocket_docking_3.prm

>  <SCORE>
-23.3543

>  <SCORE.INTER>
-21.5044

>  <SCORE.INTER.CONST>
1

>  <SCORE.INTER.POLAR>
-1.92676

>  <SCORE.INTER.ROT>
6

>  <SCORE.INTER.SOLV>
14.5138

>  <SCORE.INTER.VDW>
-20.3517

>  <SCORE.INTER.norm>
-0.581201

>  <SCORE.INTRA>
-1.85902

>  <SCORE.INTRA.DIHEDRAL>
-8.15629

>  <SCORE.INTRA.DIHEDRAL.0>
16.2083

>  <SCORE.INTRA.POLAR>
0

>  <SCORE.INTRA.POLAR.0>
0

>  <SCORE.INTRA.REPUL>
0.0699608

>  <SCORE.INTRA.REPUL.0>
0

>  <SCORE.INTRA.SOLV>
1.03352

>  <SCORE.INTRA.SOLV.lig_0>
-89.8095

>  <SCORE.INTRA.VDW>
1.35257

>  <SCORE.INTRA.VDW.0>
-3.19502

>  <SCORE.INTRA.norm>
-0.0502437

>  <SCORE.RESTR>
0.00910576

>  <SCORE.RESTR.CAVITY>
0.00910576

>  <SCORE.RESTR.norm>
0.000246102

>  <SCORE.SYSTEM>
0

>  <SCORE.SYSTEM.CONST>
0

>  <SCORE.SYSTEM.DIHEDRAL>
0

>  <SCORE.SYSTEM.SOLV>
0

>  <SCORE.SYSTEM.norm>
0

>  <SCORE.heavy>
37

>  <SCORE.norm>
-0.631198

>  <RMSD>
2.405

$$$$
2oe5_lig
 OpenBabel11021811463D
libRbt.so/2013.1/901 2013/11/27
 37 40  0  0  0  0  0  0  0  0999 V2000
   22.4126    1.1223   52.2773 C   0  0  1  0  0  0  0  0  0  0  0  0
   21.1001    1.7436   51.7494 C   0  0  1  0  0  0  0  0  0  0  0  0
   20.0855    0.5930   51.3974 C   0  0  0  0  0  0  0  0  0  0  0  0
   20.7977   -0.2660   50.3287 C   0  0  1  0  0  0  0  0  0  0  0  0
   22.1501   -0.8940   50.8882 C   0  0  1  0  0  0  0  0  0  0  0  0
   22.8787   -1.7680   49.8310 C   0  0  1  0  0  0  0  0  0  0  0  0
   21.8930   -2.9005   49.4255 C   0  0  1  0  0  0  0  0  0  0  0  0
   20.5554   -2.2375   48.9213 C   0  0  2  0  0  0  0  0  0  0  0  0
   22.1453   -5.2311   48.2562 C   0  0  0  0  0  0  0  0  0  0  0  0
   20.5069    2.6253   52.7811 N   0  0  0  0  0  0  0  0  0  0  0  0
   22.5067   -3.7739   48.3554 N   0  0  0  0  0  0  0  0  0  0  0  0
   22.2081    0.3889   53.4960 O   0  0  0  0  0  0  0  0  0  0  0  0
   23.0240    0.2049   51.3040 O   0  0  0  0  0  0  0  0  0  0  0  0
   19.9314   -1.3633   49.9334 O   0  0  0  0  0  0  0  0  0  0  0  0
   23.2107   -0.9299   48.7194 O   0  0  0  0  0  0  0  0  0  0  0  0
   19.6097   -3.2391   48.6024 O   0  0  0  0  0  0  0  0  0  0  0  0
   18.6750   -2.7465   47.6608 C   0  0  2  0  0  0  0  0  0  0  0  0
   17.4745   -3.6771   47.4928 C   0  0  1  0  0  0  0  0  0  0  0  0
   17.9061   -5.0491   46.9058 C   0  0  2  0  0  0  0  0  0  0  0  0
   18.6230   -4.7747   45.5506 C   0  0  1  0  0  0  0  0  0  0  0  0
   19.8581   -3.8566   45.8296 C   0  0  1  0  0  0  0  0  0  0  0  0
   20.6047   -3.4803   44.5693 C   0  0  0  0  0  0  0  0  0  0  0  0
   19.0446   -6.1046   44.9694 N   0  0  0  0  0  0  0  0  0  0  0  0
   19.3602   -2.5897   46.3787 O   0  0  0  0  0  0  0  0  0  0  0  0
   16.8692   -3.8421   48.7905 O   0  0  0  0  0  0  0  0  0  0  0  0
   16.7186   -5.8283   46.6739 O   0  0  0  0  0  0  0  0  0  0  0  0
   20.1681   -2.2719   44.0478 O   0  0  0  0  0  0  0  0  0  0  0  0
   22.8319    0.9714   54.6406 C   0  0  1  0  0  0  0  0  0  0  0  0
   22.1122    0.4815   55.9479 C   0  0  1  0  0  0  0  0  0  0  0  0
   22.8238    1.1244   57.1924 C   0  0  2  0  0  0  0  0  0  0  0  0
   24.2942    0.6808   57.2220 C   0  0  1  0  0  0  0  0  0  0  0  0
   25.0192    1.1858   55.9153 C   0  0  0  0  0  0  0  0  0  0  0  0
   24.2959    0.5532   54.6618 C   0  0  2  0  0  0  0  0  0  0  0  0
   24.9359    1.2666   58.3874 N   0  0  0  0  0  0  0  0  0  0  0  0
   24.9370    1.0232   53.4056 N   0  0  0  0  0  0  0  0  0  0  0  0
   20.7171    0.8994   55.9238 O   0  0  0  0  0  0  0  0  0  0  0  0
   22.1955    0.6747   58.3634 O   0  0  0  0  0  0  0  0  0  0  0  0
  1  2  1  0  0  0  0
  1 12  1  1  0  0  0
  1 13  1  0  0  0  0
  2  3  1  0  0  0  0
  2 10  1  1  0  0  0
  4  3  1  1  0  0  0
  4  5  1  0  0  0  0
  4 14  1  0  0  0  0
  5  6  1  0  0  0  0
  5 13  1  6  0  0  0
  6  7  1  0  0  0  0
  6 15  1  6  0  0  0
  7  8  1  0  0  0  0
  7 11  1  6  0  0  0
  8 14  1  0  0  0  0
  8 16  1  1  0  0  0
  9 11  1  0  0  0  0
 17 16  1  1  0  0  0
 17 18  1  0  0  0  0
 17 24  1  0  0  0  0
 18 19  1  0  0  0  0
 18 25  1  1  0  0  0
 19 20  1  0  0  0  0
 19 26  1  6  0  0  0
 20 21  1  0  0  0  0
 20 23  1  1  0  0  0
 21 22  1  6  0  0  0
 21 24  1  0  0  0  0
 22 27  1  0  0  0  0
 28 12  1  6  0  0  0
 28 29  1  0  0  0  0
 28 33  1  0  0  0  0
 29 30  1  0  0  0  0
 29 36  1  6  0  0  0
 30 31  1  0  0  0  0
 30 37  1  1  0  0  0
 31 32  1  0  0  0  0
 31 34  1  1  0  0  0
 32 33  1  0  0  0  0
 33 35  1  6  0  0  0
M  END
>  <CHROM.1>
-112.79272166,149.81304017,-155.40432912,-168.39870078,93.40328785,157.22587387
21.16863976,-1.40750191,50.68964562,-1.19278380,-0.29334024,-1.95489136

>  <Name>
2oe5_lig

>  <RI>
0

>  <Rbt.Current_Directory>
/home/itssahil/PROJECTS/Mol_Feturizer/New_Systems/rnas/2oe5

>  <Rbt.Executable>
rbdock ($Id: //depot/dev/client3/rdock/2013.1/src/exe/rbdock.cxx#4 $)

>  <Rbt.Library>
libRbt.so (2013.1, Build901 2013/11/27)

>  <Rbt.Parameter_File>
/export/apps/rDock/src/rDock_2013.1_src/data/scripts/dock_solv.prm

>  <Rbt.Receptor>
prm/pocket_docking_5.prm

>  <SCORE>
-17.6663

>  <SCORE.INTER>
-18.1642

>  <SCORE.INTER.CONST>
1

>  <SCORE.INTER.POLAR>
-2.20572

>  <SCORE.INTER.ROT>
6

>  <SCORE.INTER.SOLV>
12.4035

>  <SCORE.INTER.VDW>
-16.4916

>  <SCORE.INTER.norm>
-0.490925

>  <SCORE.INTRA>
0.497876

>  <SCORE.INTRA.DIHEDRAL>
-0.0891501

>  <SCORE.INTRA.DIHEDRAL.0>
16.2083

>  <SCORE.INTRA.POLAR>
0

>  <SCORE.INTRA.POLAR.0>
0

>  <SCORE.INTRA.REPUL>
0

>  <SCORE.INTRA.REPUL.0>
0

>  <SCORE.INTRA.SOLV>
0.351503

>  <SCORE.INTRA.SOLV.lig_0>
-89.8095

>  <SCORE.INTRA.VDW>
0.3667

>  <SCORE.INTRA.VDW.0>
-3.19502

>  <SCORE.INTRA.norm>
0.0134561

>  <SCORE.RESTR>
0

>  <SCORE.RESTR.CAVITY>
0

>  <SCORE.RESTR.norm>
0

>  <SCORE.SYSTEM>
0

>  <SCORE.SYSTEM.CONST>
0

>  <SCORE.SYSTEM.DIHEDRAL>
0

>  <SCORE.SYSTEM.SOLV>
0

>  <SCORE.SYSTEM.norm>
0

>  <SCORE.heavy>
37

>  <SCORE.norm>
-0.477469

>  <RMSD>
2.407

$$$$
2oe5_lig
 OpenBabel11021811463D
libRbt.so/2013.1/901 2013/11/27
 37 40  0  0  0  0  0  0  0  0999 V2000
   20.9935    2.2464   53.6351 C   0  0  1  0  0  0  0  0  0  0  0  0
   19.6733    2.5346   52.8858 C   0  0  1  0  0  0  0  0  0  0  0  0
   19.1069    1.1901   52.2955 C   0  0  0  0  0  0  0  0  0  0  0  0
   20.2113    0.6610   51.3532 C   0  0  1  0  0  0  0  0  0  0  0  0
   21.5654    0.3743   52.1410 C   0  0  1  0  0  0  0  0  0  0  0  0
   22.6874   -0.1656   51.2126 C   0  0  1  0  0  0  0  0  0  0  0  0
   22.1525   -1.4801   50.5764 C   0  0  1  0  0  0  0  0  0  0  0  0
   20.7926   -1.1610   49.8470 C   0  0  2  0  0  0  0  0  0  0  0  0
   24.4351   -2.6824   50.1214 C   0  0  0  0  0  0  0  0  0  0  0  0
   18.6813    3.1212   53.8160 N   0  0  0  0  0  0  0  0  0  0  0  0
   23.1684   -2.0495   49.6128 N   0  0  0  0  0  0  0  0  0  0  0  0
   20.7941    1.3740   54.7594 O   0  0  0  0  0  0  0  0  0  0  0  0
   22.0027    1.6252   52.7642 O   0  0  0  0  0  0  0  0  0  0  0  0
   19.7771   -0.5881   50.7517 O   0  0  0  0  0  0  0  0  0  0  0  0
   22.9582    0.8316   50.2225 O   0  0  0  0  0  0  0  0  0  0  0  0
   20.2429   -2.3473   49.3087 O   0  0  0  0  0  0  0  0  0  0  0  0
   19.4676   -3.0142   50.2871 C   0  0  2  0  0  0  0  0  0  0  0  0
   20.1401   -4.2912   50.7894 C   0  0  1  0  0  0  0  0  0  0  0  0
   20.2804   -5.3371   49.6495 C   0  0  2  0  0  0  0  0  0  0  0  0
   18.8539   -5.6134   49.0884 C   0  0  1  0  0  0  0  0  0  0  0  0
   18.2685   -4.2632   48.5587 C   0  0  1  0  0  0  0  0  0  0  0  0
   16.8568   -4.4027   48.0342 C   0  0  0  0  0  0  0  0  0  0  0  0
   18.9791   -6.6328   47.9797 N   0  0  0  0  0  0  0  0  0  0  0  0
   18.1707   -3.3401   49.6956 O   0  0  0  0  0  0  0  0  0  0  0  0
   21.4329   -3.9240   51.3104 O   0  0  0  0  0  0  0  0  0  0  0  0
   20.8177   -6.5457   50.2167 O   0  0  0  0  0  0  0  0  0  0  0  0
   16.7979   -5.2108   46.9090 O   0  0  0  0  0  0  0  0  0  0  0  0
   21.9239    1.2700   55.6263 C   0  0  1  0  0  0  0  0  0  0  0  0
   22.0412    2.5648   56.5076 C   0  0  1  0  0  0  0  0  0  0  0  0
   23.2817    2.4211   57.4610 C   0  0  2  0  0  0  0  0  0  0  0  0
   23.0839    1.1997   58.3714 C   0  0  1  0  0  0  0  0  0  0  0  0
   22.9806   -0.1014   57.4857 C   0  0  0  0  0  0  0  0  0  0  0  0
   21.7433    0.0470   56.5154 C   0  0  2  0  0  0  0  0  0  0  0  0
   24.2285    1.0890   59.2606 N   0  0  0  0  0  0  0  0  0  0  0  0
   21.6239   -1.1526   55.6456 N   0  0  0  0  0  0  0  0  0  0  0  0
   22.2283    3.7258   55.6483 O   0  0  0  0  0  0  0  0  0  0  0  0
   23.3794    3.5679   58.2632 O   0  0  0  0  0  0  0  0  0  0  0  0
  1  2  1  0  0  0  0
  1 12  1  1  0  0  0
  1 13  1  0  0  0  0
  2  3  1  0  0  0  0
  2 10  1  1  0  0  0
  4  3  1  1  0  0  0
  4  5  1  0  0  0  0
  4 14  1  0  0  0  0
  5  6  1  0  0  0  0
  5 13  1  6  0  0  0
  6  7  1  0  0  0  0
  6 15  1  6  0  0  0
  7  8  1  0  0  0  0
  7 11  1  6  0  0  0
  8 14  1  0  0  0  0
  8 16  1  1  0  0  0
  9 11  1  0  0  0  0
 17 16  1  6  0  0  0
 17 18  1  0  0  0  0
 17 24  1  0  0  0  0
 18 19  1  0  0  0  0
 18 25  1  6  0  0  0
 19 20  1  0  0  0  0
 19 26  1  1  0  0  0
 20 21  1  0  0  0  0
 20 23  1  6  0  0  0
 21 22  1  1  0  0  0
 21 24  1  0  0  0  0
 22 27  1  0  0  0  0
 28 12  1  6  0  0  0
 28 29  1  0  0  0  0
 28 33  1  0  0  0  0
 29 30  1  0  0  0  0
 29 36  1  6  0  0  0
 30 31  1  0  0  0  0
 30 37  1  1  0  0  0
 31 32  1  0  0  0  0
 31 34  1  1  0  0  0
 32 33  1  0  0  0  0
 33 35  1  6  0  0  0
M  END
>  <CHROM.1>
-169.12723644,71.99668438,86.05953523,-108.37910410,-65.27743760,75.76815977
20.96572821,-0.94422464,52.35852703,1.08657867,-0.86255409,0.48378731

>  <Name>
2oe5_lig

>  <RI>
0

>  <Rbt.Current_Directory>
/home/itssahil/PROJECTS/Mol_Feturizer/New_Systems/rnas/2oe5

>  <Rbt.Executable>
rbdock ($Id: //depot/dev/client3/rdock/2013.1/src/exe/rbdock.cxx#4 $)

>  <Rbt.Library>
libRbt.so (2013.1, Build901 2013/11/27)

>  <Rbt.Parameter_File>
/export/apps/rDock/src/rDock_2013.1_src/data/scripts/dock_solv.prm

>  <Rbt.Receptor>
prm/pocket_docking_8.prm

>  <SCORE>
-17.74

>  <SCORE.INTER>
-18.264

>  <SCORE.INTER.CONST>
1

>  <SCORE.INTER.POLAR>
-1.77341

>  <SCORE.INTER.ROT>
6

>  <SCORE.INTER.SOLV>
12.1326

>  <SCORE.INTER.VDW>
-17.9089

>  <SCORE.INTER.norm>
-0.493622

>  <SCORE.INTRA>
0.523986

>  <SCORE.INTRA.DIHEDRAL>
-4.78806

>  <SCORE.INTRA.DIHEDRAL.0>
16.2083

>  <SCORE.INTRA.POLAR>
0

>  <SCORE.INTRA.POLAR.0>
0

>  <SCORE.INTRA.REPUL>
0

>  <SCORE.INTRA.REPUL.0>
0

>  <SCORE.INTRA.SOLV>
-0.103413

>  <SCORE.INTRA.SOLV.lig_0>
-89.8095

>  <SCORE.INTRA.VDW>
2.96972

>  <SCORE.INTRA.VDW.0>
-3.19502

>  <SCORE.INTRA.norm>
0.0141618

>  <SCORE.RESTR>
0

>  <SCORE.RESTR.CAVITY>
0

>  <SCORE.RESTR.norm>
0

>  <SCORE.SYSTEM>
0

>  <SCORE.SYSTEM.CONST>
0

>  <SCORE.SYSTEM.DIHEDRAL>
0

>  <SCORE.SYSTEM.SOLV>
0

>  <SCORE.SYSTEM.norm>
0

>  <SCORE.heavy>
37

>  <SCORE.norm>
-0.479461

>  <RMSD>
2.414

$$$$
2oe5_lig
 OpenBabel11021811463D
libRbt.so/2013.1/901 2013/11/27
 37 40  0  0  0  0  0  0  0  0999 V2000
   21.6428    2.7208   54.4082 C   0  0  1  0  0  0  0  0  0  0  0  0
   20.5144    2.8289   53.3583 C   0  0  1  0  0  0  0  0  0  0  0  0
   20.2087    1.3992   52.7753 C   0  0  0  0  0  0  0  0  0  0  0  0
   21.5401    0.9179   52.1562 C   0  0  1  0  0  0  0  0  0  0  0  0
   22.6923    0.8172   53.2510 C   0  0  1  0  0  0  0  0  0  0  0  0
   24.0384    0.3277   52.6504 C   0  0  1  0  0  0  0  0  0  0  0  0
   23.7716   -1.0720   52.0273 C   0  0  1  0  0  0  0  0  0  0  0  0
   22.5976   -0.9358   50.9850 C   0  0  2  0  0  0  0  0  0  0  0  0
   25.2190   -3.0826   51.1757 C   0  0  0  0  0  0  0  0  0  0  0  0
   19.2901    3.3774   53.9859 N   0  0  0  0  0  0  0  0  0  0  0  0
   25.0253   -1.6034   51.3712 N   0  0  0  0  0  0  0  0  0  0  0  0
   21.2571    1.9103   55.5304 O   0  0  0  0  0  0  0  0  0  0  0  0
   22.8725    2.1435   53.8450 O   0  0  0  0  0  0  0  0  0  0  0  0
   21.3577   -0.4048   51.5838 O   0  0  0  0  0  0  0  0  0  0  0  0
   24.4522    1.2780   51.6636 O   0  0  0  0  0  0  0  0  0  0  0  0
   22.2835   -2.2031   50.4424 O   0  0  0  0  0  0  0  0  0  0  0  0
   21.8546   -2.0673   49.1005 C   0  0  2  0  0  0  0  0  0  0  0  0
   20.3374   -1.9226   48.9878 C   0  0  1  0  0  0  0  0  0  0  0  0
   19.6133   -3.2051   49.4818 C   0  0  2  0  0  0  0  0  0  0  0  0
   20.1476   -4.4000   48.6377 C   0  0  1  0  0  0  0  0  0  0  0  0
   21.6938   -4.4958   48.8527 C   0  0  1  0  0  0  0  0  0  0  0  0
   22.3317   -5.5966   48.0348 C   0  0  0  0  0  0  0  0  0  0  0  0
   19.4466   -5.6532   49.1089 N   0  0  0  0  0  0  0  0  0  0  0  0
   22.2932   -3.2496   48.3606 O   0  0  0  0  0  0  0  0  0  0  0  0
   19.9513   -0.7796   49.7765 O   0  0  0  0  0  0  0  0  0  0  0  0
   18.2033   -3.0402   49.2454 O   0  0  0  0  0  0  0  0  0  0  0  0
   23.6872   -5.7213   48.2987 O   0  0  0  0  0  0  0  0  0  0  0  0
   22.2692    1.7738   56.5283 C   0  0  1  0  0  0  0  0  0  0  0  0
   22.3425    3.0807   57.3963 C   0  0  1  0  0  0  0  0  0  0  0  0
   23.4522    2.9013   58.4940 C   0  0  2  0  0  0  0  0  0  0  0  0
   23.0890    1.7103   59.3936 C   0  0  1  0  0  0  0  0  0  0  0  0
   23.0298    0.3963   58.5229 C   0  0  0  0  0  0  0  0  0  0  0  0
   21.9256    0.5799   57.4088 C   0  0  2  0  0  0  0  0  0  0  0  0
   24.1129    1.5669   60.4154 N   0  0  0  0  0  0  0  0  0  0  0  0
   21.8534   -0.6317   56.5504 N   0  0  0  0  0  0  0  0  0  0  0  0
   22.6860    4.2130   56.5471 O   0  0  0  0  0  0  0  0  0  0  0  0
   23.5083    4.0596   59.2836 O   0  0  0  0  0  0  0  0  0  0  0  0
  1  2  1  0  0  0  0
  1 12  1  1  0  0  0
  1 13  1  0  0  0  0
  2  3  1  0  0  0  0
  2 10  1  1  0  0  0
  4  3  1  1  0  0  0
  4  5  1  0  0  0  0
  4 14  1  0  0  0  0
  5  6  1  0  0  0  0
  5 13  1  6  0  0  0
  6  7  1  0  0  0  0
  6 15  1  6  0  0  0
  7  8  1  0  0  0  0
  7 11  1  6  0  0  0
  8 14  1  0  0  0  0
  8 16  1  1  0  0  0
  9 11  1  0  0  0  0
 17 16  1  1  0  0  0
 17 18  1  0  0  0  0
 17 24  1  0  0  0  0
 18 19  1  0  0  0  0
 18 25  1  1  0  0  0
 19 20  1  0  0  0  0
 19 26  1  6  0  0  0
 20 21  1  0  0  0  0
 20 23  1  1  0  0  0
 21 22  1  6  0  0  0
 21 24  1  0  0  0  0
 22 27  1  0  0  0  0
 28 12  1  6  0  0  0
 28 29  1  0  0  0  0
 28 33  1  0  0  0  0
 29 30  1  0  0  0  0
 29 36  1  6  0  0  0
 30 31  1  0  0  0  0
 30 37  1  1  0  0  0
 31 32  1  0  0  0  0
 31 34  1  1  0  0  0
 32 33  1  0  0  0  0
 33 35  1  6  0  0  0
M  END
>  <CHROM.1>
179.73258311,156.07342880,-147.41830425,-92.17080399,-176.30439986,77.25198519
22.07851493,-0.33430618,52.92399491,1.42968430,-0.56336077,0.86958680

>  <Name>
2oe5_lig

>  <RI>
0

>  <Rbt.Current_Directory>
/home/itssahil/PROJECTS/Mol_Feturizer/New_Systems/rnas/2oe5

>  <Rbt.Executable>
rbdock ($Id: //depot/dev/client3/rdock/2013.1/src/exe/rbdock.cxx#4 $)

>  <Rbt.Library>
libRbt.so (2013.1, Build901 2013/11/27)

>  <Rbt.Parameter_File>
/export/apps/rDock/src/rDock_2013.1_src/data/scripts/dock_solv.prm

>  <Rbt.Receptor>
prm/pocket_docking_4.prm

>  <SCORE>
-14.8575

>  <SCORE.INTER>
-12.4631

>  <SCORE.INTER.CONST>
1

>  <SCORE.INTER.POLAR>
-1.5621

>  <SCORE.INTER.ROT>
6

>  <SCORE.INTER.SOLV>
8.85491

>  <SCORE.INTER.VDW>
-13.6534

>  <SCORE.INTER.norm>
-0.33684

>  <SCORE.INTRA>
-2.39438

>  <SCORE.INTRA.DIHEDRAL>
-6.22517

>  <SCORE.INTRA.DIHEDRAL.0>
16.2083

>  <SCORE.INTRA.POLAR>
0

>  <SCORE.INTRA.POLAR.0>
0

>  <SCORE.INTRA.REPUL>
0

>  <SCORE.INTRA.REPUL.0>
0

>  <SCORE.INTRA.SOLV>
-2.09224

>  <SCORE.INTRA.SOLV.lig_0>
-89.8095

>  <SCORE.INTRA.VDW>
1.76432

>  <SCORE.INTRA.VDW.0>
-3.19502

>  <SCORE.INTRA.norm>
-0.0647131

>  <SCORE.RESTR>
0

>  <SCORE.RESTR.CAVITY>
0

>  <SCORE.RESTR.norm>
0

>  <SCORE.SYSTEM>
0

>  <SCORE.SYSTEM.CONST>
0

>  <SCORE.SYSTEM.DIHEDRAL>
0

>  <SCORE.SYSTEM.SOLV>
0

>  <SCORE.SYSTEM.norm>
0

>  <SCORE.heavy>
37

>  <SCORE.norm>
-0.401553

>  <RMSD>
2.448

$$$$
2oe5_lig
 OpenBabel11021811463D
libRbt.so/2013.1/901 2013/11/27
 37 40  0  0  0  0  0  0  0  0999 V2000
   23.6138   -1.0382   53.8254 C   0  0  1  0  0  0  0  0  0  0  0  0
   22.9603    0.0770   52.9788 C   0  0  1  0  0  0  0  0  0  0  0  0
   21.7081   -0.5084   52.2262 C   0  0  0  0  0  0  0  0  0  0  0  0
   22.2577   -1.6595   51.3541 C   0  0  1  0  0  0  0  0  0  0  0  0
   22.9315   -2.7967   52.2422 C   0  0  1  0  0  0  0  0  0  0  0  0
   23.4845   -3.9677   51.3848 C   0  0  1  0  0  0  0  0  0  0  0  0
   22.2814   -4.5534   50.5921 C   0  0  1  0  0  0  0  0  0  0  0  0
   21.6181   -3.3883   49.7640 C   0  0  2  0  0  0  0  0  0  0  0  0
   21.8459   -6.8474   49.4044 C   0  0  0  0  0  0  0  0  0  0  0  0
   22.5323    1.1920   53.8545 N   0  0  0  0  0  0  0  0  0  0  0  0
   22.7425   -5.6727   49.6870 N   0  0  0  0  0  0  0  0  0  0  0  0
   22.7295   -1.5246   54.8483 O   0  0  0  0  0  0  0  0  0  0  0  0
   24.0227   -2.1897   53.0072 O   0  0  0  0  0  0  0  0  0  0  0  0
   21.1671   -2.2672   50.6111 O   0  0  0  0  0  0  0  0  0  0  0  0
   24.4884   -3.4394   50.5123 O   0  0  0  0  0  0  0  0  0  0  0  0
   20.4796   -3.8705   49.0779 O   0  0  0  0  0  0  0  0  0  0  0  0
   19.8621   -2.8201   48.3579 C   0  0  2  0  0  0  0  0  0  0  0  0
   18.3835   -3.0939   48.0855 C   0  0  1  0  0  0  0  0  0  0  0  0
   18.2025   -4.3323   47.1653 C   0  0  2  0  0  0  0  0  0  0  0  0
   18.9949   -4.0608   45.8523 C   0  0  1  0  0  0  0  0  0  0  0  0
   20.4973   -3.8394   46.2265 C   0  0  1  0  0  0  0  0  0  0  0  0
   21.3580   -3.5140   45.0262 C   0  0  0  0  0  0  0  0  0  0  0  0
   18.8227   -5.2595   44.9482 N   0  0  0  0  0  0  0  0  0  0  0  0
   20.5743   -2.6561   47.0916 O   0  0  0  0  0  0  0  0  0  0  0  0
   17.7397   -3.3022   49.3582 O   0  0  0  0  0  0  0  0  0  0  0  0
   16.8013   -4.4633   46.8644 O   0  0  0  0  0  0  0  0  0  0  0  0
   22.6952   -3.3783   45.3670 O   0  0  0  0  0  0  0  0  0  0  0  0
   22.5891   -0.6470   55.9657 C   0  0  1  0  0  0  0  0  0  0  0  0
   21.3535   -1.0807   56.8329 C   0  0  1  0  0  0  0  0  0  0  0  0
   21.2278   -0.1097   58.0617 C   0  0  2  0  0  0  0  0  0  0  0  0
   22.5045   -0.1979   58.9114 C   0  0  1  0  0  0  0  0  0  0  0  0
   23.7425    0.2517   58.0433 C   0  0  0  0  0  0  0  0  0  0  0  0
   23.8618   -0.7134   56.7989 C   0  0  2  0  0  0  0  0  0  0  0  0
   22.3679    0.6902   60.0541 N   0  0  0  0  0  0  0  0  0  0  0  0
   25.0066   -0.3089   55.9411 N   0  0  0  0  0  0  0  0  0  0  0  0
   20.1404   -0.9993   56.0308 O   0  0  0  0  0  0  0  0  0  0  0  0
   20.1362   -0.5049   58.8493 O   0  0  0  0  0  0  0  0  0  0  0  0
  1  2  1  0  0  0  0
  1 12  1  1  0  0  0
  1 13  1  0  0  0  0
  2  3  1  0  0  0  0
  2 10  1  1  0  0  0
  4  3  1  1  0  0  0
  4  5  1  0  0  0  0
  4 14  1  0  0  0  0
  5  6  1  0  0  0  0
  5 13  1  6  0  0  0
  6  7  1  0  0  0  0
  6 15  1  6  0  0  0
  7  8  1  0  0  0  0
  7 11  1  6  0  0  0
  8 14  1  0  0  0  0
  8 16  1  1  0  0  0
  9 11  1  0  0  0  0
 17 16  1  6  0  0  0
 17 18  1  0  0  0  0
 17 24  1  0  0  0  0
 18 19  1  0  0  0  0
 18 25  1  1  0  0  0
 19 20  1  0  0  0  0
 19 26  1  6  0  0  0
 20 21  1  0  0  0  0
 20 23  1  6  0  0  0
 21 22  1  6  0  0  0
 21 24  1  0  0  0  0
 22 27  1  0  0  0  0
 28 12  1  6  0  0  0
 28 29  1  0  0  0  0
 28 33  1  0  0  0  0
 29 30  1  0  0  0  0
 29 36  1  6  0  0  0
 30 31  1  0  0  0  0
 30 37  1  1  0  0  0
 31 32  1  0  0  0  0
 31 34  1  1  0  0  0
 32 33  1  0  0  0  0
 33 35  1  6  0  0  0
M  END
>  <CHROM.1>
-75.65187927,146.58815853,178.61565679,-156.38417968,-177.38173130,165.71597097
21.53707656,-2.36822720,51.71973365,-1.34395846,0.04053493,-1.93673645

>  <Name>
2oe5_lig

>  <RI>
0

>  <Rbt.Current_Directory>
/home/itssahil/PROJECTS/Mol_Feturizer/New_Systems/rnas/2oe5

>  <Rbt.Executable>
rbdock ($Id: //depot/dev/client3/rdock/2013.1/src/exe/rbdock.cxx#4 $)

>  <Rbt.Library>
libRbt.so (2013.1, Build901 2013/11/27)

>  <Rbt.Parameter_File>
/export/apps/rDock/src/rDock_2013.1_src/data/scripts/dock_solv.prm

>  <Rbt.Receptor>
prm/pocket_docking_5.prm

>  <SCORE>
-19.0654

>  <SCORE.INTER>
-15.9996

>  <SCORE.INTER.CONST>
1

>  <SCORE.INTER.POLAR>
-1.46436

>  <SCORE.INTER.ROT>
6

>  <SCORE.INTER.SOLV>
13.6384

>  <SCORE.INTER.VDW>
-17.9313

>  <SCORE.INTER.norm>
-0.432422

>  <SCORE.INTRA>
-3.0658

>  <SCORE.INTRA.DIHEDRAL>
-10.8688

>  <SCORE.INTRA.DIHEDRAL.0>
16.2083

>  <SCORE.INTRA.POLAR>
0

>  <SCORE.INTRA.POLAR.0>
0

>  <SCORE.INTRA.REPUL>
0

>  <SCORE.INTRA.REPUL.0>
0

>  <SCORE.INTRA.SOLV>
1.00704

>  <SCORE.INTRA.SOLV.lig_0>
-89.8095

>  <SCORE.INTRA.VDW>
1.86509

>  <SCORE.INTRA.VDW.0>
-3.19502

>  <SCORE.INTRA.norm>
-0.0828594

>  <SCORE.RESTR>
0

>  <SCORE.RESTR.CAVITY>
0

>  <SCORE.RESTR.norm>
0

>  <SCORE.SYSTEM>
0

>  <SCORE.SYSTEM.CONST>
0

>  <SCORE.SYSTEM.DIHEDRAL>
0

>  <SCORE.SYSTEM.SOLV>
0

>  <SCORE.SYSTEM.norm>
0

>  <SCORE.heavy>
37

>  <SCORE.norm>
-0.515282

>  <RMSD>
2.483

$$$$
2oe5_lig
 OpenBabel11021811463D
libRbt.so/2013.1/901 2013/11/27
 37 40  0  0  0  0  0  0  0  0999 V2000
   20.9060    2.4060   53.7985 C   0  0  1  0  0  0  0  0  0  0  0  0
   19.5754    2.6717   53.0594 C   0  0  1  0  0  0  0  0  0  0  0  0
   19.0517    1.3262   52.4328 C   0  0  0  0  0  0  0  0  0  0  0  0
   20.1705    0.8598   51.4746 C   0  0  1  0  0  0  0  0  0  0  0  0
   21.5350    0.5956   52.2522 C   0  0  1  0  0  0  0  0  0  0  0  0
   22.6718    0.1184   51.3077 C   0  0  1  0  0  0  0  0  0  0  0  0
   22.1785   -1.1946   50.6359 C   0  0  1  0  0  0  0  0  0  0  0  0
   20.8072   -0.8999   49.9176 C   0  0  2  0  0  0  0  0  0  0  0  0
   24.3165   -2.6152   50.1127 C   0  0  0  0  0  0  0  0  0  0  0  0
   18.5670    3.1996   54.0069 N   0  0  0  0  0  0  0  0  0  0  0  0
   23.2101   -1.7038   49.6555 N   0  0  0  0  0  0  0  0  0  0  0  0
   20.7377    1.4967   54.8985 O   0  0  0  0  0  0  0  0  0  0  0  0
   21.9328    1.8422   52.9093 O   0  0  0  0  0  0  0  0  0  0  0  0
   19.7758   -0.3857   50.8393 O   0  0  0  0  0  0  0  0  0  0  0  0
   22.9078    1.1509   50.3452 O   0  0  0  0  0  0  0  0  0  0  0  0
   20.2951   -2.0881   49.3473 O   0  0  0  0  0  0  0  0  0  0  0  0
   19.3466   -2.6778   50.2166 C   0  0  2  0  0  0  0  0  0  0  0  0
   19.9419   -3.8234   51.0343 C   0  0  1  0  0  0  0  0  0  0  0  0
   20.3854   -4.9960   50.1171 C   0  0  2  0  0  0  0  0  0  0  0  0
   19.1389   -5.4506   49.3012 C   0  0  1  0  0  0  0  0  0  0  0  0
   18.6314   -4.2297   48.4658 C   0  0  1  0  0  0  0  0  0  0  0  0
   17.3848   -4.5431   47.6687 C   0  0  0  0  0  0  0  0  0  0  0  0
   19.5594   -6.5941   48.4070 N   0  0  0  0  0  0  0  0  0  0  0  0
   18.2353   -3.1756   49.4073 O   0  0  0  0  0  0  0  0  0  0  0  0
   21.0636   -3.2943   51.7688 O   0  0  0  0  0  0  0  0  0  0  0  0
   20.8313   -6.0757   50.9577 O   0  0  0  0  0  0  0  0  0  0  0  0
   16.3806   -5.0761   48.4626 O   0  0  0  0  0  0  0  0  0  0  0  0
   21.8771    1.3952   55.7528 C   0  0  1  0  0  0  0  0  0  0  0  0
   21.9496    2.6485   56.6967 C   0  0  1  0  0  0  0  0  0  0  0  0
   23.2020    2.5076   57.6348 C   0  0  2  0  0  0  0  0  0  0  0  0
   23.0597    1.2358   58.4846 C   0  0  1  0  0  0  0  0  0  0  0  0
   23.0014   -0.0230   57.5359 C   0  0  0  0  0  0  0  0  0  0  0  0
   21.7519    0.1236   56.5810 C   0  0  2  0  0  0  0  0  0  0  0  0
   24.2145    1.1272   59.3607 N   0  0  0  0  0  0  0  0  0  0  0  0
   21.6737   -1.0354   55.6534 N   0  0  0  0  0  0  0  0  0  0  0  0
   22.0840    3.8572   55.8951 O   0  0  0  0  0  0  0  0  0  0  0  0
   23.2602    3.6164   58.4925 O   0  0  0  0  0  0  0  0  0  0  0  0
  1  2  1  0  0  0  0
  1 12  1  1  0  0  0
  1 13  1  0  0  0  0
  2  3  1  0  0  0  0
  2 10  1  1  0  0  0
  4  3  1  1  0  0  0
  4  5  1  0  0  0  0
  4 14  1  0  0  0  0
  5  6  1  0  0  0  0
  5 13  1  6  0  0  0
  6  7  1  0  0  0  0
  6 15  1  6  0  0  0
  7  8  1  0  0  0  0
  7 11  1  6  0  0  0
  8 14  1  0  0  0  0
  8 16  1  1  0  0  0
  9 11  1  0  0  0  0
 17 16  1  6  0  0  0
 17 18  1  0  0  0  0
 17 24  1  0  0  0  0
 18 19  1  0  0  0  0
 18 25  1  6  0  0  0
 19 20  1  0  0  0  0
 19 26  1  1  0  0  0
 20 21  1  0  0  0  0
 20 23  1  6  0  0  0
 21 22  1  1  0  0  0
 21 24  1  0  0  0  0
 22 27  1  0  0  0  0
 28 12  1  6  0  0  0
 28 29  1  0  0  0  0
 28 33  1  0  0  0  0
 29 30  1  0  0  0  0
 29 36  1  6  0  0  0
 30 31  1  0  0  0  0
 30 37  1  1  0  0  0
 31 32  1  0  0  0  0
 31 34  1  1  0  0  0
 32 33  1  0  0  0  0
 33 35  1  6  0  0  0
M  END
>  <CHROM.1>
-169.73431273,87.85599966,96.98836845,-99.40996000,52.86129434,77.24472252
20.95576142,-0.75961271,52.53525601,1.04552702,-0.94478180,0.42695322

>  <Name>
2oe5_lig

>  <RI>
0

>  <Rbt.Current_Directory>
/home/itssahil/PROJECTS/Mol_Feturizer/New_Systems/rnas/2oe5

>  <Rbt.Executable>
rbdock ($Id: //depot/dev/client3/rdock/2013.1/src/exe/rbdock.cxx#4 $)

>  <Rbt.Library>
libRbt.so (2013.1, Build901 2013/11/27)

>  <Rbt.Parameter_File>
/export/apps/rDock/src/rDock_2013.1_src/data/scripts/dock_solv.prm

>  <Rbt.Receptor>
prm/pocket_docking_4.prm

>  <SCORE>
-16.5629

>  <SCORE.INTER>
-18.5931

>  <SCORE.INTER.CONST>
1

>  <SCORE.INTER.POLAR>
-1.79733

>  <SCORE.INTER.ROT>
6

>  <SCORE.INTER.SOLV>
13.2409

>  <SCORE.INTER.VDW>
-18.4179

>  <SCORE.INTER.norm>
-0.502517

>  <SCORE.INTRA>
2.0302

>  <SCORE.INTRA.DIHEDRAL>
-3.37391

>  <SCORE.INTRA.DIHEDRAL.0>
16.2083

>  <SCORE.INTRA.POLAR>
0

>  <SCORE.INTRA.POLAR.0>
0

>  <SCORE.INTRA.REPUL>
0

>  <SCORE.INTRA.REPUL.0>
0

>  <SCORE.INTRA.SOLV>
-0.422092

>  <SCORE.INTRA.SOLV.lig_0>
-89.8095

>  <SCORE.INTRA.VDW>
3.9282

>  <SCORE.INTRA.VDW.0>
-3.19502

>  <SCORE.INTRA.norm>
0.0548703

>  <SCORE.RESTR>
0

>  <SCORE.RESTR.CAVITY>
0

>  <SCORE.RESTR.norm>
0

>  <SCORE.SYSTEM>
0

>  <SCORE.SYSTEM.CONST>
0

>  <SCORE.SYSTEM.DIHEDRAL>
0

>  <SCORE.SYSTEM.SOLV>
0

>  <SCORE.SYSTEM.norm>
0

>  <SCORE.heavy>
37

>  <SCORE.norm>
-0.447646

>  <RMSD>
2.491

$$$$
2oe5_lig
 OpenBabel11021811463D
libRbt.so/2013.1/901 2013/11/27
 37 40  0  0  0  0  0  0  0  0999 V2000
   20.9512    2.4253   53.7374 C   0  0  1  0  0  0  0  0  0  0  0  0
   19.6306    2.7125   52.9884 C   0  0  1  0  0  0  0  0  0  0  0  0
   19.0535    1.3642   52.4173 C   0  0  0  0  0  0  0  0  0  0  0  0
   20.1515    0.8158   51.4785 C   0  0  1  0  0  0  0  0  0  0  0  0
   21.5061    0.5304   52.2658 C   0  0  1  0  0  0  0  0  0  0  0  0
   22.6217   -0.0288   51.3411 C   0  0  1  0  0  0  0  0  0  0  0  0
   22.0762   -1.3478   50.7235 C   0  0  1  0  0  0  0  0  0  0  0  0
   20.7162   -1.0293   49.9942 C   0  0  2  0  0  0  0  0  0  0  0  0
   23.0745   -3.4074   49.4490 C   0  0  0  0  0  0  0  0  0  0  0  0
   18.6453    3.3175   53.9140 N   0  0  0  0  0  0  0  0  0  0  0  0
   23.0853   -1.9363   49.7643 N   0  0  0  0  0  0  0  0  0  0  0  0
   20.7496    1.5688   54.8734 O   0  0  0  0  0  0  0  0  0  0  0  0
   21.9535    1.7863   52.8715 O   0  0  0  0  0  0  0  0  0  0  0  0
   19.7073   -0.4381   50.8945 O   0  0  0  0  0  0  0  0  0  0  0  0
   22.8959    0.9537   50.3374 O   0  0  0  0  0  0  0  0  0  0  0  0
   20.1570   -2.2187   49.4730 O   0  0  0  0  0  0  0  0  0  0  0  0
   19.2327   -2.7682   50.3932 C   0  0  2  0  0  0  0  0  0  0  0  0
   19.8028   -3.9744   51.1385 C   0  0  1  0  0  0  0  0  0  0  0  0
   20.0994   -5.1472   50.1640 C   0  0  2  0  0  0  0  0  0  0  0  0
   18.7709   -5.4932   49.4285 C   0  0  1  0  0  0  0  0  0  0  0  0
   18.2920   -4.2172   48.6610 C   0  0  1  0  0  0  0  0  0  0  0  0
   16.9744   -4.4230   47.9476 C   0  0  0  0  0  0  0  0  0  0  0  0
   19.0482   -6.6360   48.4793 N   0  0  0  0  0  0  0  0  0  0  0  0
   18.0361   -3.1665   49.6534 O   0  0  0  0  0  0  0  0  0  0  0  0
   21.0068   -3.5434   51.8037 O   0  0  0  0  0  0  0  0  0  0  0  0
   20.5270   -6.2782   50.9445 O   0  0  0  0  0  0  0  0  0  0  0  0
   17.0670   -5.3833   46.9516 O   0  0  0  0  0  0  0  0  0  0  0  0
   21.9001    1.4215   55.7061 C   0  0  1  0  0  0  0  0  0  0  0  0
   22.0951    2.7120   56.5799 C   0  0  1  0  0  0  0  0  0  0  0  0
   23.3573    2.5209   57.4957 C   0  0  2  0  0  0  0  0  0  0  0  0
   23.1391    1.3097   58.4151 C   0  0  1  0  0  0  0  0  0  0  0  0
   22.9577    0.0123   57.5364 C   0  0  0  0  0  0  0  0  0  0  0  0
   21.6984    0.2080   56.6036 C   0  0  2  0  0  0  0  0  0  0  0  0
   24.3049    1.1552   59.2695 N   0  0  0  0  0  0  0  0  0  0  0  0
   21.5054   -0.9873   55.7411 N   0  0  0  0  0  0  0  0  0  0  0  0
   22.3018    3.8634   55.7121 O   0  0  0  0  0  0  0  0  0  0  0  0
   23.5245    3.6642   58.2915 O   0  0  0  0  0  0  0  0  0  0  0  0
  1  2  1  0  0  0  0
  1 12  1  1  0  0  0
  1 13  1  0  0  0  0
  2  3  1  0  0  0  0
  2 10  1  1  0  0  0
  4  3  1  1  0  0  0
  4  5  1  0  0  0  0
  4 14  1  0  0  0  0
  5  6  1  0  0  0  0
  5 13  1  6  0  0  0
  6  7  1  0  0  0  0
  6 15  1  6  0  0  0
  7  8  1  0  0  0  0
  7 11  1  6  0  0  0
  8 14  1  0  0  0  0
  8 16  1  1  0  0  0
  9 11  1  0  0  0  0
 17 16  1  6  0  0  0
 17 18  1  0  0  0  0
 17 24  1  0  0  0  0
 18 19  1  0  0  0  0
 18 25  1  6  0  0  0
 19 20  1  0  0  0  0
 19 26  1  1  0  0  0
 20 21  1  0  0  0  0
 20 23  1  6  0  0  0
 21 22  1  1  0  0  0
 21 24  1  0  0  0  0
 22 27  1  0  0  0  0
 28 12  1  6  0  0  0
 28 29  1  0  0  0  0
 28 33  1  0  0  0  0
 29 30  1  0  0  0  0
 29 36  1  6  0  0  0
 30 31  1  0  0  0  0
 30 37  1  1  0  0  0
 31 32  1  0  0  0  0
 31 34  1  1  0  0  0
 32 33  1  0  0  0  0
 33 35  1  6  0  0  0
M  END
>  <CHROM.1>
-171.76418616,156.11193592,94.30890541,-103.69522392,-63.74878201,76.07839267
20.87698562,-0.82752213,52.48880099,0.94908140,-1.00783165,0.30685570

>  <Name>
2oe5_lig

>  <RI>
0

>  <Rbt.Current_Directory>
/home/itssahil/PROJECTS/Mol_Feturizer/New_Systems/rnas/2oe5

>  <Rbt.Executable>
rbdock ($Id: //depot/dev/client3/rdock/2013.1/src/exe/rbdock.cxx#4 $)

>  <Rbt.Library>
libRbt.so (2013.1, Build901 2013/11/27)

>  <Rbt.Parameter_File>
/export/apps/rDock/src/rDock_2013.1_src/data/scripts/dock_solv.prm

>  <Rbt.Receptor>
prm/pocket_docking_4.prm

>  <SCORE>
-16.786

>  <SCORE.INTER>
-18.2853

>  <SCORE.INTER.CONST>
1

>  <SCORE.INTER.POLAR>
-1.71484

>  <SCORE.INTER.ROT>
6

>  <SCORE.INTER.SOLV>
13.0771

>  <SCORE.INTER.VDW>
-18.4331

>  <SCORE.INTER.norm>
-0.494196

>  <SCORE.INTRA>
1.49929

>  <SCORE.INTRA.DIHEDRAL>
-3.78999

>  <SCORE.INTRA.DIHEDRAL.0>
16.2083

>  <SCORE.INTRA.POLAR>
0

>  <SCORE.INTRA.POLAR.0>
0

>  <SCORE.INTRA.REPUL>
0

>  <SCORE.INTRA.REPUL.0>
0

>  <SCORE.INTRA.SOLV>
-0.116311

>  <SCORE.INTRA.SOLV.lig_0>
-89.8095

>  <SCORE.INTRA.VDW>
3.45244

>  <SCORE.INTRA.VDW.0>
-3.19502

>  <SCORE.INTRA.norm>
0.0405213

>  <SCORE.RESTR>
0

>  <SCORE.RESTR.CAVITY>
0

>  <SCORE.RESTR.norm>
0

>  <SCORE.SYSTEM>
0

>  <SCORE.SYSTEM.CONST>
0

>  <SCORE.SYSTEM.DIHEDRAL>
0

>  <SCORE.SYSTEM.SOLV>
0

>  <SCORE.SYSTEM.norm>
0

>  <SCORE.heavy>
37

>  <SCORE.norm>
-0.453675

>  <RMSD>
2.503

$$$$
2oe5_lig
 OpenBabel11021811463D
libRbt.so/2013.1/901 2013/11/27
 37 40  0  0  0  0  0  0  0  0999 V2000
   20.4498    1.7588   54.1460 C   0  0  1  0  0  0  0  0  0  0  0  0
   19.3546    2.2905   53.1947 C   0  0  1  0  0  0  0  0  0  0  0  0
   18.4219    1.0998   52.7595 C   0  0  0  0  0  0  0  0  0  0  0  0
   19.3557    0.0824   52.0664 C   0  0  1  0  0  0  0  0  0  0  0  0
   20.4805   -0.4510   53.0597 C   0  0  1  0  0  0  0  0  0  0  0  0
   21.4264   -1.4813   52.3844 C   0  0  1  0  0  0  0  0  0  0  0  0
   20.5365   -2.6626   51.9034 C   0  0  1  0  0  0  0  0  0  0  0  0
   19.4126   -2.0860   50.9614 C   0  0  2  0  0  0  0  0  0  0  0  0
   22.6764   -4.1681   51.7730 C   0  0  0  0  0  0  0  0  0  0  0  0
   18.5463    3.3244   53.8812 N   0  0  0  0  0  0  0  0  0  0  0  0
   21.3752   -3.6943   51.1846 N   0  0  0  0  0  0  0  0  0  0  0  0
   19.8952    1.2269   55.3603 O   0  0  0  0  0  0  0  0  0  0  0  0
   21.2586    0.6989   53.5254 O   0  0  0  0  0  0  0  0  0  0  0  0
   18.5796   -1.0626   51.6222 O   0  0  0  0  0  0  0  0  0  0  0  0
   22.0797   -0.8292   51.2907 O   0  0  0  0  0  0  0  0  0  0  0  0
   18.5438   -3.1244   50.5538 O   0  0  0  0  0  0  0  0  0  0  0  0
   19.2078   -3.9918   49.6539 C   0  0  2  0  0  0  0  0  0  0  0  0
   19.2249   -3.4454   48.2268 C   0  0  1  0  0  0  0  0  0  0  0  0
   17.7868   -3.3399   47.6491 C   0  0  2  0  0  0  0  0  0  0  0  0
   17.1474   -4.7583   47.7209 C   0  0  1  0  0  0  0  0  0  0  0  0
   17.1320   -5.2109   49.2179 C   0  0  1  0  0  0  0  0  0  0  0  0
   16.5760   -6.6053   49.4024 C   0  0  0  0  0  0  0  0  0  0  0  0
   15.7478   -4.6670   47.1580 N   0  0  0  0  0  0  0  0  0  0  0  0
   18.5236   -5.2838   49.6787 O   0  0  0  0  0  0  0  0  0  0  0  0
   19.8581   -2.1512   48.2659 O   0  0  0  0  0  0  0  0  0  0  0  0
   17.8877   -2.9255   46.2746 O   0  0  0  0  0  0  0  0  0  0  0  0
   17.2319   -7.5353   48.6102 O   0  0  0  0  0  0  0  0  0  0  0  0
   20.8272    1.1359   56.4381 C   0  0  1  0  0  0  0  0  0  0  0  0
   20.9129    2.5137   57.1872 C   0  0  1  0  0  0  0  0  0  0  0  0
   21.9330    2.3848   58.3751 C   0  0  2  0  0  0  0  0  0  0  0  0
   21.4436    1.3030   59.3498 C   0  0  1  0  0  0  0  0  0  0  0  0
   21.3718   -0.0828   58.5998 C   0  0  0  0  0  0  0  0  0  0  0  0
   20.3585    0.0485   57.3955 C   0  0  2  0  0  0  0  0  0  0  0  0
   22.3854    1.2069   60.4529 N   0  0  0  0  0  0  0  0  0  0  0  0
   20.2785   -1.2336   56.6474 N   0  0  0  0  0  0  0  0  0  0  0  0
   21.3761    3.5428   56.2664 O   0  0  0  0  0  0  0  0  0  0  0  0
   21.9988    3.6083   59.0585 O   0  0  0  0  0  0  0  0  0  0  0  0
  1  2  1  0  0  0  0
  1 12  1  1  0  0  0
  1 13  1  0  0  0  0
  2  3  1  0  0  0  0
  2 10  1  1  0  0  0
  4  3  1  1  0  0  0
  4  5  1  0  0  0  0
  4 14  1  0  0  0  0
  5  6  1  0  0  0  0
  5 13  1  6  0  0  0
  6  7  1  0  0  0  0
  6 15  1  6  0  0  0
  7  8  1  0  0  0  0
  7 11  1  6  0  0  0
  8 14  1  0  0  0  0
  8 16  1  1  0  0  0
  9 11  1  0  0  0  0
 17 16  1  1  0  0  0
 17 18  1  0  0  0  0
 17 24  1  0  0  0  0
 18 19  1  0  0  0  0
 18 25  1  1  0  0  0
 19 20  1  0  0  0  0
 19 26  1  6  0  0  0
 20 21  1  0  0  0  0
 20 23  1  1  0  0  0
 21 22  1  6  0  0  0
 21 24  1  0  0  0  0
 22 27  1  0  0  0  0
 28 12  1  6  0  0  0
 28 29  1  0  0  0  0
 28 33  1  0  0  0  0
 29 30  1  0  0  0  0
 29 36  1  6  0  0  0
 30 31  1  0  0  0  0
 30 37  1  1  0  0  0
 31 32  1  0  0  0  0
 31 34  1  1  0  0  0
 32 33  1  0  0  0  0
 33 35  1  6  0  0  0
M  END
>  <CHROM.1>
-160.24021090,46.67919803,-70.33902382,-81.29426999,53.99025570,84.52123966
19.77599699,-1.22117297,52.69492558,0.73740332,-1.18401290,0.15410271

>  <Name>
2oe5_lig

>  <RI>
0

>  <Rbt.Current_Directory>
/home/itssahil/PROJECTS/Mol_Feturizer/New_Systems/rnas/2oe5

>  <Rbt.Executable>
rbdock ($Id: //depot/dev/client3/rdock/2013.1/src/exe/rbdock.cxx#4 $)

>  <Rbt.Library>
libRbt.so (2013.1, Build901 2013/11/27)

>  <Rbt.Parameter_File>
/export/apps/rDock/src/rDock_2013.1_src/data/scripts/dock_solv.prm

>  <Rbt.Receptor>
prm/pocket_docking_3.prm

>  <SCORE>
-18.3505

>  <SCORE.INTER>
-16.3599

>  <SCORE.INTER.CONST>
1

>  <SCORE.INTER.POLAR>
-1.2883

>  <SCORE.INTER.ROT>
6

>  <SCORE.INTER.SOLV>
20.1576

>  <SCORE.INTER.VDW>
-20.9315

>  <SCORE.INTER.norm>
-0.442159

>  <SCORE.INTRA>
-1.99888

>  <SCORE.INTRA.DIHEDRAL>
-8.99471

>  <SCORE.INTRA.DIHEDRAL.0>
16.2083

>  <SCORE.INTRA.POLAR>
0

>  <SCORE.INTRA.POLAR.0>
0

>  <SCORE.INTRA.REPUL>
0

>  <SCORE.INTRA.REPUL.0>
0

>  <SCORE.INTRA.SOLV>
0.348881

>  <SCORE.INTRA.SOLV.lig_0>
-89.8095

>  <SCORE.INTRA.VDW>
2.32404

>  <SCORE.INTRA.VDW.0>
-3.19502

>  <SCORE.INTRA.norm>
-0.0540238

>  <SCORE.RESTR>
0.00828845

>  <SCORE.RESTR.CAVITY>
0.00828845

>  <SCORE.RESTR.norm>
0.000224012

>  <SCORE.SYSTEM>
0

>  <SCORE.SYSTEM.CONST>
0

>  <SCORE.SYSTEM.DIHEDRAL>
0

>  <SCORE.SYSTEM.SOLV>
0

>  <SCORE.SYSTEM.norm>
0

>  <SCORE.heavy>
37

>  <SCORE.norm>
-0.495959

>  <RMSD>
2.560

$$$$
2oe5_lig
 OpenBabel11021811463D
libRbt.so/2013.1/901 2013/11/27
 37 40  0  0  0  0  0  0  0  0999 V2000
   21.0373    0.3922   56.2124 C   0  0  1  0  0  0  0  0  0  0  0  0
   20.2878    1.3173   55.2276 C   0  0  1  0  0  0  0  0  0  0  0  0
   19.6145    0.4439   54.1046 C   0  0  0  0  0  0  0  0  0  0  0  0
   20.7770   -0.3145   53.4258 C   0  0  1  0  0  0  0  0  0  0  0  0
   21.5408   -1.2588   54.4560 C   0  0  1  0  0  0  0  0  0  0  0  0
   22.7095   -2.0366   53.7917 C   0  0  1  0  0  0  0  0  0  0  0  0
   22.0912   -2.8877   52.6463 C   0  0  1  0  0  0  0  0  0  0  0  0
   21.3092   -1.9223   51.6770 C   0  0  2  0  0  0  0  0  0  0  0  0
   22.8288   -4.5333   50.7461 C   0  0  0  0  0  0  0  0  0  0  0  0
   19.2450    2.0839   55.9475 N   0  0  0  0  0  0  0  0  0  0  0  0
   23.1732   -3.6428   51.9089 N   0  0  0  0  0  0  0  0  0  0  0  0
   20.1444   -0.5057   56.8918 O   0  0  0  0  0  0  0  0  0  0  0  0
   22.0603   -0.4228   55.5402 O   0  0  0  0  0  0  0  0  0  0  0  0
   20.2520   -1.1540   52.3626 O   0  0  0  0  0  0  0  0  0  0  0  0
   23.6494   -1.0792   53.2937 O   0  0  0  0  0  0  0  0  0  0  0  0
   20.6791   -2.6695   50.6553 O   0  0  0  0  0  0  0  0  0  0  0  0
   20.1237   -1.8003   49.6862 C   0  0  2  0  0  0  0  0  0  0  0  0
   19.0679   -2.4911   48.8238 C   0  0  1  0  0  0  0  0  0  0  0  0
   19.6934   -3.6366   47.9814 C   0  0  2  0  0  0  0  0  0  0  0  0
   20.8330   -3.0166   47.1197 C   0  0  1  0  0  0  0  0  0  0  0  0
   21.8828   -2.3773   48.0869 C   0  0  1  0  0  0  0  0  0  0  0  0
   23.0161   -1.6955   47.3532 C   0  0  0  0  0  0  0  0  0  0  0  0
   21.4466   -4.1233   46.2934 N   0  0  0  0  0  0  0  0  0  0  0  0
   21.2096   -1.3111   48.8381 O   0  0  0  0  0  0  0  0  0  0  0  0
   18.0516   -3.0017   49.7093 O   0  0  0  0  0  0  0  0  0  0  0  0
   18.6701   -4.1657   47.1188 O   0  0  0  0  0  0  0  0  0  0  0  0
   24.0187   -1.2803   48.2163 O   0  0  0  0  0  0  0  0  0  0  0  0
   20.0675   -0.2976   58.3023 C   0  0  1  0  0  0  0  0  0  0  0  0
   21.5129   -0.1570   58.9006 C   0  0  1  0  0  0  0  0  0  0  0  0
   21.4017    0.0842   60.4491 C   0  0  2  0  0  0  0  0  0  0  0  0
   20.6143    1.3778   60.7065 C   0  0  1  0  0  0  0  0  0  0  0  0
   19.1584    1.2297   60.1177 C   0  0  0  0  0  0  0  0  0  0  0  0
   19.2678    0.9717   58.5634 C   0  0  2  0  0  0  0  0  0  0  0  0
   20.5349    1.5993   62.1410 N   0  0  0  0  0  0  0  0  0  0  0  0
   17.9141    0.8040   57.9725 N   0  0  0  0  0  0  0  0  0  0  0  0
   22.2636   -1.3814   58.6582 O   0  0  0  0  0  0  0  0  0  0  0  0
   22.6903    0.2289   60.9848 O   0  0  0  0  0  0  0  0  0  0  0  0
  1  2  1  0  0  0  0
  1 12  1  6  0  0  0
  1 13  1  0  0  0  0
  2  3  1  0  0  0  0
  2 10  1  1  0  0  0
  4  3  1  1  0  0  0
  4  5  1  0  0  0  0
  4 14  1  0  0  0  0
  5  6  1  0  0  0  0
  5 13  1  1  0  0  0
  6  7  1  0  0  0  0
  6 15  1  6  0  0  0
  7  8  1  0  0  0  0
  7 11  1  6  0  0  0
  8 14  1  0  0  0  0
  8 16  1  6  0  0  0
  9 11  1  0  0  0  0
 17 16  1  1  0  0  0
 17 18  1  0  0  0  0
 17 24  1  0  0  0  0
 18 19  1  0  0  0  0
 18 25  1  1  0  0  0
 19 20  1  0  0  0  0
 19 26  1  6  0  0  0
 20 21  1  0  0  0  0
 20 23  1  1  0  0  0
 21 22  1  6  0  0  0
 21 24  1  0  0  0  0
 22 27  1  0  0  0  0
 28 12  1  6  0  0  0
 28 29  1  0  0  0  0
 28 33  1  0  0  0  0
 29 30  1  0  0  0  0
 29 36  1  1  0  0  0
 30 31  1  0  0  0  0
 30 37  1  6  0  0  0
 31 32  1  0  0  0  0
 31 34  1  1  0  0  0
 32 33  1  0  0  0  0
 33 35  1  1  0  0  0
M  END
>  <CHROM.1>
-115.40973473,-179.55115148,-172.36623739,-161.51055826,-172.53759490,-46.85839002
20.96127989,-1.17700352,53.60311657,-1.60823930,0.25312161,-1.86899340

>  <Name>
2oe5_lig

>  <RI>
0

>  <Rbt.Current_Directory>
/home/itssahil/PROJECTS/Mol_Feturizer/New_Systems/rnas/2oe5

>  <Rbt.Executable>
rbdock ($Id: //depot/dev/client3/rdock/2013.1/src/exe/rbdock.cxx#4 $)

>  <Rbt.Library>
libRbt.so (2013.1, Build901 2013/11/27)

>  <Rbt.Parameter_File>
/export/apps/rDock/src/rDock_2013.1_src/data/scripts/dock_solv.prm

>  <Rbt.Receptor>
prm/pocket_docking_5.prm

>  <SCORE>
-16.4289

>  <SCORE.INTER>
-16.275

>  <SCORE.INTER.CONST>
1

>  <SCORE.INTER.POLAR>
-1.76605

>  <SCORE.INTER.ROT>
6

>  <SCORE.INTER.SOLV>
16.2286

>  <SCORE.INTER.VDW>
-17.9727

>  <SCORE.INTER.norm>
-0.439865

>  <SCORE.INTRA>
-0.159601

>  <SCORE.INTRA.DIHEDRAL>
-6.256

>  <SCORE.INTRA.DIHEDRAL.0>
16.2083

>  <SCORE.INTRA.POLAR>
0

>  <SCORE.INTRA.POLAR.0>
0

>  <SCORE.INTRA.REPUL>
0

>  <SCORE.INTRA.REPUL.0>
0

>  <SCORE.INTRA.SOLV>
1.64813

>  <SCORE.INTRA.SOLV.lig_0>
-89.8095

>  <SCORE.INTRA.VDW>
2.14433

>  <SCORE.INTRA.VDW.0>
-3.19502

>  <SCORE.INTRA.norm>
-0.00431355

>  <SCORE.RESTR>
0.00565393

>  <SCORE.RESTR.CAVITY>
0.00565393

>  <SCORE.RESTR.norm>
0.000152809

>  <SCORE.SYSTEM>
0

>  <SCORE.SYSTEM.CONST>
0

>  <SCORE.SYSTEM.DIHEDRAL>
0

>  <SCORE.SYSTEM.SOLV>
0

>  <SCORE.SYSTEM.norm>
0

>  <SCORE.heavy>
37

>  <SCORE.norm>
-0.444025

>  <RMSD>
2.653

$$$$
2oe5_lig
 OpenBabel11021811463D
libRbt.so/2013.1/901 2013/11/27
 37 40  0  0  0  0  0  0  0  0999 V2000
   19.9432    1.5855   55.6151 C   0  0  1  0  0  0  0  0  0  0  0  0
   19.1996    1.9297   54.3052 C   0  0  1  0  0  0  0  0  0  0  0  0
   18.8237    0.5976   53.5559 C   0  0  0  0  0  0  0  0  0  0  0  0
   20.1685   -0.1172   53.2951 C   0  0  1  0  0  0  0  0  0  0  0  0
   20.9230   -0.4597   54.6551 C   0  0  1  0  0  0  0  0  0  0  0  0
   22.2750   -1.1857   54.4155 C   0  0  1  0  0  0  0  0  0  0  0  0
   21.9525   -2.4951   53.6407 C   0  0  1  0  0  0  0  0  0  0  0  0
   21.1688   -2.1147   52.3276 C   0  0  2  0  0  0  0  0  0  0  0  0
   24.0722   -2.8435   52.1413 C   0  0  0  0  0  0  0  0  0  0  0  0
   17.9652    2.6896   54.6088 N   0  0  0  0  0  0  0  0  0  0  0  0
   23.2258   -3.2433   53.3192 N   0  0  0  0  0  0  0  0  0  0  0  0
   19.1154    0.8409   56.5235 O   0  0  0  0  0  0  0  0  0  0  0  0
   21.1593    0.7948   55.3726 O   0  0  0  0  0  0  0  0  0  0  0  0
   19.9247   -1.3683   52.5980 O   0  0  0  0  0  0  0  0  0  0  0  0
   23.1156   -0.3122   53.6550 O   0  0  0  0  0  0  0  0  0  0  0  0
   20.8023   -3.2867   51.6267 O   0  0  0  0  0  0  0  0  0  0  0  0
   21.1897   -3.1854   50.2693 C   0  0  2  0  0  0  0  0  0  0  0  0
   20.1175   -2.5195   49.4077 C   0  0  1  0  0  0  0  0  0  0  0  0
   18.8224   -3.3762   49.3620 C   0  0  2  0  0  0  0  0  0  0  0  0
   19.2105   -4.7844   48.8217 C   0  0  1  0  0  0  0  0  0  0  0  0
   20.2727   -5.4022   49.7894 C   0  0  1  0  0  0  0  0  0  0  0  0
   20.7639   -6.7574   49.3317 C   0  0  0  0  0  0  0  0  0  0  0  0
   17.9559   -5.6255   48.7706 N   0  0  0  0  0  0  0  0  0  0  0  0
   21.4558   -4.5337   49.7701 O   0  0  0  0  0  0  0  0  0  0  0  0
   19.8531   -1.2200   49.9725 O   0  0  0  0  0  0  0  0  0  0  0  0
   17.9032   -2.7467   48.4510 O   0  0  0  0  0  0  0  0  0  0  0  0
   21.3480   -6.7014   48.0754 O   0  0  0  0  0  0  0  0  0  0  0  0
   19.4377    1.0346   57.9009 C   0  0  1  0  0  0  0  0  0  0  0  0
   18.1633    1.5119   58.6852 C   0  0  1  0  0  0  0  0  0  0  0  0
   18.5393    1.7050   60.1984 C   0  0  2  0  0  0  0  0  0  0  0  0
   19.0232    0.3665   60.7763 C   0  0  1  0  0  0  0  0  0  0  0  0
   20.3114   -0.1043   59.9972 C   0  0  0  0  0  0  0  0  0  0  0  0
   19.9399   -0.2843   58.4727 C   0  0  2  0  0  0  0  0  0  0  0  0
   19.3497    0.5542   62.1804 N   0  0  0  0  0  0  0  0  0  0  0  0
   21.1358   -0.7074   57.6975 N   0  0  0  0  0  0  0  0  0  0  0  0
   17.7005    2.7808   58.1400 O   0  0  0  0  0  0  0  0  0  0  0  0
   17.3990    2.1136   60.9062 O   0  0  0  0  0  0  0  0  0  0  0  0
  1  2  1  0  0  0  0
  1 12  1  1  0  0  0
  1 13  1  0  0  0  0
  2  3  1  0  0  0  0
  2 10  1  1  0  0  0
  4  3  1  1  0  0  0
  4  5  1  0  0  0  0
  4 14  1  0  0  0  0
  5  6  1  0  0  0  0
  5 13  1  6  0  0  0
  6  7  1  0  0  0  0
  6 15  1  6  0  0  0
  7  8  1  0  0  0  0
  7 11  1  6  0  0  0
  8 14  1  0  0  0  0
  8 16  1  1  0  0  0
  9 11  1  0  0  0  0
 17 16  1  1  0  0  0
 17 18  1  0  0  0  0
 17 24  1  0  0  0  0
 18 19  1  0  0  0  0
 18 25  1  1  0  0  0
 19 20  1  0  0  0  0
 19 26  1  6  0  0  0
 20 21  1  0  0  0  0
 20 23  1  1  0  0  0
 21 22  1  6  0  0  0
 21 24  1  0  0  0  0
 22 27  1  0  0  0  0
 28 12  1  6  0  0  0
 28 29  1  0  0  0  0
 28 33  1  0  0  0  0
 29 30  1  0  0  0  0
 29 36  1  6  0  0  0
 30 31  1  0  0  0  0
 30 37  1  1  0  0  0
 31 32  1  0  0  0  0
 31 34  1  1  0  0  0
 32 33  1  0  0  0  0
 33 35  1  6  0  0  0
M  END
>  <CHROM.1>
-151.43807963,-80.91129374,-129.61582094,-87.95288947,59.36083974,124.54412985
20.10601808,-1.27586809,53.97197695,1.72131915,-0.62104900,1.12560877

>  <Name>
2oe5_lig

>  <RI>
0

>  <Rbt.Current_Directory>
/home/itssahil/PROJECTS/Mol_Feturizer/New_Systems/rnas/2oe5

>  <Rbt.Executable>
rbdock ($Id: //depot/dev/client3/rdock/2013.1/src/exe/rbdock.cxx#4 $)

>  <Rbt.Library>
libRbt.so (2013.1, Build901 2013/11/27)

>  <Rbt.Parameter_File>
/export/apps/rDock/src/rDock_2013.1_src/data/scripts/dock_solv.prm

>  <Rbt.Receptor>
prm/pocket_docking_5.prm

>  <SCORE>
-9.67035

>  <SCORE.INTER>
-13.2085

>  <SCORE.INTER.CONST>
1

>  <SCORE.INTER.POLAR>
-1.31274

>  <SCORE.INTER.ROT>
6

>  <SCORE.INTER.SOLV>
15.8654

>  <SCORE.INTER.VDW>
-17.3184

>  <SCORE.INTER.norm>
-0.356987

>  <SCORE.INTRA>
3.53816

>  <SCORE.INTRA.DIHEDRAL>
4.5116

>  <SCORE.INTRA.DIHEDRAL.0>
16.2083

>  <SCORE.INTRA.POLAR>
0

>  <SCORE.INTRA.POLAR.0>
0

>  <SCORE.INTRA.REPUL>
0

>  <SCORE.INTRA.REPUL.0>
0

>  <SCORE.INTRA.SOLV>
1.53109

>  <SCORE.INTRA.SOLV.lig_0>
-89.8095

>  <SCORE.INTRA.VDW>
0.516817

>  <SCORE.INTRA.VDW.0>
-3.19502

>  <SCORE.INTRA.norm>
0.095626

>  <SCORE.RESTR>
0

>  <SCORE.RESTR.CAVITY>
0

>  <SCORE.RESTR.norm>
0

>  <SCORE.SYSTEM>
0

>  <SCORE.SYSTEM.CONST>
0

>  <SCORE.SYSTEM.DIHEDRAL>
0

>  <SCORE.SYSTEM.SOLV>
0

>  <SCORE.SYSTEM.norm>
0

>  <SCORE.heavy>
37

>  <SCORE.norm>
-0.261361

>  <RMSD>
2.660

$$$$
2oe5_lig
 OpenBabel11021811463D
libRbt.so/2013.1/901 2013/11/27
 37 40  0  0  0  0  0  0  0  0999 V2000
   21.1547    1.0929   53.3946 C   0  0  1  0  0  0  0  0  0  0  0  0
   19.8350    0.6398   52.7309 C   0  0  1  0  0  0  0  0  0  0  0  0
   19.7954   -0.9326   52.6741 C   0  0  0  0  0  0  0  0  0  0  0  0
   21.0361   -1.3424   51.8494 C   0  0  1  0  0  0  0  0  0  0  0  0
   22.3861   -0.8633   52.5453 C   0  0  1  0  0  0  0  0  0  0  0  0
   23.6469   -1.2718   51.7355 C   0  0  1  0  0  0  0  0  0  0  0  0
   23.6270   -2.8228   51.6223 C   0  0  1  0  0  0  0  0  0  0  0  0
   22.2588   -3.2556   50.9713 C   0  0  2  0  0  0  0  0  0  0  0  0
   25.2903   -4.7223   50.9237 C   0  0  0  0  0  0  0  0  0  0  0  0
   18.6791    1.1340   53.5140 N   0  0  0  0  0  0  0  0  0  0  0  0
   24.7998   -3.3053   50.7999 N   0  0  0  0  0  0  0  0  0  0  0  0
   21.2528    0.6454   54.7566 O   0  0  0  0  0  0  0  0  0  0  0  0
   22.3375    0.5943   52.6769 O   0  0  0  0  0  0  0  0  0  0  0  0
   21.0865   -2.7900   51.7373 O   0  0  0  0  0  0  0  0  0  0  0  0
   23.5683   -0.6448   50.4514 O   0  0  0  0  0  0  0  0  0  0  0  0
   22.1775   -4.6658   50.9098 O   0  0  0  0  0  0  0  0  0  0  0  0
   21.0033   -5.0579   50.2238 C   0  0  2  0  0  0  0  0  0  0  0  0
   20.6618   -6.5299   50.4519 C   0  0  1  0  0  0  0  0  0  0  0  0
   21.7617   -7.4582   49.8675 C   0  0  2  0  0  0  0  0  0  0  0  0
   21.9029   -7.1222   48.3532 C   0  0  1  0  0  0  0  0  0  0  0  0
   22.2969   -5.6142   48.2232 C   0  0  1  0  0  0  0  0  0  0  0  0
   22.4115   -5.1607   46.7849 C   0  0  0  0  0  0  0  0  0  0  0  0
   22.9695   -8.0227   47.7740 N   0  0  0  0  0  0  0  0  0  0  0  0
   21.2075   -4.8149   48.7965 O   0  0  0  0  0  0  0  0  0  0  0  0
   20.5256   -6.7279   51.8732 O   0  0  0  0  0  0  0  0  0  0  0  0
   21.3230   -8.8203   50.0201 O   0  0  0  0  0  0  0  0  0  0  0  0
   21.1952   -5.2228   46.1219 O   0  0  0  0  0  0  0  0  0  0  0  0
   22.4399    1.0693   55.4272 C   0  0  1  0  0  0  0  0  0  0  0  0
   22.3115    2.5805   55.8353 C   0  0  1  0  0  0  0  0  0  0  0  0
   23.6222    3.0194   56.5822 C   0  0  2  0  0  0  0  0  0  0  0  0
   23.7984    2.1626   57.8450 C   0  0  1  0  0  0  0  0  0  0  0  0
   23.9415    0.6468   57.4326 C   0  0  0  0  0  0  0  0  0  0  0  0
   22.6314    0.2073   56.6678 C   0  0  2  0  0  0  0  0  0  0  0  0
   25.0033    2.5908   58.5362 N   0  0  0  0  0  0  0  0  0  0  0  0
   22.7358   -1.2130   56.2414 N   0  0  0  0  0  0  0  0  0  0  0  0
   22.1436    3.3969   54.6408 O   0  0  0  0  0  0  0  0  0  0  0  0
   23.5042    4.3640   56.9649 O   0  0  0  0  0  0  0  0  0  0  0  0
  1  2  1  0  0  0  0
  1 12  1  1  0  0  0
  1 13  1  0  0  0  0
  2  3  1  0  0  0  0
  2 10  1  1  0  0  0
  4  3  1  1  0  0  0
  4  5  1  0  0  0  0
  4 14  1  0  0  0  0
  5  6  1  0  0  0  0
  5 13  1  6  0  0  0
  6  7  1  0  0  0  0
  6 15  1  6  0  0  0
  7  8  1  0  0  0  0
  7 11  1  6  0  0  0
  8 14  1  0  0  0  0
  8 16  1  1  0  0  0
  9 11  1  0  0  0  0
 17 16  1  1  0  0  0
 17 18  1  0  0  0  0
 17 24  1  0  0  0  0
 18 19  1  0  0  0  0
 18 25  1  1  0  0  0
 19 20  1  0  0  0  0
 19 26  1  6  0  0  0
 20 21  1  0  0  0  0
 20 23  1  1  0  0  0
 21 22  1  6  0  0  0
 21 24  1  0  0  0  0
 22 27  1  0  0  0  0
 28 12  1  1  0  0  0
 28 29  1  0  0  0  0
 28 33  1  0  0  0  0
 29 30  1  0  0  0  0
 29 36  1  6  0  0  0
 30 31  1  0  0  0  0
 30 37  1  1  0  0  0
 31 32  1  0  0  0  0
 31 34  1  6  0  0  0
 32 33  1  0  0  0  0
 33 35  1  6  0  0  0
M  END
>  <CHROM.1>
-178.39739558,158.71353561,-175.03857639,-164.33507831,64.38446652,76.65071428
22.21786847,-2.02833416,52.33961246,1.45362261,-0.78603333,0.62699606

>  <Name>
2oe5_lig

>  <RI>
0

>  <Rbt.Current_Directory>
/home/itssahil/PROJECTS/Mol_Feturizer/New_Systems/rnas/2oe5

>  <Rbt.Executable>
rbdock ($Id: //depot/dev/client3/rdock/2013.1/src/exe/rbdock.cxx#4 $)

>  <Rbt.Library>
libRbt.so (2013.1, Build901 2013/11/27)

>  <Rbt.Parameter_File>
/export/apps/rDock/src/rDock_2013.1_src/data/scripts/dock_solv.prm

>  <Rbt.Receptor>
prm/pocket_docking_5.prm

>  <SCORE>
-14.7574

>  <SCORE.INTER>
-7.76255

>  <SCORE.INTER.CONST>
1

>  <SCORE.INTER.POLAR>
0

>  <SCORE.INTER.ROT>
6

>  <SCORE.INTER.SOLV>
13.7931

>  <SCORE.INTER.VDW>
-17.3727

>  <SCORE.INTER.norm>
-0.209799

>  <SCORE.INTRA>
-6.99482

>  <SCORE.INTRA.DIHEDRAL>
-13.1522

>  <SCORE.INTRA.DIHEDRAL.0>
16.2083

>  <SCORE.INTRA.POLAR>
0

>  <SCORE.INTRA.POLAR.0>
0

>  <SCORE.INTRA.REPUL>
0

>  <SCORE.INTRA.REPUL.0>
0

>  <SCORE.INTRA.SOLV>
-2.19581

>  <SCORE.INTRA.SOLV.lig_0>
-89.8095

>  <SCORE.INTRA.VDW>
0.679213

>  <SCORE.INTRA.VDW.0>
-3.19502

>  <SCORE.INTRA.norm>
-0.189049

>  <SCORE.RESTR>
0

>  <SCORE.RESTR.CAVITY>
0

>  <SCORE.RESTR.norm>
0

>  <SCORE.SYSTEM>
0

>  <SCORE.SYSTEM.CONST>
0

>  <SCORE.SYSTEM.DIHEDRAL>
0

>  <SCORE.SYSTEM.SOLV>
0

>  <SCORE.SYSTEM.norm>
0

>  <SCORE.heavy>
37

>  <SCORE.norm>
-0.398848

>  <RMSD>
2.666

$$$$
2oe5_lig
 OpenBabel11021811463D
libRbt.so/2013.1/901 2013/11/27
 37 40  0  0  0  0  0  0  0  0999 V2000
   20.7875    0.9963   54.0504 C   0  0  1  0  0  0  0  0  0  0  0  0
   20.1878    1.8846   52.9375 C   0  0  1  0  0  0  0  0  0  0  0  0
   19.0676    1.0809   52.1784 C   0  0  0  0  0  0  0  0  0  0  0  0
   19.7760   -0.1696   51.6112 C   0  0  1  0  0  0  0  0  0  0  0  0
   20.3919   -1.0704   52.7711 C   0  0  1  0  0  0  0  0  0  0  0  0
   21.1029   -2.3375   52.2224 C   0  0  1  0  0  0  0  0  0  0  0  0
   20.0363   -3.1454   51.4297 C   0  0  1  0  0  0  0  0  0  0  0  0
   19.4221   -2.2055   50.3241 C   0  0  2  0  0  0  0  0  0  0  0  0
   20.0495   -5.7351   51.0342 C   0  0  0  0  0  0  0  0  0  0  0  0
   19.6012    3.1093   53.5287 N   0  0  0  0  0  0  0  0  0  0  0  0
   20.6595   -4.3773   50.8144 N   0  0  0  0  0  0  0  0  0  0  0  0
   19.8101    0.6461   55.0439 O   0  0  0  0  0  0  0  0  0  0  0  0
   21.3500   -0.2548   53.5203 O   0  0  0  0  0  0  0  0  0  0  0  0
   18.8159   -0.9818   50.8837 O   0  0  0  0  0  0  0  0  0  0  0  0
   22.1784   -1.9098   51.3806 O   0  0  0  0  0  0  0  0  0  0  0  0
   18.4014   -2.8874   49.6225 O   0  0  0  0  0  0  0  0  0  0  0  0
   18.9660   -3.8517   48.7539 C   0  0  2  0  0  0  0  0  0  0  0  0
   19.5882   -3.2188   47.5098 C   0  0  1  0  0  0  0  0  0  0  0  0
   18.5102   -2.5185   46.6377 C   0  0  2  0  0  0  0  0  0  0  0  0
   17.4368   -3.5862   46.2719 C   0  0  1  0  0  0  0  0  0  0  0  0
   16.8273   -4.1402   47.6015 C   0  0  1  0  0  0  0  0  0  0  0  0
   15.8034   -5.2284   47.3676 C   0  0  0  0  0  0  0  0  0  0  0  0
   16.3840   -2.9150   45.4203 N   0  0  0  0  0  0  0  0  0  0  0  0
   17.9095   -4.7816   48.3578 O   0  0  0  0  0  0  0  0  0  0  0  0
   20.5811   -2.2736   47.9549 O   0  0  0  0  0  0  0  0  0  0  0  0
   19.1468   -2.0440   45.4375 O   0  0  0  0  0  0  0  0  0  0  0  0
   16.3709   -6.3654   46.8127 O   0  0  0  0  0  0  0  0  0  0  0  0
   20.2967    0.6946   56.3853 C   0  0  1  0  0  0  0  0  0  0  0  0
   19.1691    1.2218   57.3432 C   0  0  1  0  0  0  0  0  0  0  0  0
   19.7234    1.2534   58.8130 C   0  0  2  0  0  0  0  0  0  0  0  0
   20.1281   -0.1674   59.2340 C   0  0  1  0  0  0  0  0  0  0  0  0
   21.2705   -0.6899   58.2800 C   0  0  0  0  0  0  0  0  0  0  0  0
   20.7210   -0.7080   56.7995 C   0  0  2  0  0  0  0  0  0  0  0  0
   20.6211   -0.1274   60.6009 N   0  0  0  0  0  0  0  0  0  0  0  0
   21.7773   -1.1749   55.8635 N   0  0  0  0  0  0  0  0  0  0  0  0
   18.7816    2.5688   56.9473 O   0  0  0  0  0  0  0  0  0  0  0  0
   18.7132    1.7064   59.6748 O   0  0  0  0  0  0  0  0  0  0  0  0
  1  2  1  0  0  0  0
  1 12  1  1  0  0  0
  1 13  1  0  0  0  0
  2  3  1  0  0  0  0
  2 10  1  1  0  0  0
  4  3  1  1  0  0  0
  4  5  1  0  0  0  0
  4 14  1  0  0  0  0
  5  6  1  0  0  0  0
  5 13  1  6  0  0  0
  6  7  1  0  0  0  0
  6 15  1  6  0  0  0
  7  8  1  0  0  0  0
  7 11  1  6  0  0  0
  8 14  1  0  0  0  0
  8 16  1  1  0  0  0
  9 11  1  0  0  0  0
 17 16  1  1  0  0  0
 17 18  1  0  0  0  0
 17 24  1  0  0  0  0
 18 19  1  0  0  0  0
 18 25  1  1  0  0  0
 19 20  1  0  0  0  0
 19 26  1  6  0  0  0
 20 21  1  0  0  0  0
 20 23  1  6  0  0  0
 21 22  1  6  0  0  0
 21 24  1  0  0  0  0
 22 27  1  0  0  0  0
 28 12  1  6  0  0  0
 28 29  1  0  0  0  0
 28 33  1  0  0  0  0
 29 30  1  0  0  0  0
 29 36  1  6  0  0  0
 30 31  1  0  0  0  0
 30 37  1  1  0  0  0
 31 32  1  0  0  0  0
 31 34  1  1  0  0  0
 32 33  1  0  0  0  0
 33 35  1  6  0  0  0
M  END
>  <CHROM.1>
-138.76774220,127.85718350,-73.57997463,-75.26800335,65.51084868,143.41837921
19.45841783,-1.46897658,52.15954776,0.54358812,-1.35941465,0.12624141

>  <Name>
2oe5_lig

>  <RI>
0

>  <Rbt.Current_Directory>
/home/itssahil/PROJECTS/Mol_Feturizer/New_Systems/rnas/2oe5

>  <Rbt.Executable>
rbdock ($Id: //depot/dev/client3/rdock/2013.1/src/exe/rbdock.cxx#4 $)

>  <Rbt.Library>
libRbt.so (2013.1, Build901 2013/11/27)

>  <Rbt.Parameter_File>
/export/apps/rDock/src/rDock_2013.1_src/data/scripts/dock_solv.prm

>  <Rbt.Receptor>
prm/pocket_docking_3.prm

>  <SCORE>
-25.1984

>  <SCORE.INTER>
-28.0207

>  <SCORE.INTER.CONST>
1

>  <SCORE.INTER.POLAR>
-3.05261

>  <SCORE.INTER.ROT>
6

>  <SCORE.INTER.SOLV>
18.6697

>  <SCORE.INTER.VDW>
-22.3283

>  <SCORE.INTER.norm>
-0.757316

>  <SCORE.INTRA>
1.66773

>  <SCORE.INTRA.DIHEDRAL>
-2.56209

>  <SCORE.INTRA.DIHEDRAL.0>
16.2083

>  <SCORE.INTRA.POLAR>
0

>  <SCORE.INTRA.POLAR.0>
0

>  <SCORE.INTRA.REPUL>
0

>  <SCORE.INTRA.REPUL.0>
0

>  <SCORE.INTRA.SOLV>
2.11731

>  <SCORE.INTRA.SOLV.lig_0>
-89.8095

>  <SCORE.INTRA.VDW>
1.89012

>  <SCORE.INTRA.VDW.0>
-3.19502

>  <SCORE.INTRA.norm>
0.0450737

>  <SCORE.RESTR>
1.15457

>  <SCORE.RESTR.CAVITY>
1.15457

>  <SCORE.RESTR.norm>
0.0312045

>  <SCORE.SYSTEM>
0

>  <SCORE.SYSTEM.CONST>
0

>  <SCORE.SYSTEM.DIHEDRAL>
0

>  <SCORE.SYSTEM.SOLV>
0

>  <SCORE.SYSTEM.norm>
0

>  <SCORE.heavy>
37

>  <SCORE.norm>
-0.681038

>  <RMSD>
2.691

$$$$
2oe5_lig
 OpenBabel11021811463D
libRbt.so/2013.1/901 2013/11/27
 37 40  0  0  0  0  0  0  0  0999 V2000
   20.9974    0.6830   53.9455 C   0  0  1  0  0  0  0  0  0  0  0  0
   20.3719    1.6068   52.8766 C   0  0  1  0  0  0  0  0  0  0  0  0
   19.2080    0.8407   52.1448 C   0  0  0  0  0  0  0  0  0  0  0  0
   19.8701   -0.4093   51.5230 C   0  0  1  0  0  0  0  0  0  0  0  0
   20.5134   -1.3469   52.6381 C   0  0  1  0  0  0  0  0  0  0  0  0
   21.1785   -2.6140   52.0344 C   0  0  1  0  0  0  0  0  0  0  0  0
   20.0667   -3.3845   51.2668 C   0  0  1  0  0  0  0  0  0  0  0  0
   19.4280   -2.4090   50.2069 C   0  0  2  0  0  0  0  0  0  0  0  0
   20.4743   -5.9720   51.2250 C   0  0  0  0  0  0  0  0  0  0  0  0
   19.8319    2.8282   53.5169 N   0  0  0  0  0  0  0  0  0  0  0  0
   20.6422   -4.6133   50.6008 N   0  0  0  0  0  0  0  0  0  0  0  0
   20.0529    0.3282   54.9687 O   0  0  0  0  0  0  0  0  0  0  0  0
   21.5151   -0.5659   53.3666 O   0  0  0  0  0  0  0  0  0  0  0  0
   18.8672   -1.1875   50.8163 O   0  0  0  0  0  0  0  0  0  0  0  0
   22.2284   -2.1870   51.1606 O   0  0  0  0  0  0  0  0  0  0  0  0
   18.3681   -3.0564   49.5311 O   0  0  0  0  0  0  0  0  0  0  0  0
   18.8801   -4.0122   48.6216 C   0  0  2  0  0  0  0  0  0  0  0  0
   19.5409   -3.3619   47.4067 C   0  0  1  0  0  0  0  0  0  0  0  0
   18.5067   -2.5645   46.5654 C   0  0  2  0  0  0  0  0  0  0  0  0
   17.3760   -3.5529   46.1526 C   0  0  1  0  0  0  0  0  0  0  0  0
   16.7322   -4.1291   47.4563 C   0  0  1  0  0  0  0  0  0  0  0  0
   15.6493   -5.1466   47.1745 C   0  0  0  0  0  0  0  0  0  0  0  0
   16.3653   -2.7870   45.3304 N   0  0  0  0  0  0  0  0  0  0  0  0
   17.7741   -4.8629   48.1846 O   0  0  0  0  0  0  0  0  0  0  0  0
   20.5841   -2.4945   47.8933 O   0  0  0  0  0  0  0  0  0  0  0  0
   19.1728   -2.0748   45.3874 O   0  0  0  0  0  0  0  0  0  0  0  0
   16.1195   -6.2106   46.4199 O   0  0  0  0  0  0  0  0  0  0  0  0
   20.5275    0.5345   56.2994 C   0  0  1  0  0  0  0  0  0  0  0  0
   19.3551    1.0464   57.2107 C   0  0  1  0  0  0  0  0  0  0  0  0
   19.8979    1.2529   58.6706 C   0  0  2  0  0  0  0  0  0  0  0  0
   20.4190   -0.0865   59.2130 C   0  0  1  0  0  0  0  0  0  0  0  0
   21.6057   -0.5921   58.3052 C   0  0  0  0  0  0  0  0  0  0  0  0
   21.0664   -0.7857   56.8334 C   0  0  2  0  0  0  0  0  0  0  0  0
   20.9005    0.1141   60.5698 N   0  0  0  0  0  0  0  0  0  0  0  0
   22.1627   -1.2418   55.9389 N   0  0  0  0  0  0  0  0  0  0  0  0
   18.8573    2.3163   56.6996 O   0  0  0  0  0  0  0  0  0  0  0  0
   18.8492    1.6926   59.4923 O   0  0  0  0  0  0  0  0  0  0  0  0
  1  2  1  0  0  0  0
  1 12  1  1  0  0  0
  1 13  1  0  0  0  0
  2  3  1  0  0  0  0
  2 10  1  1  0  0  0
  4  3  1  1  0  0  0
  4  5  1  0  0  0  0
  4 14  1  0  0  0  0
  5  6  1  0  0  0  0
  5 13  1  6  0  0  0
  6  7  1  0  0  0  0
  6 15  1  6  0  0  0
  7  8  1  0  0  0  0
  7 11  1  6  0  0  0
  8 14  1  0  0  0  0
  8 16  1  1  0  0  0
  9 11  1  0  0  0  0
 17 16  1  1  0  0  0
 17 18  1  0  0  0  0
 17 24  1  0  0  0  0
 18 19  1  0  0  0  0
 18 25  1  1  0  0  0
 19 20  1  0  0  0  0
 19 26  1  6  0  0  0
 20 21  1  0  0  0  0
 20 23  1  1  0  0  0
 21 22  1  6  0  0  0
 21 24  1  0  0  0  0
 22 27  1  0  0  0  0
 28 12  1  6  0  0  0
 28 29  1  0  0  0  0
 28 33  1  0  0  0  0
 29 30  1  0  0  0  0
 29 36  1  6  0  0  0
 30 31  1  0  0  0  0
 30 37  1  1  0  0  0
 31 32  1  0  0  0  0
 31 34  1  1  0  0  0
 32 33  1  0  0  0  0
 33 35  1  6  0  0  0
M  END
>  <CHROM.1>
-129.63972330,100.37197701,-73.49912116,-71.87143343,57.78165460,142.88032554
19.55333047,-1.59691808,52.05598780,0.99451743,-1.18363040,0.60935820

>  <Name>
2oe5_lig

>  <RI>
0

>  <Rbt.Current_Directory>
/home/itssahil/PROJECTS/Mol_Feturizer/New_Systems/rnas/2oe5

>  <Rbt.Executable>
rbdock ($Id: //depot/dev/client3/rdock/2013.1/src/exe/rbdock.cxx#4 $)

>  <Rbt.Library>
libRbt.so (2013.1, Build901 2013/11/27)

>  <Rbt.Parameter_File>
/export/apps/rDock/src/rDock_2013.1_src/data/scripts/dock_solv.prm

>  <Rbt.Receptor>
prm/pocket_docking_3.prm

>  <SCORE>
-26.1244

>  <SCORE.INTER>
-29.4595

>  <SCORE.INTER.CONST>
1

>  <SCORE.INTER.POLAR>
-3.3286

>  <SCORE.INTER.ROT>
6

>  <SCORE.INTER.SOLV>
16.9853

>  <SCORE.INTER.VDW>
-21.8061

>  <SCORE.INTER.norm>
-0.796203

>  <SCORE.INTRA>
1.76836

>  <SCORE.INTRA.DIHEDRAL>
-2.07814

>  <SCORE.INTRA.DIHEDRAL.0>
16.2083

>  <SCORE.INTRA.POLAR>
0

>  <SCORE.INTRA.POLAR.0>
0

>  <SCORE.INTRA.REPUL>
0

>  <SCORE.INTRA.REPUL.0>
0

>  <SCORE.INTRA.SOLV>
2.07703

>  <SCORE.INTRA.SOLV.lig_0>
-89.8095

>  <SCORE.INTRA.VDW>
1.76892

>  <SCORE.INTRA.VDW.0>
-3.19502

>  <SCORE.INTRA.norm>
0.0477936

>  <SCORE.RESTR>
1.56675

>  <SCORE.RESTR.CAVITY>
1.56675

>  <SCORE.RESTR.norm>
0.0423446

>  <SCORE.SYSTEM>
0

>  <SCORE.SYSTEM.CONST>
0

>  <SCORE.SYSTEM.DIHEDRAL>
0

>  <SCORE.SYSTEM.SOLV>
0

>  <SCORE.SYSTEM.norm>
0

>  <SCORE.heavy>
37

>  <SCORE.norm>
-0.706065

>  <RMSD>
2.691

$$$$
2oe5_lig
 OpenBabel11021811463D
libRbt.so/2013.1/901 2013/11/27
 37 40  0  0  0  0  0  0  0  0999 V2000
   19.6769    1.9453   55.7134 C   0  0  1  0  0  0  0  0  0  0  0  0
   18.9695    2.5353   54.4730 C   0  0  1  0  0  0  0  0  0  0  0  0
   18.5144    1.3622   53.5275 C   0  0  0  0  0  0  0  0  0  0  0  0
   19.8121    0.6092   53.1582 C   0  0  1  0  0  0  0  0  0  0  0  0
   20.5301    0.0123   54.4484 C   0  0  1  0  0  0  0  0  0  0  0  0
   21.8339   -0.7555   54.0983 C   0  0  1  0  0  0  0  0  0  0  0  0
   21.4339   -1.9058   53.1310 C   0  0  1  0  0  0  0  0  0  0  0  0
   20.6888   -1.2769   51.8931 C   0  0  2  0  0  0  0  0  0  0  0  0
   22.5225   -4.0338   52.0590 C   0  0  0  0  0  0  0  0  0  0  0  0
   17.7845    3.3191   54.8914 N   0  0  0  0  0  0  0  0  0  0  0  0
   22.6586   -2.6778   52.6967 N   0  0  0  0  0  0  0  0  0  0  0  0
   18.7939    1.1259   56.4968 O   0  0  0  0  0  0  0  0  0  0  0  0
   20.8410    1.1230   55.3506 O   0  0  0  0  0  0  0  0  0  0  0  0
   19.4936   -0.5008   52.2766 O   0  0  0  0  0  0  0  0  0  0  0  0
   22.7368    0.1674   53.4808 O   0  0  0  0  0  0  0  0  0  0  0  0
   20.2531   -2.3003   51.0201 O   0  0  0  0  0  0  0  0  0  0  0  0
   20.0621   -1.7823   49.7170 C   0  0  2  0  0  0  0  0  0  0  0  0
   19.4509   -2.8115   48.7669 C   0  0  1  0  0  0  0  0  0  0  0  0
   20.4090   -4.0153   48.5521 C   0  0  2  0  0  0  0  0  0  0  0  0
   21.7559   -3.4516   48.0100 C   0  0  1  0  0  0  0  0  0  0  0  0
   22.3246   -2.4478   49.0660 C   0  0  1  0  0  0  0  0  0  0  0  0
   23.6137   -1.7953   48.6189 C   0  0  0  0  0  0  0  0  0  0  0  0
   22.6949   -4.6161   47.7946 N   0  0  0  0  0  0  0  0  0  0  0  0
   21.3612   -1.3491   49.2045 O   0  0  0  0  0  0  0  0  0  0  0  0
   18.2030   -3.2457   49.3431 O   0  0  0  0  0  0  0  0  0  0  0  0
   19.8193   -4.8845   47.5683 O   0  0  0  0  0  0  0  0  0  0  0  0
   23.4677   -1.1294   47.4115 O   0  0  0  0  0  0  0  0  0  0  0  0
   19.2952    0.8000   57.7934 C   0  0  1  0  0  0  0  0  0  0  0  0
   20.6061   -0.0548   57.6594 C   0  0  1  0  0  0  0  0  0  0  0  0
   21.1451   -0.3890   59.0968 C   0  0  2  0  0  0  0  0  0  0  0  0
   21.4618    0.9190   59.8374 C   0  0  1  0  0  0  0  0  0  0  0  0
   20.1416    1.7698   59.9838 C   0  0  0  0  0  0  0  0  0  0  0  0
   19.5890    2.0941   58.5403 C   0  0  2  0  0  0  0  0  0  0  0  0
   21.9770    0.5958   61.1578 N   0  0  0  0  0  0  0  0  0  0  0  0
   18.3296    2.8782   58.6349 N   0  0  0  0  0  0  0  0  0  0  0  0
   20.3106   -1.2961   56.9570 O   0  0  0  0  0  0  0  0  0  0  0  0
   22.3265   -1.1370   58.9816 O   0  0  0  0  0  0  0  0  0  0  0  0
  1  2  1  0  0  0  0
  1 12  1  6  0  0  0
  1 13  1  0  0  0  0
  2  3  1  0  0  0  0
  2 10  1  1  0  0  0
  4  3  1  1  0  0  0
  4  5  1  0  0  0  0
  4 14  1  0  0  0  0
  5  6  1  0  0  0  0
  5 13  1  1  0  0  0
  6  7  1  0  0  0  0
  6 15  1  6  0  0  0
  7  8  1  0  0  0  0
  7 11  1  6  0  0  0
  8 14  1  0  0  0  0
  8 16  1  6  0  0  0
  9 11  1  0  0  0  0
 17 16  1  1  0  0  0
 17 18  1  0  0  0  0
 17 24  1  0  0  0  0
 18 19  1  0  0  0  0
 18 25  1  1  0  0  0
 19 20  1  0  0  0  0
 19 26  1  6  0  0  0
 20 21  1  0  0  0  0
 20 23  1  1  0  0  0
 21 22  1  6  0  0  0
 21 24  1  0  0  0  0
 22 27  1  0  0  0  0
 28 12  1  6  0  0  0
 28 29  1  0  0  0  0
 28 33  1  0  0  0  0
 29 30  1  0  0  0  0
 29 36  1  1  0  0  0
 30 31  1  0  0  0  0
 30 37  1  6  0  0  0
 31 32  1  0  0  0  0
 31 34  1  1  0  0  0
 32 33  1  0  0  0  0
 33 35  1  1  0  0  0
M  END
>  <CHROM.1>
-166.81098843,164.13984713,-157.56182002,-173.97342245,57.19344426,-63.10515523
20.68158701,-0.75046835,53.50030459,1.70874280,-0.70987778,1.25404038

>  <Name>
2oe5_lig

>  <RI>
0

>  <Rbt.Current_Directory>
/home/itssahil/PROJECTS/Mol_Feturizer/New_Systems/rnas/2oe5

>  <Rbt.Executable>
rbdock ($Id: //depot/dev/client3/rdock/2013.1/src/exe/rbdock.cxx#4 $)

>  <Rbt.Library>
libRbt.so (2013.1, Build901 2013/11/27)

>  <Rbt.Parameter_File>
/export/apps/rDock/src/rDock_2013.1_src/data/scripts/dock_solv.prm

>  <Rbt.Receptor>
prm/pocket_docking_4.prm

>  <SCORE>
-19.4556

>  <SCORE.INTER>
-15.2234

>  <SCORE.INTER.CONST>
1

>  <SCORE.INTER.POLAR>
-1.82461

>  <SCORE.INTER.ROT>
6

>  <SCORE.INTER.SOLV>
16.632

>  <SCORE.INTER.VDW>
-17.2109

>  <SCORE.INTER.norm>
-0.411442

>  <SCORE.INTRA>
-4.23225

>  <SCORE.INTRA.DIHEDRAL>
-12.6518

>  <SCORE.INTRA.DIHEDRAL.0>
16.2083

>  <SCORE.INTRA.POLAR>
0

>  <SCORE.INTRA.POLAR.0>
0

>  <SCORE.INTRA.REPUL>
0

>  <SCORE.INTRA.REPUL.0>
0

>  <SCORE.INTRA.SOLV>
0.192264

>  <SCORE.INTRA.SOLV.lig_0>
-89.8095

>  <SCORE.INTRA.VDW>
1.99752

>  <SCORE.INTRA.VDW.0>
-3.19502

>  <SCORE.INTRA.norm>
-0.114385

>  <SCORE.RESTR>
0

>  <SCORE.RESTR.CAVITY>
0

>  <SCORE.RESTR.norm>
0

>  <SCORE.SYSTEM>
0

>  <SCORE.SYSTEM.CONST>
0

>  <SCORE.SYSTEM.DIHEDRAL>
0

>  <SCORE.SYSTEM.SOLV>
0

>  <SCORE.SYSTEM.norm>
0

>  <SCORE.heavy>
37

>  <SCORE.norm>
-0.525828

>  <RMSD>
2.749

$$$$
2oe5_lig
 OpenBabel11021811463D
libRbt.so/2013.1/901 2013/11/27
 37 40  0  0  0  0  0  0  0  0999 V2000
   20.5198    1.1632   54.1401 C   0  0  1  0  0  0  0  0  0  0  0  0
   19.8478    1.9303   52.9793 C   0  0  1  0  0  0  0  0  0  0  0  0
   18.8001    0.9912   52.2739 C   0  0  0  0  0  0  0  0  0  0  0  0
   19.6122   -0.2263   51.7783 C   0  0  1  0  0  0  0  0  0  0  0  0
   20.3014   -1.0016   52.9868 C   0  0  1  0  0  0  0  0  0  0  0  0
   21.1174   -2.2343   52.5107 C   0  0  1  0  0  0  0  0  0  0  0  0
   20.1235   -3.1750   51.7718 C   0  0  1  0  0  0  0  0  0  0  0  0
   19.4327   -2.3574   50.6153 C   0  0  2  0  0  0  0  0  0  0  0  0
   20.2728   -5.7635   51.3971 C   0  0  0  0  0  0  0  0  0  0  0  0
   19.1592    3.1338   53.4997 N   0  0  0  0  0  0  0  0  0  0  0  0
   20.8492   -4.3840   51.2275 N   0  0  0  0  0  0  0  0  0  0  0  0
   19.5749    0.7911   55.1567 O   0  0  0  0  0  0  0  0  0  0  0  0
   21.1865   -0.0651   53.6823 O   0  0  0  0  0  0  0  0  0  0  0  0
   18.7248   -1.1584   51.1043 O   0  0  0  0  0  0  0  0  0  0  0  0
   22.1535   -1.7678   51.6405 O   0  0  0  0  0  0  0  0  0  0  0  0
   18.4739   -3.1635   49.9595 O   0  0  0  0  0  0  0  0  0  0  0  0
   19.1127   -4.0429   49.0531 C   0  0  2  0  0  0  0  0  0  0  0  0
   19.3487   -3.3985   47.6877 C   0  0  1  0  0  0  0  0  0  0  0  0
   18.0042   -3.0562   46.9889 C   0  0  2  0  0  0  0  0  0  0  0  0
   17.1856   -4.3763   46.8750 C   0  0  1  0  0  0  0  0  0  0  0  0
   16.9559   -4.9336   48.3182 C   0  0  1  0  0  0  0  0  0  0  0  0
   16.2109   -6.2498   48.3261 C   0  0  0  0  0  0  0  0  0  0  0  0
   15.8757   -4.0545   46.1933 N   0  0  0  0  0  0  0  0  0  0  0  0
   18.2710   -5.2286   48.8996 O   0  0  0  0  0  0  0  0  0  0  0  0
   20.1337   -2.2084   47.9000 O   0  0  0  0  0  0  0  0  0  0  0  0
   18.3004   -2.5575   45.6719 O   0  0  0  0  0  0  0  0  0  0  0  0
   16.1129   -6.7840   49.6019 O   0  0  0  0  0  0  0  0  0  0  0  0
   20.0784    0.8940   56.4888 C   0  0  1  0  0  0  0  0  0  0  0  0
   18.9395    1.3830   57.4535 C   0  0  1  0  0  0  0  0  0  0  0  0
   19.5134    1.4754   58.9132 C   0  0  2  0  0  0  0  0  0  0  0  0
   19.9979    0.0870   59.3574 C   0  0  1  0  0  0  0  0  0  0  0  0
   21.1514   -0.3964   58.3962 C   0  0  0  0  0  0  0  0  0  0  0  0
   20.5813   -0.4754   56.9255 C   0  0  2  0  0  0  0  0  0  0  0  0
   20.5086    0.1823   60.7150 N   0  0  0  0  0  0  0  0  0  0  0  0
   21.6464   -0.9073   55.9826 N   0  0  0  0  0  0  0  0  0  0  0  0
   18.4764    2.6992   57.0356 O   0  0  0  0  0  0  0  0  0  0  0  0
   18.4941    1.8942   59.7815 O   0  0  0  0  0  0  0  0  0  0  0  0
  1  2  1  0  0  0  0
  1 12  1  1  0  0  0
  1 13  1  0  0  0  0
  2  3  1  0  0  0  0
  2 10  1  1  0  0  0
  4  3  1  1  0  0  0
  4  5  1  0  0  0  0
  4 14  1  0  0  0  0
  5  6  1  0  0  0  0
  5 13  1  6  0  0  0
  6  7  1  0  0  0  0
  6 15  1  6  0  0  0
  7  8  1  0  0  0  0
  7 11  1  6  0  0  0
  8 14  1  0  0  0  0
  8 16  1  1  0  0  0
  9 11  1  0  0  0  0
 17 16  1  1  0  0  0
 17 18  1  0  0  0  0
 17 24  1  0  0  0  0
 18 19  1  0  0  0  0
 18 25  1  1  0  0  0
 19 20  1  0  0  0  0
 19 26  1  6  0  0  0
 20 21  1  0  0  0  0
 20 23  1  1  0  0  0
 21 22  1  6  0  0  0
 21 24  1  0  0  0  0
 22 27  1  0  0  0  0
 28 12  1  6  0  0  0
 28 29  1  0  0  0  0
 28 33  1  0  0  0  0
 29 30  1  0  0  0  0
 29 36  1  6  0  0  0
 30 31  1  0  0  0  0
 30 37  1  1  0  0  0
 31 32  1  0  0  0  0
 31 34  1  1  0  0  0
 32 33  1  0  0  0  0
 33 35  1  6  0  0  0
M  END
>  <CHROM.1>
-141.84667106,134.80144355,-79.00319746,-85.91229999,175.01830180,143.71112002
19.31322086,-1.56751276,52.48769043,0.07892659,-1.39676273,-0.42345747

>  <Name>
2oe5_lig

>  <RI>
0

>  <Rbt.Current_Directory>
/home/itssahil/PROJECTS/Mol_Feturizer/New_Systems/rnas/2oe5

>  <Rbt.Executable>
rbdock ($Id: //depot/dev/client3/rdock/2013.1/src/exe/rbdock.cxx#4 $)

>  <Rbt.Library>
libRbt.so (2013.1, Build901 2013/11/27)

>  <Rbt.Parameter_File>
/export/apps/rDock/src/rDock_2013.1_src/data/scripts/dock_solv.prm

>  <Rbt.Receptor>
prm/pocket_docking_6.prm

>  <SCORE>
-20.7254

>  <SCORE.INTER>
-21.9453

>  <SCORE.INTER.CONST>
1

>  <SCORE.INTER.POLAR>
-1.24727

>  <SCORE.INTER.ROT>
6

>  <SCORE.INTER.SOLV>
18.1925

>  <SCORE.INTER.VDW>
-24.1368

>  <SCORE.INTER.norm>
-0.593116

>  <SCORE.INTRA>
1.21985

>  <SCORE.INTRA.DIHEDRAL>
-0.741981

>  <SCORE.INTRA.DIHEDRAL.0>
16.2083

>  <SCORE.INTRA.POLAR>
0

>  <SCORE.INTRA.POLAR.0>
0

>  <SCORE.INTRA.REPUL>
0

>  <SCORE.INTRA.REPUL.0>
0

>  <SCORE.INTRA.SOLV>
1.15016

>  <SCORE.INTRA.SOLV.lig_0>
-89.8095

>  <SCORE.INTRA.VDW>
1.01576

>  <SCORE.INTRA.VDW.0>
-3.19502

>  <SCORE.INTRA.norm>
0.0329689

>  <SCORE.RESTR>
0

>  <SCORE.RESTR.CAVITY>
0

>  <SCORE.RESTR.norm>
0

>  <SCORE.SYSTEM>
0

>  <SCORE.SYSTEM.CONST>
0

>  <SCORE.SYSTEM.DIHEDRAL>
0

>  <SCORE.SYSTEM.SOLV>
0

>  <SCORE.SYSTEM.norm>
0

>  <SCORE.heavy>
37

>  <SCORE.norm>
-0.560147

>  <RMSD>
2.767

$$$$
2oe5_lig
 OpenBabel11021811463D
libRbt.so/2013.1/901 2013/11/27
 37 40  0  0  0  0  0  0  0  0999 V2000
   21.0855    0.5633   53.9724 C   0  0  1  0  0  0  0  0  0  0  0  0
   20.4511    1.5166   52.9351 C   0  0  1  0  0  0  0  0  0  0  0  0
   19.2708    0.7764   52.2030 C   0  0  0  0  0  0  0  0  0  0  0  0
   19.9141   -0.4633   51.5421 C   0  0  1  0  0  0  0  0  0  0  0  0
   20.5669   -1.4316   52.6249 C   0  0  1  0  0  0  0  0  0  0  0  0
   21.2134   -2.6887   51.9815 C   0  0  1  0  0  0  0  0  0  0  0  0
   20.0847   -3.4329   51.2129 C   0  0  1  0  0  0  0  0  0  0  0  0
   19.4375   -2.4280   50.1860 C   0  0  2  0  0  0  0  0  0  0  0  0
   20.4475   -6.0244   51.0895 C   0  0  0  0  0  0  0  0  0  0  0  0
   19.9299    2.7264   53.6120 N   0  0  0  0  0  0  0  0  0  0  0  0
   20.6409   -4.6496   50.5095 N   0  0  0  0  0  0  0  0  0  0  0  0
   20.1537    0.1912   55.0010 O   0  0  0  0  0  0  0  0  0  0  0  0
   21.5852   -0.6752   53.3565 O   0  0  0  0  0  0  0  0  0  0  0  0
   18.8951   -1.2173   50.8324 O   0  0  0  0  0  0  0  0  0  0  0  0
   22.2534   -2.2486   51.1024 O   0  0  0  0  0  0  0  0  0  0  0  0
   18.3628   -3.0516   49.5112 O   0  0  0  0  0  0  0  0  0  0  0  0
   18.8528   -4.0164   48.5990 C   0  0  2  0  0  0  0  0  0  0  0  0
   19.5233   -3.3780   47.3830 C   0  0  1  0  0  0  0  0  0  0  0  0
   18.5032   -2.5586   46.5457 C   0  0  2  0  0  0  0  0  0  0  0  0
   17.3515   -3.5233   46.1348 C   0  0  1  0  0  0  0  0  0  0  0  0
   16.6997   -4.0880   47.4396 C   0  0  1  0  0  0  0  0  0  0  0  0
   15.5955   -5.0829   47.1594 C   0  0  0  0  0  0  0  0  0  0  0  0
   16.3543   -2.7358   45.3165 N   0  0  0  0  0  0  0  0  0  0  0  0
   17.7285   -4.8438   48.1640 O   0  0  0  0  0  0  0  0  0  0  0  0
   20.5853   -2.5326   47.8679 O   0  0  0  0  0  0  0  0  0  0  0  0
   19.1758   -2.0809   45.3665 O   0  0  0  0  0  0  0  0  0  0  0  0
   16.0644   -6.2065   46.4959 O   0  0  0  0  0  0  0  0  0  0  0  0
   20.4300    0.7690   56.2771 C   0  0  1  0  0  0  0  0  0  0  0  0
   19.0864    1.1800   56.9790 C   0  0  1  0  0  0  0  0  0  0  0  0
   19.4152    1.8000   58.3847 C   0  0  2  0  0  0  0  0  0  0  0  0
   20.1411    0.7540   59.2440 C   0  0  1  0  0  0  0  0  0  0  0  0
   21.4971    0.3528   58.5450 C   0  0  0  0  0  0  0  0  0  0  0  0
   21.1703   -0.2566   57.1250 C   0  0  2  0  0  0  0  0  0  0  0  0
   20.4226    1.3333   60.5472 N   0  0  0  0  0  0  0  0  0  0  0  0
   22.4266   -0.6282   56.4224 N   0  0  0  0  0  0  0  0  0  0  0  0
   18.3941    2.1715   56.1671 O   0  0  0  0  0  0  0  0  0  0  0  0
   18.2164    2.1517   59.0230 O   0  0  0  0  0  0  0  0  0  0  0  0
  1  2  1  0  0  0  0
  1 12  1  1  0  0  0
  1 13  1  0  0  0  0
  2  3  1  0  0  0  0
  2 10  1  1  0  0  0
  4  3  1  1  0  0  0
  4  5  1  0  0  0  0
  4 14  1  0  0  0  0
  5  6  1  0  0  0  0
  5 13  1  6  0  0  0
  6  7  1  0  0  0  0
  6 15  1  6  0  0  0
  7  8  1  0  0  0  0
  7 11  1  6  0  0  0
  8 14  1  0  0  0  0
  8 16  1  1  0  0  0
  9 11  1  0  0  0  0
 17 16  1  1  0  0  0
 17 18  1  0  0  0  0
 17 24  1  0  0  0  0
 18 19  1  0  0  0  0
 18 25  1  1  0  0  0
 19 20  1  0  0  0  0
 19 26  1  6  0  0  0
 20 21  1  0  0  0  0
 20 23  1  1  0  0  0
 21 22  1  6  0  0  0
 21 24  1  0  0  0  0
 22 27  1  0  0  0  0
 28 12  1  6  0  0  0
 28 29  1  0  0  0  0
 28 33  1  0  0  0  0
 29 30  1  0  0  0  0
 29 36  1  6  0  0  0
 30 31  1  0  0  0  0
 30 37  1  1  0  0  0
 31 32  1  0  0  0  0
 31 34  1  1  0  0  0
 32 33  1  0  0  0  0
 33 35  1  6  0  0  0
M  END
>  <CHROM.1>
-109.08190133,101.64132395,-71.84189554,-71.94286058,62.65004612,141.09742015
19.49687507,-1.48181737,52.03141373,-1.31289793,0.74030453,-2.20394123

>  <Name>
2oe5_lig

>  <RI>
0

>  <Rbt.Current_Directory>
/home/itssahil/PROJECTS/Mol_Feturizer/New_Systems/rnas/2oe5

>  <Rbt.Executable>
rbdock ($Id: //depot/dev/client3/rdock/2013.1/src/exe/rbdock.cxx#4 $)

>  <Rbt.Library>
libRbt.so (2013.1, Build901 2013/11/27)

>  <Rbt.Parameter_File>
/export/apps/rDock/src/rDock_2013.1_src/data/scripts/dock_solv.prm

>  <Rbt.Receptor>
prm/pocket_docking_3.prm

>  <SCORE>
-23.9719

>  <SCORE.INTER>
-27.334

>  <SCORE.INTER.CONST>
1

>  <SCORE.INTER.POLAR>
-3.36846

>  <SCORE.INTER.ROT>
6

>  <SCORE.INTER.SOLV>
13.7346

>  <SCORE.INTER.VDW>
-19.1726

>  <SCORE.INTER.norm>
-0.738756

>  <SCORE.INTRA>
1.77497

>  <SCORE.INTRA.DIHEDRAL>
-2.03961

>  <SCORE.INTRA.DIHEDRAL.0>
16.2083

>  <SCORE.INTRA.POLAR>
0

>  <SCORE.INTRA.POLAR.0>
0

>  <SCORE.INTRA.REPUL>
0

>  <SCORE.INTRA.REPUL.0>
0

>  <SCORE.INTRA.SOLV>
1.93096

>  <SCORE.INTRA.SOLV.lig_0>
-89.8095

>  <SCORE.INTRA.VDW>
1.8293

>  <SCORE.INTRA.VDW.0>
-3.19502

>  <SCORE.INTRA.norm>
0.0479722

>  <SCORE.RESTR>
1.58707

>  <SCORE.RESTR.CAVITY>
1.58707

>  <SCORE.RESTR.norm>
0.0428937

>  <SCORE.SYSTEM>
0

>  <SCORE.SYSTEM.CONST>
0

>  <SCORE.SYSTEM.DIHEDRAL>
0

>  <SCORE.SYSTEM.SOLV>
0

>  <SCORE.SYSTEM.norm>
0

>  <SCORE.heavy>
37

>  <SCORE.norm>
-0.64789

>  <RMSD>
2.783

$$$$
2oe5_lig
 OpenBabel11021811463D
libRbt.so/2013.1/901 2013/11/27
 37 40  0  0  0  0  0  0  0  0999 V2000
   21.3044    0.9282   53.6212 C   0  0  1  0  0  0  0  0  0  0  0  0
   20.5820    1.7797   52.5533 C   0  0  1  0  0  0  0  0  0  0  0  0
   19.3885    0.9510   51.9483 C   0  0  0  0  0  0  0  0  0  0  0  0
   20.0358   -0.3165   51.3466 C   0  0  1  0  0  0  0  0  0  0  0  0
   20.7795   -1.1789   52.4599 C   0  0  1  0  0  0  0  0  0  0  0  0
   21.4314   -2.4624   51.8769 C   0  0  1  0  0  0  0  0  0  0  0  0
   20.2876   -3.2964   51.2327 C   0  0  1  0  0  0  0  0  0  0  0  0
   19.5514   -2.3930   50.1720 C   0  0  2  0  0  0  0  0  0  0  0  0
   20.4335   -5.9078   51.0846 C   0  0  0  0  0  0  0  0  0  0  0  0
   20.0585    3.0223   53.1661 N   0  0  0  0  0  0  0  0  0  0  0  0
   20.8448   -4.5469   50.5921 N   0  0  0  0  0  0  0  0  0  0  0  0
   20.4438    0.6094   54.7269 O   0  0  0  0  0  0  0  0  0  0  0  0
   21.8106   -0.3388   53.0726 O   0  0  0  0  0  0  0  0  0  0  0  0
   19.0050   -1.1525   50.7556 O   0  0  0  0  0  0  0  0  0  0  0  0
   22.4059   -2.0611   50.9086 O   0  0  0  0  0  0  0  0  0  0  0  0
   18.4627   -3.0981   49.6091 O   0  0  0  0  0  0  0  0  0  0  0  0
   18.9302   -4.0575   48.6796 C   0  0  2  0  0  0  0  0  0  0  0  0
   19.5425   -3.4119   47.4371 C   0  0  1  0  0  0  0  0  0  0  0  0
   18.4782   -2.6092   46.6397 C   0  0  2  0  0  0  0  0  0  0  0  0
   17.3253   -3.5914   46.2762 C   0  0  1  0  0  0  0  0  0  0  0  0
   16.7341   -4.1628   47.6067 C   0  0  1  0  0  0  0  0  0  0  0  0
   15.6344   -5.1743   47.3720 C   0  0  0  0  0  0  0  0  0  0  0  0
   16.2850   -2.8202   45.4970 N   0  0  0  0  0  0  0  0  0  0  0  0
   17.8018   -4.9021   48.2908 O   0  0  0  0  0  0  0  0  0  0  0  0
   20.6104   -2.5502   47.8782 O   0  0  0  0  0  0  0  0  0  0  0  0
   19.0964   -2.1242   45.4340 O   0  0  0  0  0  0  0  0  0  0  0  0
   14.6524   -4.6868   46.5230 O   0  0  0  0  0  0  0  0  0  0  0  0
   21.0212    0.8600   56.0085 C   0  0  1  0  0  0  0  0  0  0  0  0
   21.0726    2.4066   56.2774 C   0  0  1  0  0  0  0  0  0  0  0  0
   21.6985    2.6561   57.6967 C   0  0  2  0  0  0  0  0  0  0  0  0
   20.8235    1.9809   58.7636 C   0  0  1  0  0  0  0  0  0  0  0  0
   20.7846    0.4261   58.5006 C   0  0  0  0  0  0  0  0  0  0  0  0
   20.1700    0.1731   57.0678 C   0  0  2  0  0  0  0  0  0  0  0  0
   21.4026    2.2349   60.0725 N   0  0  0  0  0  0  0  0  0  0  0  0
   20.1361   -1.2833   56.7716 N   0  0  0  0  0  0  0  0  0  0  0  0
   21.9009    3.0511   55.2675 O   0  0  0  0  0  0  0  0  0  0  0  0
   21.7293    4.0359   57.9487 O   0  0  0  0  0  0  0  0  0  0  0  0
  1  2  1  0  0  0  0
  1 12  1  1  0  0  0
  1 13  1  0  0  0  0
  2  3  1  0  0  0  0
  2 10  1  1  0  0  0
  4  3  1  1  0  0  0
  4  5  1  0  0  0  0
  4 14  1  0  0  0  0
  5  6  1  0  0  0  0
  5 13  1  6  0  0  0
  6  7  1  0  0  0  0
  6 15  1  6  0  0  0
  7  8  1  0  0  0  0
  7 11  1  6  0  0  0
  8 14  1  0  0  0  0
  8 16  1  1  0  0  0
  9 11  1  0  0  0  0
 17 16  1  1  0  0  0
 17 18  1  0  0  0  0
 17 24  1  0  0  0  0
 18 19  1  0  0  0  0
 18 25  1  1  0  0  0
 19 20  1  0  0  0  0
 19 26  1  6  0  0  0
 20 21  1  0  0  0  0
 20 23  1  1  0  0  0
 21 22  1  6  0  0  0
 21 24  1  0  0  0  0
 22 27  1  0  0  0  0
 28 12  1  6  0  0  0
 28 29  1  0  0  0  0
 28 33  1  0  0  0  0
 29 30  1  0  0  0  0
 29 36  1  6  0  0  0
 30 31  1  0  0  0  0
 30 37  1  1  0  0  0
 31 32  1  0  0  0  0
 31 34  1  1  0  0  0
 32 33  1  0  0  0  0
 33 35  1  6  0  0  0
M  END
>  <CHROM.1>
-131.40011301,117.55831012,-75.63052992,-67.90177979,-51.95410326,73.37803747
19.79706356,-1.17919775,51.87452258,0.19238603,-1.27395158,-0.33236406

>  <Name>
2oe5_lig

>  <RI>
0

>  <Rbt.Current_Directory>
/home/itssahil/PROJECTS/Mol_Feturizer/New_Systems/rnas/2oe5

>  <Rbt.Executable>
rbdock ($Id: //depot/dev/client3/rdock/2013.1/src/exe/rbdock.cxx#4 $)

>  <Rbt.Library>
libRbt.so (2013.1, Build901 2013/11/27)

>  <Rbt.Parameter_File>
/export/apps/rDock/src/rDock_2013.1_src/data/scripts/dock_solv.prm

>  <Rbt.Receptor>
prm/pocket_docking_6.prm

>  <SCORE>
-20.6869

>  <SCORE.INTER>
-21.5804

>  <SCORE.INTER.CONST>
1

>  <SCORE.INTER.POLAR>
-3.44966

>  <SCORE.INTER.ROT>
6

>  <SCORE.INTER.SOLV>
18.8025

>  <SCORE.INTER.VDW>
-16.7556

>  <SCORE.INTER.norm>
-0.583255

>  <SCORE.INTRA>
0.893495

>  <SCORE.INTRA.DIHEDRAL>
-5.91838

>  <SCORE.INTRA.DIHEDRAL.0>
16.2083

>  <SCORE.INTRA.POLAR>
0

>  <SCORE.INTRA.POLAR.0>
0

>  <SCORE.INTRA.REPUL>
0

>  <SCORE.INTRA.REPUL.0>
0

>  <SCORE.INTRA.SOLV>
1.59316

>  <SCORE.INTRA.SOLV.lig_0>
-89.8095

>  <SCORE.INTRA.VDW>
3.05611

>  <SCORE.INTRA.VDW.0>
-3.19502

>  <SCORE.INTRA.norm>
0.0241485

>  <SCORE.RESTR>
0

>  <SCORE.RESTR.CAVITY>
0

>  <SCORE.RESTR.norm>
0

>  <SCORE.SYSTEM>
0

>  <SCORE.SYSTEM.CONST>
0

>  <SCORE.SYSTEM.DIHEDRAL>
0

>  <SCORE.SYSTEM.SOLV>
0

>  <SCORE.SYSTEM.norm>
0

>  <SCORE.heavy>
37

>  <SCORE.norm>
-0.559107

>  <RMSD>
2.869

$$$$
2oe5_lig
 OpenBabel11021811463D
libRbt.so/2013.1/901 2013/11/27
 37 40  0  0  0  0  0  0  0  0999 V2000
   20.2209    3.0476   53.9894 C   0  0  1  0  0  0  0  0  0  0  0  0
   18.7504    2.6919   53.6755 C   0  0  1  0  0  0  0  0  0  0  0  0
   18.6483    1.1586   53.3351 C   0  0  0  0  0  0  0  0  0  0  0  0
   19.5743    0.9488   52.1161 C   0  0  1  0  0  0  0  0  0  0  0  0
   21.0841    1.3248   52.4562 C   0  0  1  0  0  0  0  0  0  0  0  0
   22.0337    1.1139   51.2454 C   0  0  1  0  0  0  0  0  0  0  0  0
   21.9344   -0.3871   50.8505 C   0  0  1  0  0  0  0  0  0  0  0  0
   20.4220   -0.7267   50.5667 C   0  0  2  0  0  0  0  0  0  0  0  0
   23.2398   -2.0737   49.3294 C   0  0  0  0  0  0  0  0  0  0  0  0
   17.8955    2.9949   54.8463 N   0  0  0  0  0  0  0  0  0  0  0  0
   22.7941   -0.6707   49.6401 N   0  0  0  0  0  0  0  0  0  0  0  0
   20.7065    2.3519   55.1492 O   0  0  0  0  0  0  0  0  0  0  0  0
   21.1209    2.7287   52.8709 O   0  0  0  0  0  0  0  0  0  0  0  0
   19.5454   -0.4490   51.7210 O   0  0  0  0  0  0  0  0  0  0  0  0
   21.5954    1.9715   50.1868 O   0  0  0  0  0  0  0  0  0  0  0  0
   20.2835   -2.1011   50.2652 O   0  0  0  0  0  0  0  0  0  0  0  0
   18.9727   -2.5386   50.5706 C   0  0  2  0  0  0  0  0  0  0  0  0
   18.9644   -3.8766   51.3091 C   0  0  1  0  0  0  0  0  0  0  0  0
   19.5376   -5.0127   50.4182 C   0  0  2  0  0  0  0  0  0  0  0  0
   18.6854   -5.0624   49.1155 C   0  0  1  0  0  0  0  0  0  0  0  0
   18.7925   -3.6709   48.4094 C   0  0  1  0  0  0  0  0  0  0  0  0
   17.9568   -3.5865   47.1516 C   0  0  0  0  0  0  0  0  0  0  0  0
   19.2336   -6.1674   48.2423 N   0  0  0  0  0  0  0  0  0  0  0  0
   18.2308   -2.6631   49.3169 O   0  0  0  0  0  0  0  0  0  0  0  0
   19.7521   -3.7161   52.5055 O   0  0  0  0  0  0  0  0  0  0  0  0
   19.3980   -6.2537   51.1333 O   0  0  0  0  0  0  0  0  0  0  0  0
   18.0836   -2.3561   46.5250 O   0  0  0  0  0  0  0  0  0  0  0  0
   20.2933    2.9246   56.3902 C   0  0  1  0  0  0  0  0  0  0  0  0
   19.8839    1.7870   57.3928 C   0  0  1  0  0  0  0  0  0  0  0  0
   19.4465    2.4404   58.7531 C   0  0  2  0  0  0  0  0  0  0  0  0
   20.6241    3.2359   59.3363 C   0  0  1  0  0  0  0  0  0  0  0  0
   21.0247    4.3868   58.3348 C   0  0  0  0  0  0  0  0  0  0  0  0
   21.4501    3.7335   56.9613 C   0  0  2  0  0  0  0  0  0  0  0  0
   20.2128    3.8191   60.6027 N   0  0  0  0  0  0  0  0  0  0  0  0
   21.8150    4.7888   55.9800 N   0  0  0  0  0  0  0  0  0  0  0  0
   18.7677    1.0295   56.8434 O   0  0  0  0  0  0  0  0  0  0  0  0
   19.0975    1.4266   59.6580 O   0  0  0  0  0  0  0  0  0  0  0  0
  1  2  1  0  0  0  0
  1 12  1  1  0  0  0
  1 13  1  0  0  0  0
  2  3  1  0  0  0  0
  2 10  1  1  0  0  0
  4  3  1  1  0  0  0
  4  5  1  0  0  0  0
  4 14  1  0  0  0  0
  5  6  1  0  0  0  0
  5 13  1  6  0  0  0
  6  7  1  0  0  0  0
  6 15  1  6  0  0  0
  7  8  1  0  0  0  0
  7 11  1  6  0  0  0
  8 14  1  0  0  0  0
  8 16  1  1  0  0  0
  9 11  1  0  0  0  0
 17 16  1  6  0  0  0
 17 18  1  0  0  0  0
 17 24  1  0  0  0  0
 18 19  1  0  0  0  0
 18 25  1  1  0  0  0
 19 20  1  0  0  0  0
 19 26  1  1  0  0  0
 20 21  1  0  0  0  0
 20 23  1  6  0  0  0
 21 22  1  6  0  0  0
 21 24  1  0  0  0  0
 22 27  1  0  0  0  0
 28 12  1  6  0  0  0
 28 29  1  0  0  0  0
 28 33  1  0  0  0  0
 29 30  1  0  0  0  0
 29 36  1  6  0  0  0
 30 31  1  0  0  0  0
 30 37  1  1  0  0  0
 31 32  1  0  0  0  0
 31 34  1  1  0  0  0
 32 33  1  0  0  0  0
 33 35  1  6  0  0  0
M  END
>  <CHROM.1>
-79.12285106,159.59590116,154.90001552,-135.33059386,-178.83690081,138.10209724
19.99393393,-0.07581077,52.86039606,-1.41365983,-1.09335015,-2.10503390

>  <Name>
2oe5_lig

>  <RI>
0

>  <Rbt.Current_Directory>
/home/itssahil/PROJECTS/Mol_Feturizer/New_Systems/rnas/2oe5

>  <Rbt.Executable>
rbdock ($Id: //depot/dev/client3/rdock/2013.1/src/exe/rbdock.cxx#4 $)

>  <Rbt.Library>
libRbt.so (2013.1, Build901 2013/11/27)

>  <Rbt.Parameter_File>
/export/apps/rDock/src/rDock_2013.1_src/data/scripts/dock_solv.prm

>  <Rbt.Receptor>
prm/pocket_docking_4.prm

>  <SCORE>
-15.9577

>  <SCORE.INTER>
-18.5225

>  <SCORE.INTER.CONST>
1

>  <SCORE.INTER.POLAR>
-1.3738

>  <SCORE.INTER.ROT>
6

>  <SCORE.INTER.SOLV>
14.6617

>  <SCORE.INTER.VDW>
-20.2562

>  <SCORE.INTER.norm>
-0.500608

>  <SCORE.INTRA>
2.5648

>  <SCORE.INTRA.DIHEDRAL>
0.299252

>  <SCORE.INTRA.DIHEDRAL.0>
16.2083

>  <SCORE.INTRA.POLAR>
0

>  <SCORE.INTRA.POLAR.0>
0

>  <SCORE.INTRA.REPUL>
0

>  <SCORE.INTRA.REPUL.0>
0

>  <SCORE.INTRA.SOLV>
0.25003

>  <SCORE.INTRA.SOLV.lig_0>
-89.8095

>  <SCORE.INTRA.VDW>
2.29016

>  <SCORE.INTRA.VDW.0>
-3.19502

>  <SCORE.INTRA.norm>
0.0693188

>  <SCORE.RESTR>
0

>  <SCORE.RESTR.CAVITY>
0

>  <SCORE.RESTR.norm>
0

>  <SCORE.SYSTEM>
0

>  <SCORE.SYSTEM.CONST>
0

>  <SCORE.SYSTEM.DIHEDRAL>
0

>  <SCORE.SYSTEM.SOLV>
0

>  <SCORE.SYSTEM.norm>
0

>  <SCORE.heavy>
37

>  <SCORE.norm>
-0.431289

>  <RMSD>
2.972

$$$$
2oe5_lig
 OpenBabel11021811463D
libRbt.so/2013.1/901 2013/11/27
 37 40  0  0  0  0  0  0  0  0999 V2000
   20.6948    0.6649   54.0258 C   0  0  1  0  0  0  0  0  0  0  0  0
   20.2922    1.5650   52.8362 C   0  0  1  0  0  0  0  0  0  0  0  0
   19.1709    0.8465   51.9974 C   0  0  0  0  0  0  0  0  0  0  0  0
   19.7987   -0.4877   51.5356 C   0  0  1  0  0  0  0  0  0  0  0  0
   20.2118   -1.4000   52.7739 C   0  0  1  0  0  0  0  0  0  0  0  0
   20.8387   -2.7503   52.3312 C   0  0  1  0  0  0  0  0  0  0  0  0
   19.7732   -3.4794   51.4642 C   0  0  1  0  0  0  0  0  0  0  0  0
   19.3607   -2.5262   50.2791 C   0  0  2  0  0  0  0  0  0  0  0  0
   19.8220   -6.0985   51.4911 C   0  0  0  0  0  0  0  0  0  0  0  0
   19.7803    2.8625   53.3341 N   0  0  0  0  0  0  0  0  0  0  0  0
   20.3228   -4.7886   50.9460 N   0  0  0  0  0  0  0  0  0  0  0  0
   19.6002    0.4495   54.9315 O   0  0  0  0  0  0  0  0  0  0  0  0
   21.1745   -0.6543   53.5871 O   0  0  0  0  0  0  0  0  0  0  0  0
   18.8323   -1.2290   50.7436 O   0  0  0  0  0  0  0  0  0  0  0  0
   22.0244   -2.4617   51.5836 O   0  0  0  0  0  0  0  0  0  0  0  0
   18.3451   -3.1311   49.5033 O   0  0  0  0  0  0  0  0  0  0  0  0
   18.9101   -4.0609   48.5982 C   0  0  2  0  0  0  0  0  0  0  0  0
   19.5746   -3.3778   47.4035 C   0  0  1  0  0  0  0  0  0  0  0  0
   18.5323   -2.6096   46.5454 C   0  0  2  0  0  0  0  0  0  0  0  0
   17.4460   -3.6330   46.0997 C   0  0  1  0  0  0  0  0  0  0  0  0
   16.7939   -4.2421   47.3841 C   0  0  1  0  0  0  0  0  0  0  0  0
   15.7535   -5.2940   47.0702 C   0  0  0  0  0  0  0  0  0  0  0  0
   16.4278   -2.8955   45.2610 N   0  0  0  0  0  0  0  0  0  0  0  0
   17.8443   -4.9456   48.1299 O   0  0  0  0  0  0  0  0  0  0  0  0
   20.5760   -2.4790   47.9201 O   0  0  0  0  0  0  0  0  0  0  0  0
   19.2069   -2.0872   45.3864 O   0  0  0  0  0  0  0  0  0  0  0  0
   15.3374   -5.9692   48.2075 O   0  0  0  0  0  0  0  0  0  0  0  0
   19.8472    0.8984   56.2643 C   0  0  1  0  0  0  0  0  0  0  0  0
   18.5372    1.5182   56.8699 C   0  0  1  0  0  0  0  0  0  0  0  0
   18.8301    1.9919   58.3390 C   0  0  2  0  0  0  0  0  0  0  0  0
   19.2627    0.7850   59.1852 C   0  0  1  0  0  0  0  0  0  0  0  0
   20.5862    0.1725   58.5841 C   0  0  0  0  0  0  0  0  0  0  0  0
   20.2987   -0.2905   57.1017 C   0  0  2  0  0  0  0  0  0  0  0  0
   19.5122    1.2330   60.5454 N   0  0  0  0  0  0  0  0  0  0  0  0
   21.5305   -0.8551   56.4903 N   0  0  0  0  0  0  0  0  0  0  0  0
   18.1228    2.6628   56.0701 O   0  0  0  0  0  0  0  0  0  0  0  0
   17.6573    2.5295   58.8904 O   0  0  0  0  0  0  0  0  0  0  0  0
  1  2  1  0  0  0  0
  1 12  1  1  0  0  0
  1 13  1  0  0  0  0
  2  3  1  0  0  0  0
  2 10  1  1  0  0  0
  4  3  1  1  0  0  0
  4  5  1  0  0  0  0
  4 14  1  0  0  0  0
  5  6  1  0  0  0  0
  5 13  1  1  0  0  0
  6  7  1  0  0  0  0
  6 15  1  6  0  0  0
  7  8  1  0  0  0  0
  7 11  1  6  0  0  0
  8 14  1  0  0  0  0
  8 16  1  1  0  0  0
  9 11  1  0  0  0  0
 17 16  1  1  0  0  0
 17 18  1  0  0  0  0
 17 24  1  0  0  0  0
 18 19  1  0  0  0  0
 18 25  1  1  0  0  0
 19 20  1  0  0  0  0
 19 26  1  6  0  0  0
 20 21  1  0  0  0  0
 20 23  1  6  0  0  0
 21 22  1  6  0  0  0
 21 24  1  0  0  0  0
 22 27  1  0  0  0  0
 28 12  1  6  0  0  0
 28 29  1  0  0  0  0
 28 33  1  0  0  0  0
 29 30  1  0  0  0  0
 29 36  1  6  0  0  0
 30 31  1  0  0  0  0
 30 37  1  1  0  0  0
 31 32  1  0  0  0  0
 31 34  1  1  0  0  0
 32 33  1  0  0  0  0
 33 35  1  6  0  0  0
M  END
>  <CHROM.1>
-120.33687812,108.57580659,-80.94000535,-76.28874986,170.59303861,142.43087712
19.19296081,-1.46812853,52.11530737,1.06935446,-1.28820087,0.61007032

>  <Name>
2oe5_lig

>  <RI>
0

>  <Rbt.Current_Directory>
/home/itssahil/PROJECTS/Mol_Feturizer/New_Systems/rnas/2oe5

>  <Rbt.Executable>
rbdock ($Id: //depot/dev/client3/rdock/2013.1/src/exe/rbdock.cxx#4 $)

>  <Rbt.Library>
libRbt.so (2013.1, Build901 2013/11/27)

>  <Rbt.Parameter_File>
/export/apps/rDock/src/rDock_2013.1_src/data/scripts/dock_solv.prm

>  <Rbt.Receptor>
prm/pocket_docking_4.prm

>  <SCORE>
-27.8763

>  <SCORE.INTER>
-29.3765

>  <SCORE.INTER.CONST>
1

>  <SCORE.INTER.POLAR>
-3.32797

>  <SCORE.INTER.ROT>
6

>  <SCORE.INTER.SOLV>
17.5985

>  <SCORE.INTER.VDW>
-21.9573

>  <SCORE.INTER.norm>
-0.79396

>  <SCORE.INTRA>
1.46545

>  <SCORE.INTRA.DIHEDRAL>
0.571309

>  <SCORE.INTRA.DIHEDRAL.0>
16.2083

>  <SCORE.INTRA.POLAR>
0

>  <SCORE.INTRA.POLAR.0>
0

>  <SCORE.INTRA.REPUL>
0

>  <SCORE.INTRA.REPUL.0>
0

>  <SCORE.INTRA.SOLV>
0.868306

>  <SCORE.INTRA.SOLV.lig_0>
-89.8095

>  <SCORE.INTRA.VDW>
0.74564

>  <SCORE.INTRA.VDW.0>
-3.19502

>  <SCORE.INTRA.norm>
0.0396067

>  <SCORE.RESTR>
0.0347988

>  <SCORE.RESTR.CAVITY>
0.0347988

>  <SCORE.RESTR.norm>
0.000940509

>  <SCORE.SYSTEM>
0

>  <SCORE.SYSTEM.CONST>
0

>  <SCORE.SYSTEM.DIHEDRAL>
0

>  <SCORE.SYSTEM.SOLV>
0

>  <SCORE.SYSTEM.norm>
0

>  <SCORE.heavy>
37

>  <SCORE.norm>
-0.753413

>  <RMSD>
2.991

$$$$
2oe5_lig
 OpenBabel11021811463D
libRbt.so/2013.1/901 2013/11/27
 37 40  0  0  0  0  0  0  0  0999 V2000
   20.2657    1.7463   54.2422 C   0  0  1  0  0  0  0  0  0  0  0  0
   19.4095    2.3411   53.1019 C   0  0  1  0  0  0  0  0  0  0  0  0
   18.4550    1.2264   52.5333 C   0  0  0  0  0  0  0  0  0  0  0  0
   19.3913    0.1019   52.0368 C   0  0  1  0  0  0  0  0  0  0  0  0
   20.2691   -0.4957   53.2236 C   0  0  1  0  0  0  0  0  0  0  0  0
   21.2129   -1.6334   52.7470 C   0  0  1  0  0  0  0  0  0  0  0  0
   20.3092   -2.7446   52.1407 C   0  0  1  0  0  0  0  0  0  0  0  0
   19.4276   -2.1020   51.0036 C   0  0  2  0  0  0  0  0  0  0  0  0
   22.5069   -4.1694   52.1947 C   0  0  0  0  0  0  0  0  0  0  0  0
   18.5990    3.4700   53.6139 N   0  0  0  0  0  0  0  0  0  0  0  0
   21.1554   -3.8754   51.6024 N   0  0  0  0  0  0  0  0  0  0  0  0
   19.4595    1.3133   55.3501 O   0  0  0  0  0  0  0  0  0  0  0  0
   21.0628    0.5938   53.7957 O   0  0  0  0  0  0  0  0  0  0  0  0
   18.5963   -0.9822   51.4860 O   0  0  0  0  0  0  0  0  0  0  0  0
   22.1066   -1.0856   51.7726 O   0  0  0  0  0  0  0  0  0  0  0  0
   18.5458   -3.0701   50.4704 O   0  0  0  0  0  0  0  0  0  0  0  0
   19.2529   -3.9676   49.6352 C   0  0  2  0  0  0  0  0  0  0  0  0
   19.4090   -3.4351   48.2112 C   0  0  1  0  0  0  0  0  0  0  0  0
   18.0291   -3.2863   47.5135 C   0  0  2  0  0  0  0  0  0  0  0  0
   17.3374   -4.6816   47.5398 C   0  0  1  0  0  0  0  0  0  0  0  0
   17.1805   -5.1198   49.0330 C   0  0  1  0  0  0  0  0  0  0  0  0
   16.5634   -6.4930   49.1785 C   0  0  0  0  0  0  0  0  0  0  0  0
   15.9942   -4.5482   46.8602 N   0  0  0  0  0  0  0  0  0  0  0  0
   18.5251   -5.2355   49.6101 O   0  0  0  0  0  0  0  0  0  0  0  0
   20.0808   -2.1626   48.2957 O   0  0  0  0  0  0  0  0  0  0  0  0
   18.2595   -2.8881   46.1499 O   0  0  0  0  0  0  0  0  0  0  0  0
   17.3033   -7.4671   48.5257 O   0  0  0  0  0  0  0  0  0  0  0  0
   20.1682    1.2150   56.5858 C   0  0  1  0  0  0  0  0  0  0  0  0
   21.1209   -0.0333   56.5566 C   0  0  1  0  0  0  0  0  0  0  0  0
   21.8983   -0.1125   57.9196 C   0  0  2  0  0  0  0  0  0  0  0  0
   22.7338    1.1635   58.1027 C   0  0  1  0  0  0  0  0  0  0  0  0
   21.7744    2.4149   58.1462 C   0  0  0  0  0  0  0  0  0  0  0  0
   20.9802    2.4879   56.7830 C   0  0  2  0  0  0  0  0  0  0  0  0
   23.4620    1.0695   59.3573 N   0  0  0  0  0  0  0  0  0  0  0  0
   20.0461    3.6444   56.7923 N   0  0  0  0  0  0  0  0  0  0  0  0
   20.3329   -1.2459   56.3824 O   0  0  0  0  0  0  0  0  0  0  0  0
   22.7644   -1.2158   57.8907 O   0  0  0  0  0  0  0  0  0  0  0  0
  1  2  1  0  0  0  0
  1 12  1  1  0  0  0
  1 13  1  0  0  0  0
  2  3  1  0  0  0  0
  2 10  1  1  0  0  0
  4  3  1  1  0  0  0
  4  5  1  0  0  0  0
  4 14  1  0  0  0  0
  5  6  1  0  0  0  0
  5 13  1  6  0  0  0
  6  7  1  0  0  0  0
  6 15  1  6  0  0  0
  7  8  1  0  0  0  0
  7 11  1  6  0  0  0
  8 14  1  0  0  0  0
  8 16  1  1  0  0  0
  9 11  1  0  0  0  0
 17 16  1  1  0  0  0
 17 18  1  0  0  0  0
 17 24  1  0  0  0  0
 18 19  1  0  0  0  0
 18 25  1  1  0  0  0
 19 20  1  0  0  0  0
 19 26  1  6  0  0  0
 20 21  1  0  0  0  0
 20 23  1  1  0  0  0
 21 22  1  6  0  0  0
 21 24  1  0  0  0  0
 22 27  1  0  0  0  0
 28 12  1  6  0  0  0
 28 29  1  0  0  0  0
 28 33  1  0  0  0  0
 29 30  1  0  0  0  0
 29 36  1  1  0  0  0
 30 31  1  0  0  0  0
 30 37  1  6  0  0  0
 31 32  1  0  0  0  0
 31 34  1  1  0  0  0
 32 33  1  0  0  0  0
 33 35  1  1  0  0  0
M  END
>  <CHROM.1>
-158.47416291,27.95406851,-74.86787188,-84.57996782,58.13265424,-72.75873765
19.83602041,-1.37807058,52.56639986,0.97439535,-0.99842065,0.44893001

>  <Name>
2oe5_lig

>  <RI>
0

>  <Rbt.Current_Directory>
/home/itssahil/PROJECTS/Mol_Feturizer/New_Systems/rnas/2oe5

>  <Rbt.Executable>
rbdock ($Id: //depot/dev/client3/rdock/2013.1/src/exe/rbdock.cxx#4 $)

>  <Rbt.Library>
libRbt.so (2013.1, Build901 2013/11/27)

>  <Rbt.Parameter_File>
/export/apps/rDock/src/rDock_2013.1_src/data/scripts/dock_solv.prm

>  <Rbt.Receptor>
prm/pocket_docking_6.prm

>  <SCORE>
-18.4122

>  <SCORE.INTER>
-18.6048

>  <SCORE.INTER.CONST>
1

>  <SCORE.INTER.POLAR>
-1.4718

>  <SCORE.INTER.ROT>
6

>  <SCORE.INTER.SOLV>
17.7253

>  <SCORE.INTER.VDW>
-21.0056

>  <SCORE.INTER.norm>
-0.502833

>  <SCORE.INTRA>
0.192624

>  <SCORE.INTRA.DIHEDRAL>
-9.01368

>  <SCORE.INTRA.DIHEDRAL.0>
16.2083

>  <SCORE.INTRA.POLAR>
0

>  <SCORE.INTRA.POLAR.0>
0

>  <SCORE.INTRA.REPUL>
0

>  <SCORE.INTRA.REPUL.0>
0

>  <SCORE.INTRA.SOLV>
1.11573

>  <SCORE.INTRA.SOLV.lig_0>
-89.8095

>  <SCORE.INTRA.VDW>
4.1416

>  <SCORE.INTRA.VDW.0>
-3.19502

>  <SCORE.INTRA.norm>
0.00520604

>  <SCORE.RESTR>
0

>  <SCORE.RESTR.CAVITY>
0

>  <SCORE.RESTR.norm>
0

>  <SCORE.SYSTEM>
0

>  <SCORE.SYSTEM.CONST>
0

>  <SCORE.SYSTEM.DIHEDRAL>
0

>  <SCORE.SYSTEM.SOLV>
0

>  <SCORE.SYSTEM.norm>
0

>  <SCORE.heavy>
37

>  <SCORE.norm>
-0.497627

>  <RMSD>
3.005

$$$$
2oe5_lig
 OpenBabel11021811463D
libRbt.so/2013.1/901 2013/11/27
 37 40  0  0  0  0  0  0  0  0999 V2000
   22.6217    1.1589   56.7857 C   0  0  1  0  0  0  0  0  0  0  0  0
   21.5743    1.9299   55.9515 C   0  0  1  0  0  0  0  0  0  0  0  0
   20.8226    0.9235   55.0032 C   0  0  0  0  0  0  0  0  0  0  0  0
   21.9241    0.2932   54.1218 C   0  0  1  0  0  0  0  0  0  0  0  0
   22.9969   -0.4927   54.9981 C   0  0  1  0  0  0  0  0  0  0  0  0
   24.1100   -1.1407   54.1301 C   0  0  1  0  0  0  0  0  0  0  0  0
   23.4041   -2.1189   53.1484 C   0  0  1  0  0  0  0  0  0  0  0  0
   22.3226   -1.3115   52.3351 C   0  0  2  0  0  0  0  0  0  0  0  0
   24.0503   -3.9709   51.4120 C   0  0  0  0  0  0  0  0  0  0  0  0
   20.5959    2.5859   56.8491 N   0  0  0  0  0  0  0  0  0  0  0  0
   24.4156   -2.7592   52.2257 N   0  0  0  0  0  0  0  0  0  0  0  0
   22.0111    0.1846   57.6476 O   0  0  0  0  0  0  0  0  0  0  0  0
   23.5970    0.4545   55.9398 O   0  0  0  0  0  0  0  0  0  0  0  0
   21.3233   -0.6573   53.2019 O   0  0  0  0  0  0  0  0  0  0  0  0
   24.7934   -0.0927   53.4354 O   0  0  0  0  0  0  0  0  0  0  0  0
   21.6150   -2.1825   51.4749 O   0  0  0  0  0  0  0  0  0  0  0  0
   20.6686   -1.4554   50.7142 C   0  0  2  0  0  0  0  0  0  0  0  0
   19.3226   -2.1732   50.6225 C   0  0  1  0  0  0  0  0  0  0  0  0
   19.4561   -3.5205   49.8607 C   0  0  2  0  0  0  0  0  0  0  0  0
   20.0449   -3.2071   48.4533 C   0  0  1  0  0  0  0  0  0  0  0  0
   21.4357   -2.5189   48.6489 C   0  0  1  0  0  0  0  0  0  0  0  0
   22.0811   -2.1202   47.3405 C   0  0  0  0  0  0  0  0  0  0  0  0
   20.1761   -4.5121   47.7024 N   0  0  0  0  0  0  0  0  0  0  0  0
   21.2158   -1.2609   49.3724 O   0  0  0  0  0  0  0  0  0  0  0  0
   18.8541   -2.3893   51.9684 O   0  0  0  0  0  0  0  0  0  0  0  0
   18.1398   -4.0844   49.7180 O   0  0  0  0  0  0  0  0  0  0  0  0
   23.3123   -1.5120   47.5323 O   0  0  0  0  0  0  0  0  0  0  0  0
   21.4719    0.7268   58.8534 C   0  0  1  0  0  0  0  0  0  0  0  0
   20.1042    0.0302   59.1868 C   0  0  1  0  0  0  0  0  0  0  0  0
   19.5381    0.6332   60.5226 C   0  0  2  0  0  0  0  0  0  0  0  0
   20.5356    0.3712   61.6611 C   0  0  1  0  0  0  0  0  0  0  0  0
   21.9040    1.0833   61.3314 C   0  0  0  0  0  0  0  0  0  0  0  0
   22.4677    0.4900   59.9807 C   0  0  2  0  0  0  0  0  0  0  0  0
   19.9919    0.9169   62.8939 N   0  0  0  0  0  0  0  0  0  0  0  0
   23.7494    1.1524   59.6222 N   0  0  0  0  0  0  0  0  0  0  0  0
   19.1552    0.2754   58.1094 O   0  0  0  0  0  0  0  0  0  0  0  0
   18.3252    0.0005   60.8341 O   0  0  0  0  0  0  0  0  0  0  0  0
  1  2  1  0  0  0  0
  1 12  1  6  0  0  0
  1 13  1  0  0  0  0
  2  3  1  0  0  0  0
  2 10  1  1  0  0  0
  4  3  1  1  0  0  0
  4  5  1  0  0  0  0
  4 14  1  0  0  0  0
  5  6  1  0  0  0  0
  5 13  1  1  0  0  0
  6  7  1  0  0  0  0
  6 15  1  6  0  0  0
  7  8  1  0  0  0  0
  7 11  1  6  0  0  0
  8 14  1  0  0  0  0
  8 16  1  6  0  0  0
  9 11  1  0  0  0  0
 17 16  1  1  0  0  0
 17 18  1  0  0  0  0
 17 24  1  0  0  0  0
 18 19  1  0  0  0  0
 18 25  1  1  0  0  0
 19 20  1  0  0  0  0
 19 26  1  6  0  0  0
 20 21  1  0  0  0  0
 20 23  1  6  0  0  0
 21 22  1  6  0  0  0
 21 24  1  0  0  0  0
 22 27  1  0  0  0  0
 28 12  1  6  0  0  0
 28 29  1  0  0  0  0
 28 33  1  0  0  0  0
 29 30  1  0  0  0  0
 29 36  1  6  0  0  0
 30 31  1  0  0  0  0
 30 37  1  1  0  0  0
 31 32  1  0  0  0  0
 31 34  1  1  0  0  0
 32 33  1  0  0  0  0
 33 35  1  6  0  0  0
M  END
>  <CHROM.1>
-80.28895158,165.39887548,-178.32568535,-137.05727816,179.99446506,140.16965711
21.45539518,-0.83582814,54.37066037,-1.59591368,-0.22309855,-1.89340718

>  <Name>
2oe5_lig

>  <RI>
0

>  <Rbt.Current_Directory>
/home/itssahil/PROJECTS/Mol_Feturizer/New_Systems/rnas/2oe5

>  <Rbt.Executable>
rbdock ($Id: //depot/dev/client3/rdock/2013.1/src/exe/rbdock.cxx#4 $)

>  <Rbt.Library>
libRbt.so (2013.1, Build901 2013/11/27)

>  <Rbt.Parameter_File>
/export/apps/rDock/src/rDock_2013.1_src/data/scripts/dock_solv.prm

>  <Rbt.Receptor>
prm/pocket_docking_4.prm

>  <SCORE>
-22.7402

>  <SCORE.INTER>
-21.5473

>  <SCORE.INTER.CONST>
1

>  <SCORE.INTER.POLAR>
-3.08274

>  <SCORE.INTER.ROT>
6

>  <SCORE.INTER.SOLV>
10.0698

>  <SCORE.INTER.VDW>
-15.0457

>  <SCORE.INTER.norm>
-0.582361

>  <SCORE.INTRA>
-1.20953

>  <SCORE.INTRA.DIHEDRAL>
-2.88632

>  <SCORE.INTRA.DIHEDRAL.0>
16.2083

>  <SCORE.INTRA.POLAR>
0

>  <SCORE.INTRA.POLAR.0>
0

>  <SCORE.INTRA.REPUL>
0

>  <SCORE.INTRA.REPUL.0>
0

>  <SCORE.INTRA.SOLV>
0.186066

>  <SCORE.INTRA.SOLV.lig_0>
-89.8095

>  <SCORE.INTRA.VDW>
0.140596

>  <SCORE.INTRA.VDW.0>
-3.19502

>  <SCORE.INTRA.norm>
-0.03269

>  <SCORE.RESTR>
0.0166769

>  <SCORE.RESTR.CAVITY>
0.0166769

>  <SCORE.RESTR.norm>
0.000450727

>  <SCORE.SYSTEM>
0

>  <SCORE.SYSTEM.CONST>
0

>  <SCORE.SYSTEM.DIHEDRAL>
0

>  <SCORE.SYSTEM.SOLV>
0

>  <SCORE.SYSTEM.norm>
0

>  <SCORE.heavy>
37

>  <SCORE.norm>
-0.6146

>  <RMSD>
3.063

$$$$
2oe5_lig
 OpenBabel11021811463D
libRbt.so/2013.1/901 2013/11/27
 37 40  0  0  0  0  0  0  0  0999 V2000
   20.9958    0.2201   53.8049 C   0  0  1  0  0  0  0  0  0  0  0  0
   20.8839    1.0865   52.5305 C   0  0  1  0  0  0  0  0  0  0  0  0
   19.7011    0.5512   51.6407 C   0  0  0  0  0  0  0  0  0  0  0  0
   20.0631   -0.9165   51.3209 C   0  0  1  0  0  0  0  0  0  0  0  0
   20.1790   -1.7930   52.6455 C   0  0  1  0  0  0  0  0  0  0  0  0
   20.5353   -3.2747   52.3456 C   0  0  1  0  0  0  0  0  0  0  0  0
   19.4067   -3.8341   51.4335 C   0  0  1  0  0  0  0  0  0  0  0  0
   19.2962   -2.9137   50.1593 C   0  0  2  0  0  0  0  0  0  0  0  0
   20.9590   -5.6131   50.2986 C   0  0  0  0  0  0  0  0  0  0  0  0
   20.6243    2.4973   52.8989 N   0  0  0  0  0  0  0  0  0  0  0  0
   19.7020   -5.2657   51.0490 N   0  0  0  0  0  0  0  0  0  0  0  0
   19.8160    0.3089   54.6205 O   0  0  0  0  0  0  0  0  0  0  0  0
   21.2150   -1.2004   53.4939 O   0  0  0  0  0  0  0  0  0  0  0  0
   19.0229   -1.5024   50.4931 O   0  0  0  0  0  0  0  0  0  0  0  0
   21.8076   -3.2982   51.6908 O   0  0  0  0  0  0  0  0  0  0  0  0
   18.2358   -3.3550   49.3347 O   0  0  0  0  0  0  0  0  0  0  0  0
   18.7185   -4.2629   48.3622 C   0  0  2  0  0  0  0  0  0  0  0  0
   19.4249   -3.5548   47.2067 C   0  0  1  0  0  0  0  0  0  0  0  0
   18.4392   -2.6517   46.4156 C   0  0  2  0  0  0  0  0  0  0  0  0
   17.2722   -3.5550   45.9175 C   0  0  1  0  0  0  0  0  0  0  0  0
   16.5847   -4.1966   47.1673 C   0  0  1  0  0  0  0  0  0  0  0  0
   15.4623   -5.1407   46.7981 C   0  0  0  0  0  0  0  0  0  0  0  0
   16.3083   -2.6857   45.1435 N   0  0  0  0  0  0  0  0  0  0  0  0
   17.5826   -5.0283   47.8505 O   0  0  0  0  0  0  0  0  0  0  0  0
   20.4981   -2.7736   47.7685 O   0  0  0  0  0  0  0  0  0  0  0  0
   19.1432   -2.1066   45.2850 O   0  0  0  0  0  0  0  0  0  0  0  0
   14.5111   -4.5288   45.9960 O   0  0  0  0  0  0  0  0  0  0  0  0
   20.0525    0.8034   55.9389 C   0  0  1  0  0  0  0  0  0  0  0  0
   18.7417    1.4560   56.5071 C   0  0  1  0  0  0  0  0  0  0  0  0
   19.0228    1.9800   57.9613 C   0  0  2  0  0  0  0  0  0  0  0  0
   19.4351    0.8007   58.8553 C   0  0  1  0  0  0  0  0  0  0  0  0
   20.7595    0.1554   58.2916 C   0  0  0  0  0  0  0  0  0  0  0  0
   20.4840   -0.3583   56.8237 C   0  0  2  0  0  0  0  0  0  0  0  0
   19.6739    1.2954   60.2012 N   0  0  0  0  0  0  0  0  0  0  0  0
   21.7172   -0.9553   56.2469 N   0  0  0  0  0  0  0  0  0  0  0  0
   18.3465    2.5746   55.6620 O   0  0  0  0  0  0  0  0  0  0  0  0
   17.8490    2.5473   58.4798 O   0  0  0  0  0  0  0  0  0  0  0  0
  1  2  1  0  0  0  0
  1 12  1  6  0  0  0
  1 13  1  0  0  0  0
  2  3  1  0  0  0  0
  2 10  1  1  0  0  0
  4  3  1  1  0  0  0
  4  5  1  0  0  0  0
  4 14  1  0  0  0  0
  5  6  1  0  0  0  0
  5 13  1  1  0  0  0
  6  7  1  0  0  0  0
  6 15  1  6  0  0  0
  7  8  1  0  0  0  0
  7 11  1  6  0  0  0
  8 14  1  0  0  0  0
  8 16  1  6  0  0  0
  9 11  1  0  0  0  0
 17 16  1  1  0  0  0
 17 18  1  0  0  0  0
 17 24  1  0  0  0  0
 18 19  1  0  0  0  0
 18 25  1  1  0  0  0
 19 20  1  0  0  0  0
 19 26  1  6  0  0  0
 20 21  1  0  0  0  0
 20 23  1  1  0  0  0
 21 22  1  6  0  0  0
 21 24  1  0  0  0  0
 22 27  1  0  0  0  0
 28 12  1  6  0  0  0
 28 29  1  0  0  0  0
 28 33  1  0  0  0  0
 29 30  1  0  0  0  0
 29 36  1  6  0  0  0
 30 31  1  0  0  0  0
 30 37  1  1  0  0  0
 31 32  1  0  0  0  0
 31 34  1  1  0  0  0
 32 33  1  0  0  0  0
 33 35  1  6  0  0  0
M  END
>  <CHROM.1>
-120.24865775,-59.64819439,-92.53362276,-77.93642184,-55.28027530,154.90129361
19.24073420,-1.59595689,51.80785825,-1.33086723,0.71645998,-2.18803473

>  <Name>
2oe5_lig

>  <RI>
0

>  <Rbt.Current_Directory>
/home/itssahil/PROJECTS/Mol_Feturizer/New_Systems/rnas/2oe5

>  <Rbt.Executable>
rbdock ($Id: //depot/dev/client3/rdock/2013.1/src/exe/rbdock.cxx#4 $)

>  <Rbt.Library>
libRbt.so (2013.1, Build901 2013/11/27)

>  <Rbt.Parameter_File>
/export/apps/rDock/src/rDock_2013.1_src/data/scripts/dock_solv.prm

>  <Rbt.Receptor>
prm/pocket_docking_6.prm

>  <SCORE>
-25.6653

>  <SCORE.INTER>
-28.7551

>  <SCORE.INTER.CONST>
1

>  <SCORE.INTER.POLAR>
-3.5346

>  <SCORE.INTER.ROT>
6

>  <SCORE.INTER.SOLV>
17.323

>  <SCORE.INTER.VDW>
-20.7624

>  <SCORE.INTER.norm>
-0.777165

>  <SCORE.INTRA>
3.0898

>  <SCORE.INTRA.DIHEDRAL>
-0.724814

>  <SCORE.INTRA.DIHEDRAL.0>
16.2083

>  <SCORE.INTRA.POLAR>
0

>  <SCORE.INTRA.POLAR.0>
0

>  <SCORE.INTRA.REPUL>
0

>  <SCORE.INTRA.REPUL.0>
0

>  <SCORE.INTRA.SOLV>
1.79665

>  <SCORE.INTRA.SOLV.lig_0>
-89.8095

>  <SCORE.INTRA.VDW>
2.55388

>  <SCORE.INTRA.VDW.0>
-3.19502

>  <SCORE.INTRA.norm>
0.0835081

>  <SCORE.RESTR>
0

>  <SCORE.RESTR.CAVITY>
0

>  <SCORE.RESTR.norm>
0

>  <SCORE.SYSTEM>
0

>  <SCORE.SYSTEM.CONST>
0

>  <SCORE.SYSTEM.DIHEDRAL>
0

>  <SCORE.SYSTEM.SOLV>
0

>  <SCORE.SYSTEM.norm>
0

>  <SCORE.heavy>
37

>  <SCORE.norm>
-0.693657

>  <RMSD>
3.068

$$$$
2oe5_lig
 OpenBabel11021811463D
libRbt.so/2013.1/901 2013/11/27
 37 40  0  0  0  0  0  0  0  0999 V2000
   22.4907    1.1231   56.8705 C   0  0  1  0  0  0  0  0  0  0  0  0
   21.4501    1.8846   56.0194 C   0  0  1  0  0  0  0  0  0  0  0  0
   20.7273    0.8726   55.0548 C   0  0  0  0  0  0  0  0  0  0  0  0
   21.8518    0.2573   54.1920 C   0  0  1  0  0  0  0  0  0  0  0  0
   22.9172   -0.5190   55.0856 C   0  0  1  0  0  0  0  0  0  0  0  0
   24.0533   -1.1518   54.2363 C   0  0  1  0  0  0  0  0  0  0  0  0
   23.3767   -2.1350   53.2392 C   0  0  1  0  0  0  0  0  0  0  0  0
   22.3010   -1.3375   52.4084 C   0  0  2  0  0  0  0  0  0  0  0  0
   24.0772   -3.9780   51.5143 C   0  0  0  0  0  0  0  0  0  0  0  0
   20.4480    2.5269   56.9007 N   0  0  0  0  0  0  0  0  0  0  0  0
   24.4120   -2.7611   52.3334 N   0  0  0  0  0  0  0  0  0  0  0  0
   21.8756    0.1394   57.7184 O   0  0  0  0  0  0  0  0  0  0  0  0
   23.4892    0.4323   56.0407 O   0  0  0  0  0  0  0  0  0  0  0  0
   21.2787   -0.6972   53.2586 O   0  0  0  0  0  0  0  0  0  0  0  0
   24.7373   -0.0940   53.5571 O   0  0  0  0  0  0  0  0  0  0  0  0
   21.6192   -2.2139   51.5331 O   0  0  0  0  0  0  0  0  0  0  0  0
   20.6422   -1.5045   50.7947 C   0  0  2  0  0  0  0  0  0  0  0  0
   19.3032   -2.2396   50.7473 C   0  0  1  0  0  0  0  0  0  0  0  0
   19.4316   -3.5910   49.9920 C   0  0  2  0  0  0  0  0  0  0  0  0
   19.9756   -3.2813   48.5659 C   0  0  1  0  0  0  0  0  0  0  0  0
   21.3628   -2.5746   48.7161 C   0  0  1  0  0  0  0  0  0  0  0  0
   21.9651   -2.1782   47.3866 C   0  0  0  0  0  0  0  0  0  0  0  0
   20.1015   -4.5904   47.8212 N   0  0  0  0  0  0  0  0  0  0  0  0
   21.1481   -1.3137   49.4362 O   0  0  0  0  0  0  0  0  0  0  0  0
   18.8765   -2.4510   52.1077 O   0  0  0  0  0  0  0  0  0  0  0  0
   18.1189   -4.1722   49.8916 O   0  0  0  0  0  0  0  0  0  0  0  0
   23.1953   -1.5567   47.5380 O   0  0  0  0  0  0  0  0  0  0  0  0
   21.3302    0.6684   58.9273 C   0  0  1  0  0  0  0  0  0  0  0  0
   19.9737   -0.0502   59.2599 C   0  0  1  0  0  0  0  0  0  0  0  0
   19.4007    0.5386   60.5991 C   0  0  2  0  0  0  0  0  0  0  0  0
   20.4039    0.2870   61.7349 C   0  0  1  0  0  0  0  0  0  0  0  0
   21.7608    1.0211   61.4062 C   0  0  0  0  0  0  0  0  0  0  0  0
   22.3313    0.4419   60.0521 C   0  0  2  0  0  0  0  0  0  0  0  0
   19.8540    0.8192   62.9708 N   0  0  0  0  0  0  0  0  0  0  0  0
   23.6022    1.1251   59.6944 N   0  0  0  0  0  0  0  0  0  0  0  0
   19.0194    0.1852   58.1850 O   0  0  0  0  0  0  0  0  0  0  0  0
   18.1980   -0.1136   60.9098 O   0  0  0  0  0  0  0  0  0  0  0  0
  1  2  1  0  0  0  0
  1 12  1  6  0  0  0
  1 13  1  0  0  0  0
  2  3  1  0  0  0  0
  2 10  1  1  0  0  0
  4  3  1  1  0  0  0
  4  5  1  0  0  0  0
  4 14  1  0  0  0  0
  5  6  1  0  0  0  0
  5 13  1  1  0  0  0
  6  7  1  0  0  0  0
  6 15  1  6  0  0  0
  7  8  1  0  0  0  0
  7 11  1  6  0  0  0
  8 14  1  0  0  0  0
  8 16  1  6  0  0  0
  9 11  1  0  0  0  0
 17 16  1  1  0  0  0
 17 18  1  0  0  0  0
 17 24  1  0  0  0  0
 18 19  1  0  0  0  0
 18 25  1  1  0  0  0
 19 20  1  0  0  0  0
 19 26  1  6  0  0  0
 20 21  1  0  0  0  0
 20 23  1  6  0  0  0
 21 22  1  6  0  0  0
 21 24  1  0  0  0  0
 22 27  1  0  0  0  0
 28 12  1  6  0  0  0
 28 29  1  0  0  0  0
 28 33  1  0  0  0  0
 29 30  1  0  0  0  0
 29 36  1  6  0  0  0
 30 31  1  0  0  0  0
 30 37  1  1  0  0  0
 31 32  1  0  0  0  0
 31 34  1  1  0  0  0
 32 33  1  0  0  0  0
 33 35  1  6  0  0  0
M  END
>  <CHROM.1>
-81.39110884,165.13770903,179.38529492,-134.52312239,-179.83583033,141.19902952
21.37423845,-0.88748772,54.45474460,-1.60545521,-0.23558682,-1.89392683

>  <Name>
2oe5_lig

>  <RI>
0

>  <Rbt.Current_Directory>
/home/itssahil/PROJECTS/Mol_Feturizer/New_Systems/rnas/2oe5

>  <Rbt.Executable>
rbdock ($Id: //depot/dev/client3/rdock/2013.1/src/exe/rbdock.cxx#4 $)

>  <Rbt.Library>
libRbt.so (2013.1, Build901 2013/11/27)

>  <Rbt.Parameter_File>
/export/apps/rDock/src/rDock_2013.1_src/data/scripts/dock_solv.prm

>  <Rbt.Receptor>
prm/pocket_docking_5.prm

>  <SCORE>
-22.7824

>  <SCORE.INTER>
-21.818

>  <SCORE.INTER.CONST>
1

>  <SCORE.INTER.POLAR>
-3.17053

>  <SCORE.INTER.ROT>
6

>  <SCORE.INTER.SOLV>
10.6438

>  <SCORE.INTER.VDW>
-15.1249

>  <SCORE.INTER.norm>
-0.589677

>  <SCORE.INTRA>
-0.964409

>  <SCORE.INTRA.DIHEDRAL>
-2.53119

>  <SCORE.INTRA.DIHEDRAL.0>
16.2083

>  <SCORE.INTRA.POLAR>
0

>  <SCORE.INTRA.POLAR.0>
0

>  <SCORE.INTRA.REPUL>
0

>  <SCORE.INTRA.REPUL.0>
0

>  <SCORE.INTRA.SOLV>
0.137973

>  <SCORE.INTRA.SOLV.lig_0>
-89.8095

>  <SCORE.INTRA.VDW>
0.232198

>  <SCORE.INTRA.VDW.0>
-3.19502

>  <SCORE.INTRA.norm>
-0.0260651

>  <SCORE.RESTR>
0

>  <SCORE.RESTR.CAVITY>
0

>  <SCORE.RESTR.norm>
0

>  <SCORE.SYSTEM>
0

>  <SCORE.SYSTEM.CONST>
0

>  <SCORE.SYSTEM.DIHEDRAL>
0

>  <SCORE.SYSTEM.SOLV>
0

>  <SCORE.SYSTEM.norm>
0

>  <SCORE.heavy>
37

>  <SCORE.norm>
-0.615742

>  <RMSD>
3.101

$$$$
2oe5_lig
 OpenBabel11021811463D
libRbt.so/2013.1/901 2013/11/27
 37 40  0  0  0  0  0  0  0  0999 V2000
   20.7631    3.4020   54.4407 C   0  0  1  0  0  0  0  0  0  0  0  0
   19.6031    3.4650   53.4219 C   0  0  1  0  0  0  0  0  0  0  0  0
   19.3320    2.0226   52.8536 C   0  0  0  0  0  0  0  0  0  0  0  0
   20.6620    1.5850   52.1999 C   0  0  1  0  0  0  0  0  0  0  0  0
   21.8467    1.5304   53.2629 C   0  0  1  0  0  0  0  0  0  0  0  0
   23.1921    1.0853   52.6274 C   0  0  1  0  0  0  0  0  0  0  0  0
   22.9577   -0.3261   52.0177 C   0  0  1  0  0  0  0  0  0  0  0  0
   21.7514   -0.2365   51.0077 C   0  0  2  0  0  0  0  0  0  0  0  0
   25.3646   -1.3541   52.1318 C   0  0  0  0  0  0  0  0  0  0  0  0
   18.3781    3.9735   54.0808 N   0  0  0  0  0  0  0  0  0  0  0  0
   24.2108   -0.8167   51.3294 N   0  0  0  0  0  0  0  0  0  0  0  0
   20.4371    2.5843   55.5765 O   0  0  0  0  0  0  0  0  0  0  0  0
   21.9964    2.8652   53.8462 O   0  0  0  0  0  0  0  0  0  0  0  0
   20.5105    0.2538   51.6383 O   0  0  0  0  0  0  0  0  0  0  0  0
   23.5451    2.0444   51.6255 O   0  0  0  0  0  0  0  0  0  0  0  0
   21.4673   -1.5168   50.4793 O   0  0  0  0  0  0  0  0  0  0  0  0
   20.5053   -1.4164   49.4461 C   0  0  2  0  0  0  0  0  0  0  0  0
   19.1952   -2.1180   49.8025 C   0  0  1  0  0  0  0  0  0  0  0  0
   19.4052   -3.6482   49.9678 C   0  0  2  0  0  0  0  0  0  0  0  0
   20.0087   -4.1853   48.6362 C   0  0  1  0  0  0  0  0  0  0  0  0
   21.3627   -3.4451   48.3811 C   0  0  1  0  0  0  0  0  0  0  0  0
   22.0168   -3.8525   47.0797 C   0  0  0  0  0  0  0  0  0  0  0  0
   20.2143   -5.6750   48.7857 N   0  0  0  0  0  0  0  0  0  0  0  0
   21.0712   -2.0137   48.2375 O   0  0  0  0  0  0  0  0  0  0  0  0
   18.7088   -1.5320   51.0263 O   0  0  0  0  0  0  0  0  0  0  0  0
   18.1189   -4.2532   50.1927 O   0  0  0  0  0  0  0  0  0  0  0  0
   21.2462   -3.5064   45.9801 O   0  0  0  0  0  0  0  0  0  0  0  0
   19.5800    3.2180   56.5265 C   0  0  1  0  0  0  0  0  0  0  0  0
   18.9929    2.1465   57.5135 C   0  0  1  0  0  0  0  0  0  0  0  0
   18.0652    2.8686   58.5557 C   0  0  2  0  0  0  0  0  0  0  0  0
   18.8917    3.8934   59.3471 C   0  0  1  0  0  0  0  0  0  0  0  0
   19.4688    4.9768   58.3565 C   0  0  0  0  0  0  0  0  0  0  0  0
   20.3896    4.2514   57.2980 C   0  0  2  0  0  0  0  0  0  0  0  0
   18.0269    4.5405   60.3199 N   0  0  0  0  0  0  0  0  0  0  0  0
   20.9371    5.2376   56.3297 N   0  0  0  0  0  0  0  0  0  0  0  0
   18.2087    1.1721   56.7671 O   0  0  0  0  0  0  0  0  0  0  0  0
   17.5531    1.9174   59.4509 O   0  0  0  0  0  0  0  0  0  0  0  0
  1  2  1  0  0  0  0
  1 12  1  1  0  0  0
  1 13  1  0  0  0  0
  2  3  1  0  0  0  0
  2 10  1  1  0  0  0
  4  3  1  1  0  0  0
  4  5  1  0  0  0  0
  4 14  1  0  0  0  0
  5  6  1  0  0  0  0
  5 13  1  6  0  0  0
  6  7  1  0  0  0  0
  6 15  1  6  0  0  0
  7  8  1  0  0  0  0
  7 11  1  6  0  0  0
  8 14  1  0  0  0  0
  8 16  1  1  0  0  0
  9 11  1  0  0  0  0
 17 16  1  1  0  0  0
 17 18  1  0  0  0  0
 17 24  1  0  0  0  0
 18 19  1  0  0  0  0
 18 25  1  1  0  0  0
 19 20  1  0  0  0  0
 19 26  1  6  0  0  0
 20 21  1  0  0  0  0
 20 23  1  1  0  0  0
 21 22  1  6  0  0  0
 21 24  1  0  0  0  0
 22 27  1  0  0  0  0
 28 12  1  6  0  0  0
 28 29  1  0  0  0  0
 28 33  1  0  0  0  0
 29 30  1  0  0  0  0
 29 36  1  6  0  0  0
 30 31  1  0  0  0  0
 30 37  1  1  0  0  0
 31 32  1  0  0  0  0
 31 34  1  1  0  0  0
 32 33  1  0  0  0  0
 33 35  1  6  0  0  0
M  END
>  <CHROM.1>
-77.49031855,77.28596442,-172.40670300,-115.20390661,63.69831051,165.45588527
20.48824920,0.47829651,52.94840037,-1.75511715,-0.48951160,-2.30561877

>  <Name>
2oe5_lig

>  <RI>
0

>  <Rbt.Current_Directory>
/home/itssahil/PROJECTS/Mol_Feturizer/New_Systems/rnas/2oe5

>  <Rbt.Executable>
rbdock ($Id: //depot/dev/client3/rdock/2013.1/src/exe/rbdock.cxx#4 $)

>  <Rbt.Library>
libRbt.so (2013.1, Build901 2013/11/27)

>  <Rbt.Parameter_File>
/export/apps/rDock/src/rDock_2013.1_src/data/scripts/dock_solv.prm

>  <Rbt.Receptor>
prm/pocket_docking_4.prm

>  <SCORE>
-17.401

>  <SCORE.INTER>
-17.0555

>  <SCORE.INTER.CONST>
1

>  <SCORE.INTER.POLAR>
-1.90014

>  <SCORE.INTER.ROT>
6

>  <SCORE.INTER.SOLV>
11.5249

>  <SCORE.INTER.VDW>
-16.4781

>  <SCORE.INTER.norm>
-0.460959

>  <SCORE.INTRA>
-0.345485

>  <SCORE.INTRA.DIHEDRAL>
-6.09664

>  <SCORE.INTRA.DIHEDRAL.0>
16.2083

>  <SCORE.INTRA.POLAR>
0

>  <SCORE.INTRA.POLAR.0>
0

>  <SCORE.INTRA.REPUL>
0

>  <SCORE.INTRA.REPUL.0>
0

>  <SCORE.INTRA.SOLV>
1.86419

>  <SCORE.INTRA.SOLV.lig_0>
-89.8095

>  <SCORE.INTRA.VDW>
1.77074

>  <SCORE.INTRA.VDW.0>
-3.19502

>  <SCORE.INTRA.norm>
-0.00933743

>  <SCORE.RESTR>
0

>  <SCORE.RESTR.CAVITY>
0

>  <SCORE.RESTR.norm>
0

>  <SCORE.SYSTEM>
0

>  <SCORE.SYSTEM.CONST>
0

>  <SCORE.SYSTEM.DIHEDRAL>
0

>  <SCORE.SYSTEM.SOLV>
0

>  <SCORE.SYSTEM.norm>
0

>  <SCORE.heavy>
37

>  <SCORE.norm>
-0.470296

>  <RMSD>
3.129

$$$$
2oe5_lig
 OpenBabel11021811463D
libRbt.so/2013.1/901 2013/11/27
 37 40  0  0  0  0  0  0  0  0999 V2000
   20.9928    1.4628   56.2120 C   0  0  1  0  0  0  0  0  0  0  0  0
   19.6257    1.1173   55.5803 C   0  0  1  0  0  0  0  0  0  0  0  0
   19.6827   -0.3375   54.9824 C   0  0  0  0  0  0  0  0  0  0  0  0
   20.8193   -0.3044   53.9362 C   0  0  1  0  0  0  0  0  0  0  0  0
   22.2191    0.0579   54.6037 C   0  0  1  0  0  0  0  0  0  0  0  0
   23.3776    0.0894   53.5697 C   0  0  1  0  0  0  0  0  0  0  0  0
   23.4448   -1.3241   52.9247 C   0  0  1  0  0  0  0  0  0  0  0  0
   22.0302   -1.6603   52.3171 C   0  0  2  0  0  0  0  0  0  0  0  0
   25.0784   -2.6826   51.3922 C   0  0  0  0  0  0  0  0  0  0  0  0
   18.5615    1.1865   56.6080 N   0  0  0  0  0  0  0  0  0  0  0  0
   24.5194   -1.3673   51.8627 N   0  0  0  0  0  0  0  0  0  0  0  0
   21.3112    0.5953   57.3125 O   0  0  0  0  0  0  0  0  0  0  0  0
   22.0932    1.3704   55.2408 O   0  0  0  0  0  0  0  0  0  0  0  0
   20.9492   -1.6139   53.3207 O   0  0  0  0  0  0  0  0  0  0  0  0
   23.0776    1.1006   52.6023 O   0  0  0  0  0  0  0  0  0  0  0  0
   22.0346   -2.9667   51.7761 O   0  0  0  0  0  0  0  0  0  0  0  0
   21.0763   -3.0694   50.7397 C   0  0  2  0  0  0  0  0  0  0  0  0
   19.8746   -3.9232   51.1426 C   0  0  1  0  0  0  0  0  0  0  0  0
   20.2954   -5.3948   51.4073 C   0  0  2  0  0  0  0  0  0  0  0  0
   20.9789   -5.9272   50.1130 C   0  0  1  0  0  0  0  0  0  0  0  0
   22.2180   -5.0226   49.8086 C   0  0  1  0  0  0  0  0  0  0  0  0
   22.9331   -5.4178   48.5359 C   0  0  0  0  0  0  0  0  0  0  0  0
   21.3899   -7.3605   50.3593 N   0  0  0  0  0  0  0  0  0  0  0  0
   21.7301   -3.6586   49.5721 O   0  0  0  0  0  0  0  0  0  0  0  0
   19.3010   -3.3330   52.3260 O   0  0  0  0  0  0  0  0  0  0  0  0
   19.1047   -6.1583   51.6726 O   0  0  0  0  0  0  0  0  0  0  0  0
   22.1196   -5.2874   47.4206 O   0  0  0  0  0  0  0  0  0  0  0  0
   20.8005    1.0357   58.5710 C   0  0  1  0  0  0  0  0  0  0  0  0
   20.5564   -0.1997   59.5097 C   0  0  1  0  0  0  0  0  0  0  0  0
   20.0081    0.3107   60.8907 C   0  0  2  0  0  0  0  0  0  0  0  0
   21.0439    1.2447   61.5346 C   0  0  1  0  0  0  0  0  0  0  0  0
   21.2773    2.4919   60.5975 C   0  0  0  0  0  0  0  0  0  0  0  0
   21.8139    1.9804   59.2030 C   0  0  2  0  0  0  0  0  0  0  0  0
   20.5331    1.6946   62.8191 N   0  0  0  0  0  0  0  0  0  0  0  0
   22.0262    3.1268   58.2807 N   0  0  0  0  0  0  0  0  0  0  0  0
   19.5752   -1.0886   58.9026 O   0  0  0  0  0  0  0  0  0  0  0  0
   19.8062   -0.7884   61.7389 O   0  0  0  0  0  0  0  0  0  0  0  0
  1  2  1  0  0  0  0
  1 12  1  1  0  0  0
  1 13  1  0  0  0  0
  2  3  1  0  0  0  0
  2 10  1  1  0  0  0
  4  3  1  1  0  0  0
  4  5  1  0  0  0  0
  4 14  1  0  0  0  0
  5  6  1  0  0  0  0
  5 13  1  6  0  0  0
  6  7  1  0  0  0  0
  6 15  1  6  0  0  0
  7  8  1  0  0  0  0
  7 11  1  6  0  0  0
  8 14  1  0  0  0  0
  8 16  1  1  0  0  0
  9 11  1  0  0  0  0
 17 16  1  1  0  0  0
 17 18  1  0  0  0  0
 17 24  1  0  0  0  0
 18 19  1  0  0  0  0
 18 25  1  1  0  0  0
 19 20  1  0  0  0  0
 19 26  1  6  0  0  0
 20 21  1  0  0  0  0
 20 23  1  1  0  0  0
 21 22  1  6  0  0  0
 21 24  1  0  0  0  0
 22 27  1  0  0  0  0
 28 12  1  6  0  0  0
 28 29  1  0  0  0  0
 28 33  1  0  0  0  0
 29 30  1  0  0  0  0
 29 36  1  6  0  0  0
 30 31  1  0  0  0  0
 30 37  1  1  0  0  0
 31 32  1  0  0  0  0
 31 34  1  1  0  0  0
 32 33  1  0  0  0  0
 33 35  1  6  0  0  0
M  END
>  <CHROM.1>
-87.27181657,161.02549066,-153.25413059,-108.93405264,62.16958757,152.19606823
21.30179895,-1.38744914,54.53161211,-1.71211712,-0.85459842,-2.21679222

>  <Name>
2oe5_lig

>  <RI>
0

>  <Rbt.Current_Directory>
/home/itssahil/PROJECTS/Mol_Feturizer/New_Systems/rnas/2oe5

>  <Rbt.Executable>
rbdock ($Id: //depot/dev/client3/rdock/2013.1/src/exe/rbdock.cxx#4 $)

>  <Rbt.Library>
libRbt.so (2013.1, Build901 2013/11/27)

>  <Rbt.Parameter_File>
/export/apps/rDock/src/rDock_2013.1_src/data/scripts/dock_solv.prm

>  <Rbt.Receptor>
prm/pocket_docking_5.prm

>  <SCORE>
-12.8677

>  <SCORE.INTER>
-13.3147

>  <SCORE.INTER.CONST>
1

>  <SCORE.INTER.POLAR>
-1.94571

>  <SCORE.INTER.ROT>
6

>  <SCORE.INTER.SOLV>
15.3331

>  <SCORE.INTER.VDW>
-15.1018

>  <SCORE.INTER.norm>
-0.359858

>  <SCORE.INTRA>
0.446995

>  <SCORE.INTRA.DIHEDRAL>
-0.0190966

>  <SCORE.INTRA.DIHEDRAL.0>
16.2083

>  <SCORE.INTRA.POLAR>
0

>  <SCORE.INTRA.POLAR.0>
0

>  <SCORE.INTRA.REPUL>
0

>  <SCORE.INTRA.REPUL.0>
0

>  <SCORE.INTRA.SOLV>
0.963336

>  <SCORE.INTRA.SOLV.lig_0>
-89.8095

>  <SCORE.INTRA.VDW>
-0.0251248

>  <SCORE.INTRA.VDW.0>
-3.19502

>  <SCORE.INTRA.norm>
0.0120809

>  <SCORE.RESTR>
0

>  <SCORE.RESTR.CAVITY>
0

>  <SCORE.RESTR.norm>
0

>  <SCORE.SYSTEM>
0

>  <SCORE.SYSTEM.CONST>
0

>  <SCORE.SYSTEM.DIHEDRAL>
0

>  <SCORE.SYSTEM.SOLV>
0

>  <SCORE.SYSTEM.norm>
0

>  <SCORE.heavy>
37

>  <SCORE.norm>
-0.347777

>  <RMSD>
3.133

$$$$
2oe5_lig
 OpenBabel11021811463D
libRbt.so/2013.1/901 2013/11/27
 37 40  0  0  0  0  0  0  0  0999 V2000
   20.3182    1.8727   53.8996 C   0  0  1  0  0  0  0  0  0  0  0  0
   19.0477    1.1724   54.4311 C   0  0  1  0  0  0  0  0  0  0  0  0
   19.2221   -0.3866   54.3035 C   0  0  0  0  0  0  0  0  0  0  0  0
   19.4491   -0.6498   52.7980 C   0  0  1  0  0  0  0  0  0  0  0  0
   20.7593    0.0831   52.2665 C   0  0  1  0  0  0  0  0  0  0  0  0
   21.0101   -0.1747   50.7556 C   0  0  1  0  0  0  0  0  0  0  0  0
   21.1511   -1.7133   50.5780 C   0  0  1  0  0  0  0  0  0  0  0  0
   19.8562   -2.4004   51.1561 C   0  0  2  0  0  0  0  0  0  0  0  0
   22.4148   -3.0337   48.7012 C   0  0  0  0  0  0  0  0  0  0  0  0
   18.8300    1.5294   55.8519 N   0  0  0  0  0  0  0  0  0  0  0  0
   21.3480   -2.0587   49.1198 N   0  0  0  0  0  0  0  0  0  0  0  0
   21.4804    1.5400   54.6764 O   0  0  0  0  0  0  0  0  0  0  0  0
   20.6032    1.5202   52.5006 O   0  0  0  0  0  0  0  0  0  0  0  0
   19.6196   -2.0754   52.5760 O   0  0  0  0  0  0  0  0  0  0  0  0
   19.8916    0.3433   50.0284 O   0  0  0  0  0  0  0  0  0  0  0  0
   19.9756   -3.8067   51.0694 O   0  0  0  0  0  0  0  0  0  0  0  0
   18.7323   -4.3814   50.7128 C   0  0  2  0  0  0  0  0  0  0  0  0
   18.8562   -5.8650   50.3676 C   0  0  1  0  0  0  0  0  0  0  0  0
   19.7388   -6.0758   49.1068 C   0  0  2  0  0  0  0  0  0  0  0  0
   19.0988   -5.2600   47.9446 C   0  0  1  0  0  0  0  0  0  0  0  0
   19.0573   -3.7556   48.3702 C   0  0  1  0  0  0  0  0  0  0  0  0
   18.4038   -2.8711   47.3319 C   0  0  0  0  0  0  0  0  0  0  0  0
   19.9491   -5.4610   46.7115 N   0  0  0  0  0  0  0  0  0  0  0  0
   18.2063   -3.6498   49.5614 O   0  0  0  0  0  0  0  0  0  0  0  0
   19.4286   -6.5296   51.5114 O   0  0  0  0  0  0  0  0  0  0  0  0
   19.7209   -7.4770   48.7792 O   0  0  0  0  0  0  0  0  0  0  0  0
   17.1872   -3.3818   46.9056 O   0  0  0  0  0  0  0  0  0  0  0  0
   22.3238    2.6532   54.9732 C   0  0  1  0  0  0  0  0  0  0  0  0
   21.9748    3.2231   56.3946 C   0  0  1  0  0  0  0  0  0  0  0  0
   22.9234    4.4368   56.7035 C   0  0  2  0  0  0  0  0  0  0  0  0
   24.3827    3.9574   56.6896 C   0  0  1  0  0  0  0  0  0  0  0  0
   24.7359    3.3986   55.2574 C   0  0  0  0  0  0  0  0  0  0  0  0
   23.7733    2.1880   54.9379 C   0  0  2  0  0  0  0  0  0  0  0  0
   25.2482    5.0846   56.9952 N   0  0  0  0  0  0  0  0  0  0  0  0
   24.0597    1.6455   53.5838 N   0  0  0  0  0  0  0  0  0  0  0  0
   20.5914    3.6784   56.4126 O   0  0  0  0  0  0  0  0  0  0  0  0
   22.6274    4.9373   57.9803 O   0  0  0  0  0  0  0  0  0  0  0  0
  1  2  1  0  0  0  0
  1 12  1  1  0  0  0
  1 13  1  0  0  0  0
  2  3  1  0  0  0  0
  2 10  1  1  0  0  0
  4  3  1  1  0  0  0
  4  5  1  0  0  0  0
  4 14  1  0  0  0  0
  5  6  1  0  0  0  0
  5 13  1  6  0  0  0
  6  7  1  0  0  0  0
  6 15  1  6  0  0  0
  7  8  1  0  0  0  0
  7 11  1  6  0  0  0
  8 14  1  0  0  0  0
  8 16  1  1  0  0  0
  9 11  1  0  0  0  0
 17 16  1  6  0  0  0
 17 18  1  0  0  0  0
 17 24  1  0  0  0  0
 18 19  1  0  0  0  0
 18 25  1  1  0  0  0
 19 20  1  0  0  0  0
 19 26  1  6  0  0  0
 20 21  1  0  0  0  0
 20 23  1  6  0  0  0
 21 22  1  6  0  0  0
 21 24  1  0  0  0  0
 22 27  1  0  0  0  0
 28 12  1  1  0  0  0
 28 29  1  0  0  0  0
 28 33  1  0  0  0  0
 29 30  1  0  0  0  0
 29 36  1  6  0  0  0
 30 31  1  0  0  0  0
 30 37  1  1  0  0  0
 31 32  1  0  0  0  0
 31 34  1  6  0  0  0
 32 33  1  0  0  0  0
 33 35  1  6  0  0  0
M  END
>  <CHROM.1>
-136.56936754,133.93883492,-141.31871893,170.02040358,49.08815289,95.77847956
20.67312012,-0.78336616,52.19047602,1.23902567,0.40892617,0.85584135

>  <Name>
2oe5_lig

>  <RI>
0

>  <Rbt.Current_Directory>
/home/itssahil/PROJECTS/Mol_Feturizer/New_Systems/rnas/2oe5

>  <Rbt.Executable>
rbdock ($Id: //depot/dev/client3/rdock/2013.1/src/exe/rbdock.cxx#4 $)

>  <Rbt.Library>
libRbt.so (2013.1, Build901 2013/11/27)

>  <Rbt.Parameter_File>
/export/apps/rDock/src/rDock_2013.1_src/data/scripts/dock_solv.prm

>  <Rbt.Receptor>
prm/pocket_docking_6.prm

>  <SCORE>
-16.1169

>  <SCORE.INTER>
-17.3839

>  <SCORE.INTER.CONST>
1

>  <SCORE.INTER.POLAR>
-2.4028

>  <SCORE.INTER.ROT>
6

>  <SCORE.INTER.SOLV>
11.3577

>  <SCORE.INTER.VDW>
-14.9659

>  <SCORE.INTER.norm>
-0.469835

>  <SCORE.INTRA>
1.26703

>  <SCORE.INTRA.DIHEDRAL>
1.5061

>  <SCORE.INTRA.DIHEDRAL.0>
16.2083

>  <SCORE.INTRA.POLAR>
0

>  <SCORE.INTRA.POLAR.0>
0

>  <SCORE.INTRA.REPUL>
0

>  <SCORE.INTRA.REPUL.0>
0

>  <SCORE.INTRA.SOLV>
1.87785

>  <SCORE.INTRA.SOLV.lig_0>
-89.8095

>  <SCORE.INTRA.VDW>
-0.42494

>  <SCORE.INTRA.VDW.0>
-3.19502

>  <SCORE.INTRA.norm>
0.0342442

>  <SCORE.RESTR>
0

>  <SCORE.RESTR.CAVITY>
0

>  <SCORE.RESTR.norm>
0

>  <SCORE.SYSTEM>
0

>  <SCORE.SYSTEM.CONST>
0

>  <SCORE.SYSTEM.DIHEDRAL>
0

>  <SCORE.SYSTEM.SOLV>
0

>  <SCORE.SYSTEM.norm>
0

>  <SCORE.heavy>
37

>  <SCORE.norm>
-0.435591

>  <RMSD>
3.160

$$$$
2oe5_lig
 OpenBabel11021811463D
libRbt.so/2013.1/901 2013/11/27
 37 40  0  0  0  0  0  0  0  0999 V2000
   20.9224    2.9457   53.9043 C   0  0  1  0  0  0  0  0  0  0  0  0
   19.3899    2.9068   53.7114 C   0  0  1  0  0  0  0  0  0  0  0  0
   18.9226    1.4110   53.5655 C   0  0  0  0  0  0  0  0  0  0  0  0
   19.6814    0.8647   52.3354 C   0  0  1  0  0  0  0  0  0  0  0  0
   21.2586    0.9169   52.5496 C   0  0  1  0  0  0  0  0  0  0  0  0
   22.0408    0.3651   51.3265 C   0  0  1  0  0  0  0  0  0  0  0  0
   21.5792   -1.1060   51.1225 C   0  0  1  0  0  0  0  0  0  0  0  0
   20.0118   -1.1164   50.9598 C   0  0  2  0  0  0  0  0  0  0  0  0
   23.6742   -2.2073   49.9997 C   0  0  0  0  0  0  0  0  0  0  0  0
   18.7172    3.5217   54.8789 N   0  0  0  0  0  0  0  0  0  0  0  0
   22.2577   -1.7074   49.9132 N   0  0  0  0  0  0  0  0  0  0  0  0
   21.3290    2.2847   55.1137 O   0  0  0  0  0  0  0  0  0  0  0  0
   21.6394    2.3106   52.7883 O   0  0  0  0  0  0  0  0  0  0  0  0
   19.3112   -0.5228   52.1150 O   0  0  0  0  0  0  0  0  0  0  0  0
   21.7240    1.1826   50.1954 O   0  0  0  0  0  0  0  0  0  0  0  0
   19.5477   -2.4462   50.8350 O   0  0  0  0  0  0  0  0  0  0  0  0
   20.1150   -3.0562   49.6909 C   0  0  2  0  0  0  0  0  0  0  0  0
   19.0933   -3.2546   48.5718 C   0  0  1  0  0  0  0  0  0  0  0  0
   17.9736   -4.2413   49.0029 C   0  0  2  0  0  0  0  0  0  0  0  0
   18.6587   -5.5799   49.4086 C   0  0  1  0  0  0  0  0  0  0  0  0
   19.6468   -5.2850   50.5846 C   0  0  1  0  0  0  0  0  0  0  0  0
   20.4115   -6.5120   51.0286 C   0  0  0  0  0  0  0  0  0  0  0  0
   17.5767   -6.5484   49.8272 N   0  0  0  0  0  0  0  0  0  0  0  0
   20.6653   -4.3505   50.0909 O   0  0  0  0  0  0  0  0  0  0  0  0
   18.5426   -1.9612   48.2536 O   0  0  0  0  0  0  0  0  0  0  0  0
   17.1145   -4.4634   47.8699 O   0  0  0  0  0  0  0  0  0  0  0  0
   21.2131   -7.0191   50.0172 O   0  0  0  0  0  0  0  0  0  0  0  0
   22.7435    2.1683   55.2692 C   0  0  1  0  0  0  0  0  0  0  0  0
   23.3459    3.5466   55.7213 C   0  0  1  0  0  0  0  0  0  0  0  0
   24.8992    3.3899   55.8983 C   0  0  2  0  0  0  0  0  0  0  0  0
   25.1835    2.3307   56.9740 C   0  0  1  0  0  0  0  0  0  0  0  0
   24.5905    0.9440   56.5121 C   0  0  0  0  0  0  0  0  0  0  0  0
   23.0311    1.1028   56.3183 C   0  0  2  0  0  0  0  0  0  0  0  0
   26.6223    2.2090   57.1415 N   0  0  0  0  0  0  0  0  0  0  0  0
   22.4356   -0.1801   55.8605 N   0  0  0  0  0  0  0  0  0  0  0  0
   23.0781    4.5543   54.7043 O   0  0  0  0  0  0  0  0  0  0  0  0
   25.4389    4.6142   56.3201 O   0  0  0  0  0  0  0  0  0  0  0  0
  1  2  1  0  0  0  0
  1 12  1  1  0  0  0
  1 13  1  0  0  0  0
  2  3  1  0  0  0  0
  2 10  1  1  0  0  0
  4  3  1  1  0  0  0
  4  5  1  0  0  0  0
  4 14  1  0  0  0  0
  5  6  1  0  0  0  0
  5 13  1  6  0  0  0
  6  7  1  0  0  0  0
  6 15  1  6  0  0  0
  7  8  1  0  0  0  0
  7 11  1  6  0  0  0
  8 14  1  0  0  0  0
  8 16  1  1  0  0  0
  9 11  1  0  0  0  0
 17 16  1  1  0  0  0
 17 18  1  0  0  0  0
 17 24  1  0  0  0  0
 18 19  1  0  0  0  0
 18 25  1  1  0  0  0
 19 20  1  0  0  0  0
 19 26  1  6  0  0  0
 20 21  1  0  0  0  0
 20 23  1  1  0  0  0
 21 22  1  6  0  0  0
 21 24  1  0  0  0  0
 22 27  1  0  0  0  0
 28 12  1  1  0  0  0
 28 29  1  0  0  0  0
 28 33  1  0  0  0  0
 29 30  1  0  0  0  0
 29 36  1  6  0  0  0
 30 31  1  0  0  0  0
 30 37  1  1  0  0  0
 31 32  1  0  0  0  0
 31 34  1  6  0  0  0
 32 33  1  0  0  0  0
 33 35  1  6  0  0  0
M  END
>  <CHROM.1>
173.71420102,79.30146005,-60.79615560,-108.47054757,62.30137157,77.06736259
21.19239703,-0.50115047,52.40206865,1.08367805,-0.54003519,0.42478721

>  <Name>
2oe5_lig

>  <RI>
0

>  <Rbt.Current_Directory>
/home/itssahil/PROJECTS/Mol_Feturizer/New_Systems/rnas/2oe5

>  <Rbt.Executable>
rbdock ($Id: //depot/dev/client3/rdock/2013.1/src/exe/rbdock.cxx#4 $)

>  <Rbt.Library>
libRbt.so (2013.1, Build901 2013/11/27)

>  <Rbt.Parameter_File>
/export/apps/rDock/src/rDock_2013.1_src/data/scripts/dock_solv.prm

>  <Rbt.Receptor>
prm/pocket_docking_8.prm

>  <SCORE>
-11.1396

>  <SCORE.INTER>
-9.8002

>  <SCORE.INTER.CONST>
1

>  <SCORE.INTER.POLAR>
-0.427649

>  <SCORE.INTER.ROT>
6

>  <SCORE.INTER.SOLV>
15.5869

>  <SCORE.INTER.VDW>
-17.9036

>  <SCORE.INTER.norm>
-0.26487

>  <SCORE.INTRA>
-1.33936

>  <SCORE.INTRA.DIHEDRAL>
-7.72039

>  <SCORE.INTRA.DIHEDRAL.0>
16.2083

>  <SCORE.INTRA.POLAR>
0

>  <SCORE.INTRA.POLAR.0>
0

>  <SCORE.INTRA.REPUL>
0

>  <SCORE.INTRA.REPUL.0>
0

>  <SCORE.INTRA.SOLV>
-0.830299

>  <SCORE.INTRA.SOLV.lig_0>
-89.8095

>  <SCORE.INTRA.VDW>
2.93599

>  <SCORE.INTRA.VDW.0>
-3.19502

>  <SCORE.INTRA.norm>
-0.0361989

>  <SCORE.RESTR>
0

>  <SCORE.RESTR.CAVITY>
0

>  <SCORE.RESTR.norm>
0

>  <SCORE.SYSTEM>
0

>  <SCORE.SYSTEM.CONST>
0

>  <SCORE.SYSTEM.DIHEDRAL>
0

>  <SCORE.SYSTEM.SOLV>
0

>  <SCORE.SYSTEM.norm>
0

>  <SCORE.heavy>
37

>  <SCORE.norm>
-0.301069

>  <RMSD>
3.190

$$$$
2oe5_lig
 OpenBabel11021811463D
libRbt.so/2013.1/901 2013/11/27
 37 40  0  0  0  0  0  0  0  0999 V2000
   20.9493    0.0842   53.7989 C   0  0  1  0  0  0  0  0  0  0  0  0
   20.8482    0.9768   52.5417 C   0  0  1  0  0  0  0  0  0  0  0  0
   19.6624    0.4702   51.6391 C   0  0  0  0  0  0  0  0  0  0  0  0
   20.0117   -0.9941   51.2908 C   0  0  1  0  0  0  0  0  0  0  0  0
   20.1167   -1.8979   52.5979 C   0  0  1  0  0  0  0  0  0  0  0  0
   20.4601   -3.3765   52.2693 C   0  0  1  0  0  0  0  0  0  0  0  0
   19.3284   -3.9072   51.3440 C   0  0  1  0  0  0  0  0  0  0  0  0
   19.2290   -2.9606   50.0881 C   0  0  2  0  0  0  0  0  0  0  0  0
   20.8752   -5.6803   50.1923 C   0  0  0  0  0  0  0  0  0  0  0  0
   20.6007    2.3823   52.9376 N   0  0  0  0  0  0  0  0  0  0  0  0
   19.6115   -5.3336   50.9316 N   0  0  0  0  0  0  0  0  0  0  0  0
   19.7687    0.1675   54.6137 O   0  0  0  0  0  0  0  0  0  0  0  0
   21.1562   -1.3318   53.4600 O   0  0  0  0  0  0  0  0  0  0  0  0
   18.9679   -1.5538   50.4494 O   0  0  0  0  0  0  0  0  0  0  0  0
   21.7336   -3.3987   51.6167 O   0  0  0  0  0  0  0  0  0  0  0  0
   18.1664   -3.3758   49.2528 O   0  0  0  0  0  0  0  0  0  0  0  0
   18.6339   -4.3047   48.2928 C   0  0  2  0  0  0  0  0  0  0  0  0
   19.3972   -3.6287   47.1544 C   0  0  1  0  0  0  0  0  0  0  0  0
   18.4697   -2.6863   46.3391 C   0  0  2  0  0  0  0  0  0  0  0  0
   17.2782   -3.5406   45.8134 C   0  0  1  0  0  0  0  0  0  0  0  0
   16.5343   -4.1507   47.0466 C   0  0  1  0  0  0  0  0  0  0  0  0
   15.3825   -5.0474   46.6509 C   0  0  0  0  0  0  0  0  0  0  0  0
   16.3707   -2.6327   45.0157 N   0  0  0  0  0  0  0  0  0  0  0  0
   17.4796   -5.0225   47.7542 O   0  0  0  0  0  0  0  0  0  0  0  0
   20.4884   -2.8923   47.7415 O   0  0  0  0  0  0  0  0  0  0  0  0
   19.2232   -2.1730   45.2256 O   0  0  0  0  0  0  0  0  0  0  0  0
   14.7909   -5.6495   47.7509 O   0  0  0  0  0  0  0  0  0  0  0  0
   19.9470    0.8959   55.8288 C   0  0  1  0  0  0  0  0  0  0  0  0
   18.5950    1.5781   56.2453 C   0  0  1  0  0  0  0  0  0  0  0  0
   18.8129    2.3612   57.5899 C   0  0  2  0  0  0  0  0  0  0  0  0
   19.2474    1.3769   58.6863 C   0  0  1  0  0  0  0  0  0  0  0  0
   20.6125    0.7032   58.2731 C   0  0  0  0  0  0  0  0  0  0  0  0
   20.4002   -0.0719   56.9135 C   0  0  2  0  0  0  0  0  0  0  0  0
   19.4272    2.1102   59.9284 N   0  0  0  0  0  0  0  0  0  0  0  0
   21.6727   -0.7045   56.4770 N   0  0  0  0  0  0  0  0  0  0  0  0
   18.1787    2.5120   55.2080 O   0  0  0  0  0  0  0  0  0  0  0  0
   17.6026    2.9570   57.9754 O   0  0  0  0  0  0  0  0  0  0  0  0
  1  2  1  0  0  0  0
  1 12  1  6  0  0  0
  1 13  1  0  0  0  0
  2  3  1  0  0  0  0
  2 10  1  1  0  0  0
  4  3  1  1  0  0  0
  4  5  1  0  0  0  0
  4 14  1  0  0  0  0
  5  6  1  0  0  0  0
  5 13  1  1  0  0  0
  6  7  1  0  0  0  0
  6 15  1  6  0  0  0
  7  8  1  0  0  0  0
  7 11  1  6  0  0  0
  8 14  1  0  0  0  0
  8 16  1  6  0  0  0
  9 11  1  0  0  0  0
 17 16  1  1  0  0  0
 17 18  1  0  0  0  0
 17 24  1  0  0  0  0
 18 19  1  0  0  0  0
 18 25  1  1  0  0  0
 19 20  1  0  0  0  0
 19 26  1  6  0  0  0
 20 21  1  0  0  0  0
 20 23  1  1  0  0  0
 21 22  1  6  0  0  0
 21 24  1  0  0  0  0
 22 27  1  0  0  0  0
 28 12  1  6  0  0  0
 28 29  1  0  0  0  0
 28 33  1  0  0  0  0
 29 30  1  0  0  0  0
 29 36  1  6  0  0  0
 30 31  1  0  0  0  0
 30 37  1  1  0  0  0
 31 32  1  0  0  0  0
 31 34  1  1  0  0  0
 32 33  1  0  0  0  0
 33 35  1  6  0  0  0
M  END
>  <CHROM.1>
-107.38093986,-58.86443892,-90.48401613,-76.93891934,175.98893039,150.08356944
19.17599678,-1.58273997,51.76647434,-1.36081010,0.68786741,-2.20941998

>  <Name>
2oe5_lig

>  <RI>
0

>  <Rbt.Current_Directory>
/home/itssahil/PROJECTS/Mol_Feturizer/New_Systems/rnas/2oe5

>  <Rbt.Executable>
rbdock ($Id: //depot/dev/client3/rdock/2013.1/src/exe/rbdock.cxx#4 $)

>  <Rbt.Library>
libRbt.so (2013.1, Build901 2013/11/27)

>  <Rbt.Parameter_File>
/export/apps/rDock/src/rDock_2013.1_src/data/scripts/dock_solv.prm

>  <Rbt.Receptor>
prm/pocket_docking_5.prm

>  <SCORE>
-25.882

>  <SCORE.INTER>
-28.0514

>  <SCORE.INTER.CONST>
1

>  <SCORE.INTER.POLAR>
-3.51038

>  <SCORE.INTER.ROT>
6

>  <SCORE.INTER.SOLV>
17.2444

>  <SCORE.INTER.VDW>
-20.3478

>  <SCORE.INTER.norm>
-0.758146

>  <SCORE.INTRA>
2.16943

>  <SCORE.INTRA.DIHEDRAL>
-1.11872

>  <SCORE.INTRA.DIHEDRAL.0>
16.2083

>  <SCORE.INTRA.POLAR>
0

>  <SCORE.INTRA.POLAR.0>
0

>  <SCORE.INTRA.REPUL>
0

>  <SCORE.INTRA.REPUL.0>
0

>  <SCORE.INTRA.SOLV>
0.840824

>  <SCORE.INTRA.SOLV.lig_0>
-89.8095

>  <SCORE.INTRA.VDW>
2.30838

>  <SCORE.INTRA.VDW.0>
-3.19502

>  <SCORE.INTRA.norm>
0.0586333

>  <SCORE.RESTR>
0

>  <SCORE.RESTR.CAVITY>
0

>  <SCORE.RESTR.norm>
0

>  <SCORE.SYSTEM>
0

>  <SCORE.SYSTEM.CONST>
0

>  <SCORE.SYSTEM.DIHEDRAL>
0

>  <SCORE.SYSTEM.SOLV>
0

>  <SCORE.SYSTEM.norm>
0

>  <SCORE.heavy>
37

>  <SCORE.norm>
-0.699513

>  <RMSD>
3.206

$$$$
2oe5_lig
 OpenBabel11021811463D
libRbt.so/2013.1/901 2013/11/27
 37 40  0  0  0  0  0  0  0  0999 V2000
   20.0367    1.6102   53.6693 C   0  0  1  0  0  0  0  0  0  0  0  0
   19.2762    0.3848   54.2236 C   0  0  1  0  0  0  0  0  0  0  0  0
   20.1255   -0.9147   53.9640 C   0  0  0  0  0  0  0  0  0  0  0  0
   20.3080   -0.9833   52.4313 C   0  0  1  0  0  0  0  0  0  0  0  0
   21.0889    0.2892   51.8770 C   0  0  1  0  0  0  0  0  0  0  0  0
   21.2895    0.2365   50.3378 C   0  0  1  0  0  0  0  0  0  0  0  0
   22.0954   -1.0581   50.0322 C   0  0  1  0  0  0  0  0  0  0  0  0
   21.3115   -2.2848   50.6354 C   0  0  2  0  0  0  0  0  0  0  0  0
   23.6741   -1.3621   47.9638 C   0  0  0  0  0  0  0  0  0  0  0  0
   19.0517    0.5444   55.6788 N   0  0  0  0  0  0  0  0  0  0  0  0
   22.2927   -1.2155   48.5419 N   0  0  0  0  0  0  0  0  0  0  0  0
   21.2893    1.8153   54.3429 O   0  0  0  0  0  0  0  0  0  0  0  0
   20.3208    1.4844   52.2318 O   0  0  0  0  0  0  0  0  0  0  0  0
   21.0847   -2.1622   52.0884 O   0  0  0  0  0  0  0  0  0  0  0  0
   19.9963    0.2137   49.7252 O   0  0  0  0  0  0  0  0  0  0  0  0
   22.0466   -3.4754   50.4319 O   0  0  0  0  0  0  0  0  0  0  0  0
   21.1750   -4.5904   50.4131 C   0  0  2  0  0  0  0  0  0  0  0  0
   21.6961   -5.7197   49.5251 C   0  0  1  0  0  0  0  0  0  0  0  0
   21.7661   -5.2771   48.0377 C   0  0  2  0  0  0  0  0  0  0  0  0
   20.3382   -4.8186   47.6172 C   0  0  1  0  0  0  0  0  0  0  0  0
   19.9121   -3.6360   48.5478 C   0  0  1  0  0  0  0  0  0  0  0  0
   18.5117   -3.1413   48.2622 C   0  0  0  0  0  0  0  0  0  0  0  0
   20.3949   -4.3884   46.1696 N   0  0  0  0  0  0  0  0  0  0  0  0
   19.8719   -4.1412   49.9253 O   0  0  0  0  0  0  0  0  0  0  0  0
   23.0018   -6.0871   50.0128 O   0  0  0  0  0  0  0  0  0  0  0  0
   22.1576   -6.4169   47.2512 O   0  0  0  0  0  0  0  0  0  0  0  0
   18.0326   -2.3241   49.2748 O   0  0  0  0  0  0  0  0  0  0  0  0
   21.1677    2.0413   55.7475 C   0  0  1  0  0  0  0  0  0  0  0  0
   22.4060    1.4298   56.4956 C   0  0  1  0  0  0  0  0  0  0  0  0
   22.2560    1.7024   58.0356 C   0  0  2  0  0  0  0  0  0  0  0  0
   22.2085    3.2181   58.2809 C   0  0  1  0  0  0  0  0  0  0  0  0
   20.9564    3.8286   57.5408 C   0  0  0  0  0  0  0  0  0  0  0  0
   21.0969    3.5423   55.9940 C   0  0  2  0  0  0  0  0  0  0  0  0
   22.0888    3.4570   59.7098 N   0  0  0  0  0  0  0  0  0  0  0  0
   19.9225    4.0839   55.2610 N   0  0  0  0  0  0  0  0  0  0  0  0
   22.4554   -0.0076   56.2652 O   0  0  0  0  0  0  0  0  0  0  0  0
   23.3695    1.1739   58.7059 O   0  0  0  0  0  0  0  0  0  0  0  0
  1  2  1  0  0  0  0
  1 12  1  1  0  0  0
  1 13  1  0  0  0  0
  2  3  1  0  0  0  0
  2 10  1  1  0  0  0
  4  3  1  1  0  0  0
  4  5  1  0  0  0  0
  4 14  1  0  0  0  0
  5  6  1  0  0  0  0
  5 13  1  6  0  0  0
  6  7  1  0  0  0  0
  6 15  1  6  0  0  0
  7  8  1  0  0  0  0
  7 11  1  6  0  0  0
  8 14  1  0  0  0  0
  8 16  1  1  0  0  0
  9 11  1  0  0  0  0
 17 16  1  6  0  0  0
 17 18  1  0  0  0  0
 17 24  1  0  0  0  0
 18 19  1  0  0  0  0
 18 25  1  1  0  0  0
 19 20  1  0  0  0  0
 19 26  1  6  0  0  0
 20 21  1  0  0  0  0
 20 23  1  6  0  0  0
 21 22  1  6  0  0  0
 21 24  1  0  0  0  0
 22 27  1  0  0  0  0
 28 12  1  6  0  0  0
 28 29  1  0  0  0  0
 28 33  1  0  0  0  0
 29 30  1  0  0  0  0
 29 36  1  1  0  0  0
 30 31  1  0  0  0  0
 30 37  1  1  0  0  0
 31 32  1  0  0  0  0
 31 34  1  1  0  0  0
 32 33  1  0  0  0  0
 33 35  1  6  0  0  0
M  END
>  <CHROM.1>
-60.03782093,124.33664892,-154.56801810,150.01802026,165.93116792,146.53424953
21.09260599,-0.93214589,52.27112664,1.51012237,-0.91335029,0.86377014

>  <Name>
2oe5_lig

>  <RI>
0

>  <Rbt.Current_Directory>
/home/itssahil/PROJECTS/Mol_Feturizer/New_Systems/rnas/2oe5

>  <Rbt.Executable>
rbdock ($Id: //depot/dev/client3/rdock/2013.1/src/exe/rbdock.cxx#4 $)

>  <Rbt.Library>
libRbt.so (2013.1, Build901 2013/11/27)

>  <Rbt.Parameter_File>
/export/apps/rDock/src/rDock_2013.1_src/data/scripts/dock_solv.prm

>  <Rbt.Receptor>
prm/pocket_docking_3.prm

>  <SCORE>
-0.539521

>  <SCORE.INTER>
-4.39918

>  <SCORE.INTER.CONST>
1

>  <SCORE.INTER.POLAR>
-1.18026

>  <SCORE.INTER.ROT>
6

>  <SCORE.INTER.SOLV>
12.7621

>  <SCORE.INTER.VDW>
-10.8526

>  <SCORE.INTER.norm>
-0.118897

>  <SCORE.INTRA>
3.1361

>  <SCORE.INTRA.DIHEDRAL>
-3.66918

>  <SCORE.INTRA.DIHEDRAL.0>
16.2083

>  <SCORE.INTRA.POLAR>
0

>  <SCORE.INTRA.POLAR.0>
0

>  <SCORE.INTRA.REPUL>
0

>  <SCORE.INTRA.REPUL.0>
0

>  <SCORE.INTRA.SOLV>
3.30577

>  <SCORE.INTRA.SOLV.lig_0>
-89.8095

>  <SCORE.INTRA.VDW>
3.31781

>  <SCORE.INTRA.VDW.0>
-3.19502

>  <SCORE.INTRA.norm>
0.0847595

>  <SCORE.RESTR>
0.723562

>  <SCORE.RESTR.CAVITY>
0.723562

>  <SCORE.RESTR.norm>
0.0195557

>  <SCORE.SYSTEM>
0

>  <SCORE.SYSTEM.CONST>
0

>  <SCORE.SYSTEM.DIHEDRAL>
0

>  <SCORE.SYSTEM.SOLV>
0

>  <SCORE.SYSTEM.norm>
0

>  <SCORE.heavy>
37

>  <SCORE.norm>
-0.0145817

>  <RMSD>
3.210

$$$$
2oe5_lig
 OpenBabel11021811463D
libRbt.so/2013.1/901 2013/11/27
 37 40  0  0  0  0  0  0  0  0999 V2000
   22.9502   -1.1146   53.3915 C   0  0  1  0  0  0  0  0  0  0  0  0
   22.9251   -0.0274   52.2939 C   0  0  1  0  0  0  0  0  0  0  0  0
   21.8343   -0.3972   51.2213 C   0  0  0  0  0  0  0  0  0  0  0  0
   22.2567   -1.7770   50.6689 C   0  0  1  0  0  0  0  0  0  0  0  0
   22.2818   -2.8835   51.8141 C   0  0  1  0  0  0  0  0  0  0  0  0
   22.6972   -4.2808   51.2781 C   0  0  1  0  0  0  0  0  0  0  0  0
   21.6628   -4.6698   50.1839 C   0  0  1  0  0  0  0  0  0  0  0  0
   21.6378   -3.5295   49.0966 C   0  0  2  0  0  0  0  0  0  0  0  0
   21.4379   -7.2788   50.1100 C   0  0  0  0  0  0  0  0  0  0  0  0
   22.6020    1.2883   52.8922 N   0  0  0  0  0  0  0  0  0  0  0  0
   22.0234   -6.0027   49.5691 N   0  0  0  0  0  0  0  0  0  0  0  0
   21.7043   -1.1882   54.1038 O   0  0  0  0  0  0  0  0  0  0  0  0
   23.2285   -2.4508   52.8440 O   0  0  0  0  0  0  0  0  0  0  0  0
   21.3039   -2.2070   49.6600 O   0  0  0  0  0  0  0  0  0  0  0  0
   24.0202   -4.1723   50.7433 O   0  0  0  0  0  0  0  0  0  0  0  0
   20.6611   -3.8182   48.1157 O   0  0  0  0  0  0  0  0  0  0  0  0
   21.2171   -4.6272   47.0962 C   0  0  2  0  0  0  0  0  0  0  0  0
   21.5593   -3.8256   45.8408 C   0  0  1  0  0  0  0  0  0  0  0  0
   20.2808   -3.2314   45.1886 C   0  0  2  0  0  0  0  0  0  0  0  0
   19.3190   -4.4164   44.8775 C   0  0  1  0  0  0  0  0  0  0  0  0
   18.9912   -5.1442   46.2225 C   0  0  1  0  0  0  0  0  0  0  0  0
   18.1000   -6.3514   46.0330 C   0  0  0  0  0  0  0  0  0  0  0  0
   18.0721   -3.8487   44.2395 N   0  0  0  0  0  0  0  0  0  0  0  0
   20.2489   -5.6716   46.7652 O   0  0  0  0  0  0  0  0  0  0  0  0
   22.4703   -2.7786   46.2302 O   0  0  0  0  0  0  0  0  0  0  0  0
   20.6649   -2.5870   43.9605 O   0  0  0  0  0  0  0  0  0  0  0  0
   17.8193   -6.9840   47.2345 O   0  0  0  0  0  0  0  0  0  0  0  0
   21.7208   -0.5453   55.3785 C   0  0  1  0  0  0  0  0  0  0  0  0
   20.2508   -0.3464   55.8948 C   0  0  1  0  0  0  0  0  0  0  0  0
   20.2954    0.3496   57.3026 C   0  0  2  0  0  0  0  0  0  0  0  0
   21.0659   -0.5435   58.2867 C   0  0  1  0  0  0  0  0  0  0  0  0
   22.5460   -0.7305   57.7742 C   0  0  0  0  0  0  0  0  0  0  0  0
   22.5035   -1.4161   56.3520 C   0  0  2  0  0  0  0  0  0  0  0  0
   21.0837    0.1024   59.5888 N   0  0  0  0  0  0  0  0  0  0  0  0
   23.8817   -1.5905   55.8228 N   0  0  0  0  0  0  0  0  0  0  0  0
   19.5160    0.4996   54.9642 O   0  0  0  0  0  0  0  0  0  0  0  0
   18.9847    0.5125   57.7759 O   0  0  0  0  0  0  0  0  0  0  0  0
  1  2  1  0  0  0  0
  1 12  1  6  0  0  0
  1 13  1  0  0  0  0
  2  3  1  0  0  0  0
  2 10  1  1  0  0  0
  4  3  1  1  0  0  0
  4  5  1  0  0  0  0
  4 14  1  0  0  0  0
  5  6  1  0  0  0  0
  5 13  1  1  0  0  0
  6  7  1  0  0  0  0
  6 15  1  6  0  0  0
  7  8  1  0  0  0  0
  7 11  1  6  0  0  0
  8 14  1  0  0  0  0
  8 16  1  6  0  0  0
  9 11  1  0  0  0  0
 17 16  1  1  0  0  0
 17 18  1  0  0  0  0
 17 24  1  0  0  0  0
 18 19  1  0  0  0  0
 18 25  1  1  0  0  0
 19 20  1  0  0  0  0
 19 26  1  6  0  0  0
 20 21  1  0  0  0  0
 20 23  1  1  0  0  0
 21 22  1  6  0  0  0
 21 24  1  0  0  0  0
 22 27  1  0  0  0  0
 28 12  1  6  0  0  0
 28 29  1  0  0  0  0
 28 33  1  0  0  0  0
 29 30  1  0  0  0  0
 29 36  1  6  0  0  0
 30 31  1  0  0  0  0
 30 37  1  1  0  0  0
 31 32  1  0  0  0  0
 31 34  1  1  0  0  0
 32 33  1  0  0  0  0
 33 35  1  6  0  0  0
M  END
>  <CHROM.1>
-101.20264583,92.90331395,-87.34973033,-101.75844404,-179.98262810,164.98539880
21.22245889,-2.66140667,51.05969441,-0.99596067,-1.34636857,-1.40480757

>  <Name>
2oe5_lig

>  <RI>
0

>  <Rbt.Current_Directory>
/home/itssahil/PROJECTS/Mol_Feturizer/New_Systems/rnas/2oe5

>  <Rbt.Executable>
rbdock ($Id: //depot/dev/client3/rdock/2013.1/src/exe/rbdock.cxx#4 $)

>  <Rbt.Library>
libRbt.so (2013.1, Build901 2013/11/27)

>  <Rbt.Parameter_File>
/export/apps/rDock/src/rDock_2013.1_src/data/scripts/dock_solv.prm

>  <Rbt.Receptor>
prm/pocket_docking_5.prm

>  <SCORE>
-12.8923

>  <SCORE.INTER>
-13.8265

>  <SCORE.INTER.CONST>
1

>  <SCORE.INTER.POLAR>
-0.748888

>  <SCORE.INTER.ROT>
6

>  <SCORE.INTER.SOLV>
10.8127

>  <SCORE.INTER.VDW>
-17.9256

>  <SCORE.INTER.norm>
-0.373689

>  <SCORE.INTRA>
0.934201

>  <SCORE.INTRA.DIHEDRAL>
-0.0932682

>  <SCORE.INTRA.DIHEDRAL.0>
16.2083

>  <SCORE.INTRA.POLAR>
0

>  <SCORE.INTRA.POLAR.0>
0

>  <SCORE.INTRA.REPUL>
0

>  <SCORE.INTRA.REPUL.0>
0

>  <SCORE.INTRA.SOLV>
0.317801

>  <SCORE.INTRA.SOLV.lig_0>
-89.8095

>  <SCORE.INTRA.VDW>
0.821934

>  <SCORE.INTRA.VDW.0>
-3.19502

>  <SCORE.INTRA.norm>
0.0252487

>  <SCORE.RESTR>
0

>  <SCORE.RESTR.CAVITY>
0

>  <SCORE.RESTR.norm>
0

>  <SCORE.SYSTEM>
0

>  <SCORE.SYSTEM.CONST>
0

>  <SCORE.SYSTEM.DIHEDRAL>
0

>  <SCORE.SYSTEM.SOLV>
0

>  <SCORE.SYSTEM.norm>
0

>  <SCORE.heavy>
37

>  <SCORE.norm>
-0.348441

>  <RMSD>
3.220

$$$$
2oe5_lig
 OpenBabel11021811463D
libRbt.so/2013.1/901 2013/11/27
 37 40  0  0  0  0  0  0  0  0999 V2000
   20.4946    3.4168   54.4758 C   0  0  1  0  0  0  0  0  0  0  0  0
   19.2124    3.2933   53.6226 C   0  0  1  0  0  0  0  0  0  0  0  0
   18.9580    1.7775   53.2838 C   0  0  0  0  0  0  0  0  0  0  0  0
   20.2174    1.3137   52.5182 C   0  0  1  0  0  0  0  0  0  0  0  0
   21.5293    1.4525   53.4104 C   0  0  1  0  0  0  0  0  0  0  0  0
   22.8068    0.9843   52.6615 C   0  0  1  0  0  0  0  0  0  0  0  0
   22.5816   -0.5047   52.2731 C   0  0  1  0  0  0  0  0  0  0  0  0
   21.2530   -0.6028   51.4314 C   0  0  2  0  0  0  0  0  0  0  0  0
   24.0735   -2.5011   51.4659 C   0  0  0  0  0  0  0  0  0  0  0  0
   18.0532    3.8325   54.3703 N   0  0  0  0  0  0  0  0  0  0  0  0
   23.7637   -1.0289   51.4905 N   0  0  0  0  0  0  0  0  0  0  0  0
   20.3661    2.7453   55.7397 O   0  0  0  0  0  0  0  0  0  0  0  0
   21.6719    2.8585   53.7939 O   0  0  0  0  0  0  0  0  0  0  0  0
   20.0756   -0.0860   52.1557 O   0  0  0  0  0  0  0  0  0  0  0  0
   22.9707    1.8149   51.5076 O   0  0  0  0  0  0  0  0  0  0  0  0
   20.9811   -1.9533   51.1129 O   0  0  0  0  0  0  0  0  0  0  0  0
   19.9134   -2.0314   50.1873 C   0  0  2  0  0  0  0  0  0  0  0  0
   19.1377   -3.3429   50.3050 C   0  0  1  0  0  0  0  0  0  0  0  0
   20.0337   -4.5591   49.9430 C   0  0  2  0  0  0  0  0  0  0  0  0
   20.5738   -4.3307   48.5001 C   0  0  1  0  0  0  0  0  0  0  0  0
   21.3883   -2.9955   48.4901 C   0  0  1  0  0  0  0  0  0  0  0  0
   21.9201   -2.6441   47.1185 C   0  0  0  0  0  0  0  0  0  0  0  0
   21.4452   -5.5109   48.1368 N   0  0  0  0  0  0  0  0  0  0  0  0
   20.4686   -1.9065   48.8404 O   0  0  0  0  0  0  0  0  0  0  0  0
   18.6600   -3.4436   51.6612 O   0  0  0  0  0  0  0  0  0  0  0  0
   19.2131   -5.7411   49.9691 O   0  0  0  0  0  0  0  0  0  0  0  0
   22.8157   -1.5865   47.1636 O   0  0  0  0  0  0  0  0  0  0  0  0
   19.4423    3.3609   56.6376 C   0  0  1  0  0  0  0  0  0  0  0  0
   18.9043    2.2982   57.6614 C   0  0  1  0  0  0  0  0  0  0  0  0
   17.9015    3.0013   58.6455 C   0  0  2  0  0  0  0  0  0  0  0  0
   18.6340    4.1174   59.4054 C   0  0  1  0  0  0  0  0  0  0  0  0
   19.1612    5.1912   58.3772 C   0  0  0  0  0  0  0  0  0  0  0  0
   20.1578    4.4835   57.3769 C   0  0  2  0  0  0  0  0  0  0  0  0
   17.7010    4.7470   60.3253 N   0  0  0  0  0  0  0  0  0  0  0  0
   20.6616    5.4594   56.3751 N   0  0  0  0  0  0  0  0  0  0  0  0
   18.2094    1.2373   56.9450 O   0  0  0  0  0  0  0  0  0  0  0  0
   17.4326    2.0594   59.5735 O   0  0  0  0  0  0  0  0  0  0  0  0
  1  2  1  0  0  0  0
  1 12  1  1  0  0  0
  1 13  1  0  0  0  0
  2  3  1  0  0  0  0
  2 10  1  1  0  0  0
  4  3  1  1  0  0  0
  4  5  1  0  0  0  0
  4 14  1  0  0  0  0
  5  6  1  0  0  0  0
  5 13  1  6  0  0  0
  6  7  1  0  0  0  0
  6 15  1  6  0  0  0
  7  8  1  0  0  0  0
  7 11  1  6  0  0  0
  8 14  1  0  0  0  0
  8 16  1  1  0  0  0
  9 11  1  0  0  0  0
 17 16  1  1  0  0  0
 17 18  1  0  0  0  0
 17 24  1  0  0  0  0
 18 19  1  0  0  0  0
 18 25  1  1  0  0  0
 19 20  1  0  0  0  0
 19 26  1  6  0  0  0
 20 21  1  0  0  0  0
 20 23  1  1  0  0  0
 21 22  1  6  0  0  0
 21 24  1  0  0  0  0
 22 27  1  0  0  0  0
 28 12  1  6  0  0  0
 28 29  1  0  0  0  0
 28 33  1  0  0  0  0
 29 30  1  0  0  0  0
 29 36  1  6  0  0  0
 30 31  1  0  0  0  0
 30 37  1  1  0  0  0
 31 32  1  0  0  0  0
 31 34  1  1  0  0  0
 32 33  1  0  0  0  0
 33 35  1  6  0  0  0
M  END
>  <CHROM.1>
-68.62337008,155.42359815,-170.88333369,-152.31824462,-170.13757526,155.53649910
20.35242164,0.35438087,53.12635529,-1.84086954,-0.72259940,-2.43902856

>  <Name>
2oe5_lig

>  <RI>
0

>  <Rbt.Current_Directory>
/home/itssahil/PROJECTS/Mol_Feturizer/New_Systems/rnas/2oe5

>  <Rbt.Executable>
rbdock ($Id: //depot/dev/client3/rdock/2013.1/src/exe/rbdock.cxx#4 $)

>  <Rbt.Library>
libRbt.so (2013.1, Build901 2013/11/27)

>  <Rbt.Parameter_File>
/export/apps/rDock/src/rDock_2013.1_src/data/scripts/dock_solv.prm

>  <Rbt.Receptor>
prm/pocket_docking_5.prm

>  <SCORE>
-21.154

>  <SCORE.INTER>
-18.1652

>  <SCORE.INTER.CONST>
1

>  <SCORE.INTER.POLAR>
-1.90268

>  <SCORE.INTER.ROT>
6

>  <SCORE.INTER.SOLV>
10.7654

>  <SCORE.INTER.VDW>
-16.9563

>  <SCORE.INTER.norm>
-0.490951

>  <SCORE.INTRA>
-2.98885

>  <SCORE.INTRA.DIHEDRAL>
-8.86028

>  <SCORE.INTRA.DIHEDRAL.0>
16.2083

>  <SCORE.INTRA.POLAR>
0

>  <SCORE.INTRA.POLAR.0>
0

>  <SCORE.INTRA.REPUL>
0

>  <SCORE.INTRA.REPUL.0>
0

>  <SCORE.INTRA.SOLV>
1.358

>  <SCORE.INTRA.SOLV.lig_0>
-89.8095

>  <SCORE.INTRA.VDW>
0.762291

>  <SCORE.INTRA.VDW.0>
-3.19502

>  <SCORE.INTRA.norm>
-0.0807797

>  <SCORE.RESTR>
0

>  <SCORE.RESTR.CAVITY>
0

>  <SCORE.RESTR.norm>
0

>  <SCORE.SYSTEM>
0

>  <SCORE.SYSTEM.CONST>
0

>  <SCORE.SYSTEM.DIHEDRAL>
0

>  <SCORE.SYSTEM.SOLV>
0

>  <SCORE.SYSTEM.norm>
0

>  <SCORE.heavy>
37

>  <SCORE.norm>
-0.571731

>  <RMSD>
3.221

$$$$
2oe5_lig
 OpenBabel11021811463D
libRbt.so/2013.1/901 2013/11/27
 37 40  0  0  0  0  0  0  0  0999 V2000
   20.4463    0.7771   54.1734 C   0  0  1  0  0  0  0  0  0  0  0  0
   20.1007    1.6751   52.9645 C   0  0  1  0  0  0  0  0  0  0  0  0
   19.0309    0.9489   52.0671 C   0  0  0  0  0  0  0  0  0  0  0  0
   19.6922   -0.3803   51.6388 C   0  0  1  0  0  0  0  0  0  0  0  0
   20.0458   -1.2904   52.8970 C   0  0  1  0  0  0  0  0  0  0  0  0
   20.7054   -2.6356   52.4878 C   0  0  1  0  0  0  0  0  0  0  0  0
   19.6929   -3.3720   51.5651 C   0  0  1  0  0  0  0  0  0  0  0  0
   19.3368   -2.4211   50.3601 C   0  0  2  0  0  0  0  0  0  0  0  0
   19.6330   -5.9877   51.4338 C   0  0  0  0  0  0  0  0  0  0  0  0
   19.5535    2.9684   53.4349 N   0  0  0  0  0  0  0  0  0  0  0  0
   20.2790   -4.6767   51.0764 N   0  0  0  0  0  0  0  0  0  0  0  0
   19.3068    0.5530   55.0197 O   0  0  0  0  0  0  0  0  0  0  0  0
   20.9584   -0.5382   53.7604 O   0  0  0  0  0  0  0  0  0  0  0  0
   18.7748   -1.1281   50.7964 O   0  0  0  0  0  0  0  0  0  0  0  0
   21.9270   -2.3377   51.8042 O   0  0  0  0  0  0  0  0  0  0  0  0
   18.3684   -3.0329   49.5313 O   0  0  0  0  0  0  0  0  0  0  0  0
   18.9849   -3.9727   48.6713 C   0  0  2  0  0  0  0  0  0  0  0  0
   19.6726   -3.3061   47.4804 C   0  0  1  0  0  0  0  0  0  0  0  0
   18.6416   -2.5870   46.5676 C   0  0  2  0  0  0  0  0  0  0  0  0
   17.5951   -3.6482   46.1154 C   0  0  1  0  0  0  0  0  0  0  0  0
   16.9151   -4.2382   47.3943 C   0  0  1  0  0  0  0  0  0  0  0  0
   15.9107   -5.3233   47.0759 C   0  0  0  0  0  0  0  0  0  0  0  0
   16.5884   -2.9587   45.2237 N   0  0  0  0  0  0  0  0  0  0  0  0
   17.9563   -4.8954   48.1932 O   0  0  0  0  0  0  0  0  0  0  0  0
   20.6348   -2.3695   48.0042 O   0  0  0  0  0  0  0  0  0  0  0  0
   19.3419   -2.0797   45.4173 O   0  0  0  0  0  0  0  0  0  0  0  0
   15.4912   -5.9935   48.2149 O   0  0  0  0  0  0  0  0  0  0  0  0
   19.5534    0.7867   56.4065 C   0  0  1  0  0  0  0  0  0  0  0  0
   20.7564   -0.0992   56.8913 C   0  0  1  0  0  0  0  0  0  0  0  0
   21.0167    0.1850   58.4144 C   0  0  2  0  0  0  0  0  0  0  0  0
   21.3672    1.6689   58.6015 C   0  0  1  0  0  0  0  0  0  0  0  0
   20.1527    2.5568   58.1276 C   0  0  0  0  0  0  0  0  0  0  0  0
   19.8788    2.2615   56.6005 C   0  0  2  0  0  0  0  0  0  0  0  0
   21.6240    1.9145   60.0111 N   0  0  0  0  0  0  0  0  0  0  0  0
   18.7240    3.0646   56.1195 N   0  0  0  0  0  0  0  0  0  0  0  0
   20.4287   -1.5074   56.7150 O   0  0  0  0  0  0  0  0  0  0  0  0
   22.1027   -0.5908   58.8470 O   0  0  0  0  0  0  0  0  0  0  0  0
  1  2  1  0  0  0  0
  1 12  1  6  0  0  0
  1 13  1  0  0  0  0
  2  3  1  0  0  0  0
  2 10  1  1  0  0  0
  4  3  1  1  0  0  0
  4  5  1  0  0  0  0
  4 14  1  0  0  0  0
  5  6  1  0  0  0  0
  5 13  1  1  0  0  0
  6  7  1  0  0  0  0
  6 15  1  6  0  0  0
  7  8  1  0  0  0  0
  7 11  1  6  0  0  0
  8 14  1  0  0  0  0
  8 16  1  6  0  0  0
  9 11  1  0  0  0  0
 17 16  1  1  0  0  0
 17 18  1  0  0  0  0
 17 24  1  0  0  0  0
 18 19  1  0  0  0  0
 18 25  1  1  0  0  0
 19 20  1  0  0  0  0
 19 26  1  6  0  0  0
 20 21  1  0  0  0  0
 20 23  1  6  0  0  0
 21 22  1  6  0  0  0
 21 24  1  0  0  0  0
 22 27  1  0  0  0  0
 28 12  1  6  0  0  0
 28 29  1  0  0  0  0
 28 33  1  0  0  0  0
 29 30  1  0  0  0  0
 29 36  1  1  0  0  0
 30 31  1  0  0  0  0
 30 37  1  6  0  0  0
 31 32  1  0  0  0  0
 31 34  1  1  0  0  0
 32 33  1  0  0  0  0
 33 35  1  1  0  0  0
M  END
>  <CHROM.1>
-130.56966284,117.61136862,-80.04622372,-78.61932813,169.50657818,-56.24727508
19.48936364,-1.45292221,52.13044845,0.65327054,-1.27324252,0.19862894

>  <Name>
2oe5_lig

>  <RI>
0

>  <Rbt.Current_Directory>
/home/itssahil/PROJECTS/Mol_Feturizer/New_Systems/rnas/2oe5

>  <Rbt.Executable>
rbdock ($Id: //depot/dev/client3/rdock/2013.1/src/exe/rbdock.cxx#4 $)

>  <Rbt.Library>
libRbt.so (2013.1, Build901 2013/11/27)

>  <Rbt.Parameter_File>
/export/apps/rDock/src/rDock_2013.1_src/data/scripts/dock_solv.prm

>  <Rbt.Receptor>
prm/pocket_docking_7.prm

>  <SCORE>
-30.5417

>  <SCORE.INTER>
-30.8378

>  <SCORE.INTER.CONST>
1

>  <SCORE.INTER.POLAR>
-3.91838

>  <SCORE.INTER.ROT>
6

>  <SCORE.INTER.SOLV>
17.2454

>  <SCORE.INTER.VDW>
-20.8457

>  <SCORE.INTER.norm>
-0.833453

>  <SCORE.INTRA>
0.296025

>  <SCORE.INTRA.DIHEDRAL>
-4.5033

>  <SCORE.INTRA.DIHEDRAL.0>
16.2083

>  <SCORE.INTRA.POLAR>
0

>  <SCORE.INTRA.POLAR.0>
0

>  <SCORE.INTRA.REPUL>
0

>  <SCORE.INTRA.REPUL.0>
0

>  <SCORE.INTRA.SOLV>
1.79052

>  <SCORE.INTRA.SOLV.lig_0>
-89.8095

>  <SCORE.INTRA.VDW>
1.65241

>  <SCORE.INTRA.VDW.0>
-3.19502

>  <SCORE.INTRA.norm>
0.00800067

>  <SCORE.RESTR>
0

>  <SCORE.RESTR.CAVITY>
0

>  <SCORE.RESTR.norm>
0

>  <SCORE.SYSTEM>
0

>  <SCORE.SYSTEM.CONST>
0

>  <SCORE.SYSTEM.DIHEDRAL>
0

>  <SCORE.SYSTEM.SOLV>
0

>  <SCORE.SYSTEM.norm>
0

>  <SCORE.heavy>
37

>  <SCORE.norm>
-0.825453

>  <RMSD>
3.231

$$$$
2oe5_lig
 OpenBabel11021811463D
libRbt.so/2013.1/901 2013/11/27
 37 40  0  0  0  0  0  0  0  0999 V2000
   20.5984    3.8056   54.2788 C   0  0  1  0  0  0  0  0  0  0  0  0
   19.4936    3.6921   53.2046 C   0  0  1  0  0  0  0  0  0  0  0  0
   19.0653    2.1848   53.0572 C   0  0  0  0  0  0  0  0  0  0  0  0
   20.3532    1.4323   52.6540 C   0  0  1  0  0  0  0  0  0  0  0  0
   21.4820    1.5641   53.7697 C   0  0  1  0  0  0  0  0  0  0  0  0
   22.7837    0.8082   53.3870 C   0  0  1  0  0  0  0  0  0  0  0  0
   22.3972   -0.6858   53.1938 C   0  0  1  0  0  0  0  0  0  0  0  0
   21.2494   -0.7665   52.1171 C   0  0  2  0  0  0  0  0  0  0  0  0
   23.5616   -2.9944   52.7726 C   0  0  0  0  0  0  0  0  0  0  0  0
   18.3184    4.5021   53.6001 N   0  0  0  0  0  0  0  0  0  0  0  0
   23.6036   -1.4904   52.7672 N   0  0  0  0  0  0  0  0  0  0  0  0
   20.1314    3.3987   55.5754 O   0  0  0  0  0  0  0  0  0  0  0  0
   21.7760    2.9868   53.9536 O   0  0  0  0  0  0  0  0  0  0  0  0
   20.0573    0.0195   52.4897 O   0  0  0  0  0  0  0  0  0  0  0  0
   23.2902    1.3858   52.1795 O   0  0  0  0  0  0  0  0  0  0  0  0
   20.8271   -2.1067   51.9603 O   0  0  0  0  0  0  0  0  0  0  0  0
   19.9935   -2.2263   50.8228 C   0  0  2  0  0  0  0  0  0  0  0  0
   19.4185   -3.6340   50.6698 C   0  0  1  0  0  0  0  0  0  0  0  0
   20.5434   -4.6752   50.4178 C   0  0  2  0  0  0  0  0  0  0  0  0
   21.3235   -4.2246   49.1472 C   0  0  1  0  0  0  0  0  0  0  0  0
   21.9106   -2.7999   49.4154 C   0  0  1  0  0  0  0  0  0  0  0  0
   22.6495   -2.2369   48.2218 C   0  0  0  0  0  0  0  0  0  0  0  0
   22.4193   -5.2335   48.8915 N   0  0  0  0  0  0  0  0  0  0  0  0
   20.7845   -1.8860   49.6411 O   0  0  0  0  0  0  0  0  0  0  0  0
   18.6969   -3.9411   51.8792 O   0  0  0  0  0  0  0  0  0  0  0  0
   19.9238   -5.9513   50.1758 O   0  0  0  0  0  0  0  0  0  0  0  0
   23.3373   -1.0750   48.5372 O   0  0  0  0  0  0  0  0  0  0  0  0
   20.7713    4.0662   56.6633 C   0  0  1  0  0  0  0  0  0  0  0  0
   19.6925    4.5829   57.6811 C   0  0  1  0  0  0  0  0  0  0  0  0
   20.4205    5.3009   58.8740 C   0  0  2  0  0  0  0  0  0  0  0  0
   21.3493    4.3004   59.5783 C   0  0  1  0  0  0  0  0  0  0  0  0
   22.4409    3.7933   58.5588 C   0  0  0  0  0  0  0  0  0  0  0  0
   21.7109    3.0846   57.3508 C   0  0  2  0  0  0  0  0  0  0  0  0
   22.0020    4.9714   60.6905 N   0  0  0  0  0  0  0  0  0  0  0  0
   22.7064    2.6104   56.3538 N   0  0  0  0  0  0  0  0  0  0  0  0
   18.8089    5.5316   57.0173 O   0  0  0  0  0  0  0  0  0  0  0  0
   19.4612    5.7479   59.7950 O   0  0  0  0  0  0  0  0  0  0  0  0
  1  2  1  0  0  0  0
  1 12  1  1  0  0  0
  1 13  1  0  0  0  0
  2  3  1  0  0  0  0
  2 10  1  1  0  0  0
  4  3  1  1  0  0  0
  4  5  1  0  0  0  0
  4 14  1  0  0  0  0
  5  6  1  0  0  0  0
  5 13  1  6  0  0  0
  6  7  1  0  0  0  0
  6 15  1  6  0  0  0
  7  8  1  0  0  0  0
  7 11  1  6  0  0  0
  8 14  1  0  0  0  0
  8 16  1  1  0  0  0
  9 11  1  0  0  0  0
 17 16  1  1  0  0  0
 17 18  1  0  0  0  0
 17 24  1  0  0  0  0
 18 19  1  0  0  0  0
 18 25  1  1  0  0  0
 19 20  1  0  0  0  0
 19 26  1  6  0  0  0
 20 21  1  0  0  0  0
 20 23  1  1  0  0  0
 21 22  1  6  0  0  0
 21 24  1  0  0  0  0
 22 27  1  0  0  0  0
 28 12  1  6  0  0  0
 28 29  1  0  0  0  0
 28 33  1  0  0  0  0
 29 30  1  0  0  0  0
 29 36  1  6  0  0  0
 30 31  1  0  0  0  0
 30 37  1  1  0  0  0
 31 32  1  0  0  0  0
 31 34  1  1  0  0  0
 32 33  1  0  0  0  0
 33 35  1  6  0  0  0
M  END
>  <CHROM.1>
-149.81237685,168.07752106,-168.55982848,-175.45681517,-170.62729303,132.13591292
21.05591320,0.62096532,53.52063205,1.64172549,-0.45383577,0.80191435

>  <Name>
2oe5_lig

>  <RI>
0

>  <Rbt.Current_Directory>
/home/itssahil/PROJECTS/Mol_Feturizer/New_Systems/rnas/2oe5

>  <Rbt.Executable>
rbdock ($Id: //depot/dev/client3/rdock/2013.1/src/exe/rbdock.cxx#4 $)

>  <Rbt.Library>
libRbt.so (2013.1, Build901 2013/11/27)

>  <Rbt.Parameter_File>
/export/apps/rDock/src/rDock_2013.1_src/data/scripts/dock_solv.prm

>  <Rbt.Receptor>
prm/pocket_docking_8.prm

>  <SCORE>
-13.7472

>  <SCORE.INTER>
-11.4397

>  <SCORE.INTER.CONST>
1

>  <SCORE.INTER.POLAR>
-1.05808

>  <SCORE.INTER.ROT>
6

>  <SCORE.INTER.SOLV>
11.695

>  <SCORE.INTER.VDW>
-15.5979

>  <SCORE.INTER.norm>
-0.309182

>  <SCORE.INTRA>
-2.30749

>  <SCORE.INTRA.DIHEDRAL>
-4.88848

>  <SCORE.INTRA.DIHEDRAL.0>
16.2083

>  <SCORE.INTRA.POLAR>
0

>  <SCORE.INTRA.POLAR.0>
0

>  <SCORE.INTRA.REPUL>
0

>  <SCORE.INTRA.REPUL.0>
0

>  <SCORE.INTRA.SOLV>
0.46956

>  <SCORE.INTRA.SOLV.lig_0>
-89.8095

>  <SCORE.INTRA.VDW>
-0.0980315

>  <SCORE.INTRA.VDW.0>
-3.19502

>  <SCORE.INTRA.norm>
-0.0623647

>  <SCORE.RESTR>
0

>  <SCORE.RESTR.CAVITY>
0

>  <SCORE.RESTR.norm>
0

>  <SCORE.SYSTEM>
0

>  <SCORE.SYSTEM.CONST>
0

>  <SCORE.SYSTEM.DIHEDRAL>
0

>  <SCORE.SYSTEM.SOLV>
0

>  <SCORE.SYSTEM.norm>
0

>  <SCORE.heavy>
37

>  <SCORE.norm>
-0.371546

>  <RMSD>
3.240

$$$$
2oe5_lig
 OpenBabel11021811463D
libRbt.so/2013.1/901 2013/11/27
 37 40  0  0  0  0  0  0  0  0999 V2000
   24.0427   -0.0330   53.4882 C   0  0  1  0  0  0  0  0  0  0  0  0
   24.4714    0.4757   52.0937 C   0  0  1  0  0  0  0  0  0  0  0  0
   23.3753    0.0784   51.0364 C   0  0  0  0  0  0  0  0  0  0  0  0
   23.2903   -1.4632   51.0964 C   0  0  1  0  0  0  0  0  0  0  0  0
   22.8522   -1.9696   52.5414 C   0  0  1  0  0  0  0  0  0  0  0  0
   22.7536   -3.5176   52.6214 C   0  0  1  0  0  0  0  0  0  0  0  0
   21.7040   -3.9579   51.5615 C   0  0  1  0  0  0  0  0  0  0  0  0
   22.1517   -3.3993   50.1577 C   0  0  2  0  0  0  0  0  0  0  0  0
   20.2468   -6.1204   51.3106 C   0  0  0  0  0  0  0  0  0  0  0  0
   24.6228    1.9488   52.1170 N   0  0  0  0  0  0  0  0  0  0  0  0
   21.5819   -5.4642   51.5362 N   0  0  0  0  0  0  0  0  0  0  0  0
   22.8227    0.5822   53.9332 O   0  0  0  0  0  0  0  0  0  0  0  0
   23.8395   -1.4894   53.5104 O   0  0  0  0  0  0  0  0  0  0  0  0
   22.2974   -1.9308   50.1445 O   0  0  0  0  0  0  0  0  0  0  0  0
   24.0493   -4.0569   52.3412 O   0  0  0  0  0  0  0  0  0  0  0  0
   21.1869   -3.7266   49.1772 O   0  0  0  0  0  0  0  0  0  0  0  0
   21.7656   -3.6769   47.8867 C   0  0  2  0  0  0  0  0  0  0  0  0
   20.7334   -3.8846   46.7790 C   0  0  1  0  0  0  0  0  0  0  0  0
   20.1097   -5.3054   46.8526 C   0  0  2  0  0  0  0  0  0  0  0  0
   21.2753   -6.3344   46.7613 C   0  0  1  0  0  0  0  0  0  0  0  0
   22.2503   -6.0739   47.9561 C   0  0  1  0  0  0  0  0  0  0  0  0
   23.4553   -6.9878   47.9387 C   0  0  0  0  0  0  0  0  0  0  0  0
   20.6783   -7.7212   46.8291 N   0  0  0  0  0  0  0  0  0  0  0  0
   22.7901   -4.7171   47.8069 O   0  0  0  0  0  0  0  0  0  0  0  0
   19.7204   -2.8711   46.9353 O   0  0  0  0  0  0  0  0  0  0  0  0
   19.2342   -5.4671   45.7219 O   0  0  0  0  0  0  0  0  0  0  0  0
   24.2238   -6.8564   49.0854 O   0  0  0  0  0  0  0  0  0  0  0  0
   22.3432    0.0914   55.1853 C   0  0  1  0  0  0  0  0  0  0  0  0
   23.2889    0.5710   56.3440 C   0  0  1  0  0  0  0  0  0  0  0  0
   22.7340    0.0304   57.7109 C   0  0  2  0  0  0  0  0  0  0  0  0
   21.3210    0.5872   57.9414 C   0  0  1  0  0  0  0  0  0  0  0  0
   20.3691    0.0930   56.7847 C   0  0  0  0  0  0  0  0  0  0  0  0
   20.9334    0.6221   55.4077 C   0  0  2  0  0  0  0  0  0  0  0  0
   20.8269    0.0952   59.2168 N   0  0  0  0  0  0  0  0  0  0  0  0
   20.0744    0.1582   54.2866 N   0  0  0  0  0  0  0  0  0  0  0  0
   24.6304    0.0457   56.1292 O   0  0  0  0  0  0  0  0  0  0  0  0
   23.5657    0.4720   58.7508 O   0  0  0  0  0  0  0  0  0  0  0  0
  1  2  1  0  0  0  0
  1 12  1  6  0  0  0
  1 13  1  0  0  0  0
  2  3  1  0  0  0  0
  2 10  1  1  0  0  0
  4  3  1  1  0  0  0
  4  5  1  0  0  0  0
  4 14  1  0  0  0  0
  5  6  1  0  0  0  0
  5 13  1  1  0  0  0
  6  7  1  0  0  0  0
  6 15  1  6  0  0  0
  7  8  1  0  0  0  0
  7 11  1  6  0  0  0
  8 14  1  0  0  0  0
  8 16  1  6  0  0  0
  9 11  1  0  0  0  0
 17 16  1  1  0  0  0
 17 18  1  0  0  0  0
 17 24  1  0  0  0  0
 18 19  1  0  0  0  0
 18 25  1  1  0  0  0
 19 20  1  0  0  0  0
 19 26  1  6  0  0  0
 20 21  1  0  0  0  0
 20 23  1  1  0  0  0
 21 22  1  6  0  0  0
 21 24  1  0  0  0  0
 22 27  1  0  0  0  0
 28 12  1  6  0  0  0
 28 29  1  0  0  0  0
 28 33  1  0  0  0  0
 29 30  1  0  0  0  0
 29 36  1  6  0  0  0
 30 31  1  0  0  0  0
 30 37  1  1  0  0  0
 31 32  1  0  0  0  0
 31 34  1  1  0  0  0
 32 33  1  0  0  0  0
 33 35  1  6  0  0  0
M  END
>  <CHROM.1>
176.70549738,143.33548795,-158.92821083,-174.23543710,-172.73294306,70.16476691
22.21648194,-2.49112140,51.78196749,-1.34277874,-1.03330337,-1.96302289

>  <Name>
2oe5_lig

>  <RI>
0

>  <Rbt.Current_Directory>
/home/itssahil/PROJECTS/Mol_Feturizer/New_Systems/rnas/2oe5

>  <Rbt.Executable>
rbdock ($Id: //depot/dev/client3/rdock/2013.1/src/exe/rbdock.cxx#4 $)

>  <Rbt.Library>
libRbt.so (2013.1, Build901 2013/11/27)

>  <Rbt.Parameter_File>
/export/apps/rDock/src/rDock_2013.1_src/data/scripts/dock_solv.prm

>  <Rbt.Receptor>
prm/pocket_docking_5.prm

>  <SCORE>
-14.2032

>  <SCORE.INTER>
-7.18526

>  <SCORE.INTER.CONST>
1

>  <SCORE.INTER.POLAR>
0

>  <SCORE.INTER.ROT>
6

>  <SCORE.INTER.SOLV>
13.9761

>  <SCORE.INTER.VDW>
-17.0489

>  <SCORE.INTER.norm>
-0.194196

>  <SCORE.INTRA>
-7.01794

>  <SCORE.INTRA.DIHEDRAL>
-12.4497

>  <SCORE.INTRA.DIHEDRAL.0>
16.2083

>  <SCORE.INTRA.POLAR>
0

>  <SCORE.INTRA.POLAR.0>
0

>  <SCORE.INTRA.REPUL>
0

>  <SCORE.INTRA.REPUL.0>
0

>  <SCORE.INTRA.SOLV>
-2.38815

>  <SCORE.INTRA.SOLV.lig_0>
-89.8095

>  <SCORE.INTRA.VDW>
0.400989

>  <SCORE.INTRA.VDW.0>
-3.19502

>  <SCORE.INTRA.norm>
-0.189674

>  <SCORE.RESTR>
0

>  <SCORE.RESTR.CAVITY>
0

>  <SCORE.RESTR.norm>
0

>  <SCORE.SYSTEM>
0

>  <SCORE.SYSTEM.CONST>
0

>  <SCORE.SYSTEM.DIHEDRAL>
0

>  <SCORE.SYSTEM.SOLV>
0

>  <SCORE.SYSTEM.norm>
0

>  <SCORE.heavy>
37

>  <SCORE.norm>
-0.38387

>  <RMSD>
3.255

$$$$
2oe5_lig
 OpenBabel11021811463D
libRbt.so/2013.1/901 2013/11/27
 37 40  0  0  0  0  0  0  0  0999 V2000
   20.4357    3.5083   54.5128 C   0  0  1  0  0  0  0  0  0  0  0  0
   19.1362    3.3682   53.6888 C   0  0  1  0  0  0  0  0  0  0  0  0
   18.8817    1.8470   53.3750 C   0  0  0  0  0  0  0  0  0  0  0  0
   20.1267    1.3788   52.5888 C   0  0  1  0  0  0  0  0  0  0  0  0
   21.4566    1.5349   53.4509 C   0  0  1  0  0  0  0  0  0  0  0  0
   22.7200    1.0626   52.6810 C   0  0  1  0  0  0  0  0  0  0  0  0
   22.4935   -0.4323   52.3168 C   0  0  1  0  0  0  0  0  0  0  0  0
   21.1478   -0.5471   51.5049 C   0  0  2  0  0  0  0  0  0  0  0  0
   24.0058   -2.4258   51.5411 C   0  0  0  0  0  0  0  0  0  0  0  0
   17.9907    3.9120   54.4541 N   0  0  0  0  0  0  0  0  0  0  0  0
   23.6611   -0.9615   51.5159 N   0  0  0  0  0  0  0  0  0  0  0  0
   20.3372    2.8527   55.7877 O   0  0  0  0  0  0  0  0  0  0  0  0
   21.6008    2.9464   53.8132 O   0  0  0  0  0  0  0  0  0  0  0  0
   19.9837   -0.0261   52.2475 O   0  0  0  0  0  0  0  0  0  0  0  0
   22.8555    1.8788   51.5133 O   0  0  0  0  0  0  0  0  0  0  0  0
   20.8754   -1.9028   51.2098 O   0  0  0  0  0  0  0  0  0  0  0  0
   19.8371   -1.9952   50.2525 C   0  0  2  0  0  0  0  0  0  0  0  0
   19.1458   -3.3579   50.2756 C   0  0  1  0  0  0  0  0  0  0  0  0
   20.1272   -4.4919   49.8706 C   0  0  2  0  0  0  0  0  0  0  0  0
   20.6851   -4.1470   48.4580 C   0  0  1  0  0  0  0  0  0  0  0  0
   21.4111   -2.7644   48.5448 C   0  0  1  0  0  0  0  0  0  0  0  0
   21.9511   -2.3016   47.2100 C   0  0  0  0  0  0  0  0  0  0  0  0
   21.6396   -5.2465   48.0532 N   0  0  0  0  0  0  0  0  0  0  0  0
   20.4146   -1.7580   48.9303 O   0  0  0  0  0  0  0  0  0  0  0  0
   18.6438   -3.5666   51.6106 O   0  0  0  0  0  0  0  0  0  0  0  0
   19.3848   -5.7231   49.8083 O   0  0  0  0  0  0  0  0  0  0  0  0
   20.9533   -2.2006   46.2525 O   0  0  0  0  0  0  0  0  0  0  0  0
   19.4021    3.4540   56.6837 C   0  0  1  0  0  0  0  0  0  0  0  0
   18.8444    2.3730   57.6774 C   0  0  1  0  0  0  0  0  0  0  0  0
   17.8293    3.0603   58.6601 C   0  0  2  0  0  0  0  0  0  0  0  0
   18.5543    4.1578   59.4535 C   0  0  1  0  0  0  0  0  0  0  0  0
   19.1013    5.2499   58.4554 C   0  0  0  0  0  0  0  0  0  0  0  0
   20.1104    4.5585   57.4563 C   0  0  2  0  0  0  0  0  0  0  0  0
   17.6096    4.7725   60.3716 N   0  0  0  0  0  0  0  0  0  0  0  0
   20.6333    5.5523   56.4823 N   0  0  0  0  0  0  0  0  0  0  0  0
   18.1565    1.3297   56.9291 O   0  0  0  0  0  0  0  0  0  0  0  0
   17.3425    2.1018   59.5615 O   0  0  0  0  0  0  0  0  0  0  0  0
  1  2  1  0  0  0  0
  1 12  1  1  0  0  0
  1 13  1  0  0  0  0
  2  3  1  0  0  0  0
  2 10  1  1  0  0  0
  4  3  1  1  0  0  0
  4  5  1  0  0  0  0
  4 14  1  0  0  0  0
  5  6  1  0  0  0  0
  5 13  1  6  0  0  0
  6  7  1  0  0  0  0
  6 15  1  6  0  0  0
  7  8  1  0  0  0  0
  7 11  1  6  0  0  0
  8 14  1  0  0  0  0
  8 16  1  1  0  0  0
  9 11  1  0  0  0  0
 17 16  1  1  0  0  0
 17 18  1  0  0  0  0
 17 24  1  0  0  0  0
 18 19  1  0  0  0  0
 18 25  1  1  0  0  0
 19 20  1  0  0  0  0
 19 26  1  6  0  0  0
 20 21  1  0  0  0  0
 20 23  1  1  0  0  0
 21 22  1  6  0  0  0
 21 24  1  0  0  0  0
 22 27  1  0  0  0  0
 28 12  1  6  0  0  0
 28 29  1  0  0  0  0
 28 33  1  0  0  0  0
 29 30  1  0  0  0  0
 29 36  1  6  0  0  0
 30 31  1  0  0  0  0
 30 37  1  1  0  0  0
 31 32  1  0  0  0  0
 31 34  1  1  0  0  0
 32 33  1  0  0  0  0
 33 35  1  6  0  0  0
M  END
>  <CHROM.1>
-66.95616202,153.32324354,-167.69642037,-158.51102354,57.98535731,152.41774235
20.25673875,0.41514985,53.12907787,-1.82811319,-0.74330898,-2.42786624

>  <Name>
2oe5_lig

>  <RI>
0

>  <Rbt.Current_Directory>
/home/itssahil/PROJECTS/Mol_Feturizer/New_Systems/rnas/2oe5

>  <Rbt.Executable>
rbdock ($Id: //depot/dev/client3/rdock/2013.1/src/exe/rbdock.cxx#4 $)

>  <Rbt.Library>
libRbt.so (2013.1, Build901 2013/11/27)

>  <Rbt.Parameter_File>
/export/apps/rDock/src/rDock_2013.1_src/data/scripts/dock_solv.prm

>  <Rbt.Receptor>
prm/pocket_docking_8.prm

>  <SCORE>
-21.0211

>  <SCORE.INTER>
-18.1037

>  <SCORE.INTER.CONST>
1

>  <SCORE.INTER.POLAR>
-1.88756

>  <SCORE.INTER.ROT>
6

>  <SCORE.INTER.SOLV>
10.7248

>  <SCORE.INTER.VDW>
-16.9522

>  <SCORE.INTER.norm>
-0.489289

>  <SCORE.INTRA>
-2.91736

>  <SCORE.INTRA.DIHEDRAL>
-9.4596

>  <SCORE.INTRA.DIHEDRAL.0>
16.2083

>  <SCORE.INTRA.POLAR>
0

>  <SCORE.INTRA.POLAR.0>
0

>  <SCORE.INTRA.REPUL>
0

>  <SCORE.INTRA.REPUL.0>
0

>  <SCORE.INTRA.SOLV>
2.1078

>  <SCORE.INTRA.SOLV.lig_0>
-89.8095

>  <SCORE.INTRA.VDW>
0.758537

>  <SCORE.INTRA.VDW.0>
-3.19502

>  <SCORE.INTRA.norm>
-0.0788476

>  <SCORE.RESTR>
0

>  <SCORE.RESTR.CAVITY>
0

>  <SCORE.RESTR.norm>
0

>  <SCORE.SYSTEM>
0

>  <SCORE.SYSTEM.CONST>
0

>  <SCORE.SYSTEM.DIHEDRAL>
0

>  <SCORE.SYSTEM.SOLV>
0

>  <SCORE.SYSTEM.norm>
0

>  <SCORE.heavy>
37

>  <SCORE.norm>
-0.568137

>  <RMSD>
3.261

$$$$
2oe5_lig
 OpenBabel11021811463D
libRbt.so/2013.1/901 2013/11/27
 37 40  0  0  0  0  0  0  0  0999 V2000
   20.8841    0.1098   53.0398 C   0  0  1  0  0  0  0  0  0  0  0  0
   21.5046    0.7020   51.7546 C   0  0  1  0  0  0  0  0  0  0  0  0
   20.5695    0.3801   50.5303 C   0  0  0  0  0  0  0  0  0  0  0  0
   20.4793   -1.1616   50.4801 C   0  0  1  0  0  0  0  0  0  0  0  0
   19.8424   -1.7546   51.8138 C   0  0  1  0  0  0  0  0  0  0  0  0
   19.7359   -3.3038   51.7810 C   0  0  1  0  0  0  0  0  0  0  0  0
   18.8472   -3.6688   50.5580 C   0  0  1  0  0  0  0  0  0  0  0  0
   19.4877   -3.0264   49.2695 C   0  0  2  0  0  0  0  0  0  0  0  0
   17.5744   -5.7843   49.6821 C   0  0  0  0  0  0  0  0  0  0  0  0
   21.6489    2.1696   51.8923 N   0  0  0  0  0  0  0  0  0  0  0  0
   18.7323   -5.1696   50.4204 N   0  0  0  0  0  0  0  0  0  0  0  0
   19.6125    0.7048   53.3463 O   0  0  0  0  0  0  0  0  0  0  0  0
   20.6821   -1.3435   52.9408 O   0  0  0  0  0  0  0  0  0  0  0  0
   19.6315   -1.5611   49.3700 O   0  0  0  0  0  0  0  0  0  0  0  0
   21.0590   -3.8340   51.6528 O   0  0  0  0  0  0  0  0  0  0  0  0
   18.6716   -3.2843   48.1441 O   0  0  0  0  0  0  0  0  0  0  0  0
   19.3725   -2.9808   46.9526 C   0  0  2  0  0  0  0  0  0  0  0  0
   18.5451   -3.2738   45.7016 C   0  0  1  0  0  0  0  0  0  0  0  0
   18.2366   -4.7911   45.5755 C   0  0  2  0  0  0  0  0  0  0  0  0
   19.5984   -5.5469   45.5620 C   0  0  1  0  0  0  0  0  0  0  0  0
   20.3488   -5.2233   46.8955 C   0  0  1  0  0  0  0  0  0  0  0  0
   21.7155   -5.8669   46.9695 C   0  0  0  0  0  0  0  0  0  0  0  0
   19.3092   -7.0250   45.4366 N   0  0  0  0  0  0  0  0  0  0  0  0
   20.5984   -3.7773   46.9302 O   0  0  0  0  0  0  0  0  0  0  0  0
   17.3270   -2.5092   45.7988 O   0  0  0  0  0  0  0  0  0  0  0  0
   17.5540   -5.0051   44.3268 O   0  0  0  0  0  0  0  0  0  0  0  0
   22.3403   -5.6221   48.1829 O   0  0  0  0  0  0  0  0  0  0  0  0
   19.5820    1.4132   54.5856 C   0  0  1  0  0  0  0  0  0  0  0  0
   20.4033    0.6277   55.6696 C   0  0  1  0  0  0  0  0  0  0  0  0
   20.3662    1.4323   57.0186 C   0  0  2  0  0  0  0  0  0  0  0  0
   20.9980    2.8157   56.8024 C   0  0  1  0  0  0  0  0  0  0  0  0
   20.1637    3.6088   55.7240 C   0  0  0  0  0  0  0  0  0  0  0  0
   20.1864    2.7943   54.3710 C   0  0  2  0  0  0  0  0  0  0  0  0
   20.9745    3.5423   58.0612 N   0  0  0  0  0  0  0  0  0  0  0  0
   19.3906    3.4992   53.3319 N   0  0  0  0  0  0  0  0  0  0  0  0
   19.8080   -0.6854   55.8775 O   0  0  0  0  0  0  0  0  0  0  0  0
   21.1142    0.7431   57.9849 O   0  0  0  0  0  0  0  0  0  0  0  0
  1  2  1  0  0  0  0
  1 12  1  6  0  0  0
  1 13  1  0  0  0  0
  2  3  1  0  0  0  0
  2 10  1  1  0  0  0
  4  3  1  1  0  0  0
  4  5  1  0  0  0  0
  4 14  1  0  0  0  0
  5  6  1  0  0  0  0
  5 13  1  1  0  0  0
  6  7  1  0  0  0  0
  6 15  1  6  0  0  0
  7  8  1  0  0  0  0
  7 11  1  6  0  0  0
  8 14  1  0  0  0  0
  8 16  1  6  0  0  0
  9 11  1  0  0  0  0
 17 16  1  1  0  0  0
 17 18  1  0  0  0  0
 17 24  1  0  0  0  0
 18 19  1  0  0  0  0
 18 25  1  1  0  0  0
 19 20  1  0  0  0  0
 19 26  1  6  0  0  0
 20 21  1  0  0  0  0
 20 23  1  1  0  0  0
 21 22  1  6  0  0  0
 21 24  1  0  0  0  0
 22 27  1  0  0  0  0
 28 12  1  6  0  0  0
 28 29  1  0  0  0  0
 28 33  1  0  0  0  0
 29 30  1  0  0  0  0
 29 36  1  1  0  0  0
 30 31  1  0  0  0  0
 30 37  1  1  0  0  0
 31 32  1  0  0  0  0
 31 34  1  1  0  0  0
 32 33  1  0  0  0  0
 33 35  1  6  0  0  0
M  END
>  <CHROM.1>
-117.23317234,157.28712243,-166.92037835,178.64399373,-177.16074069,-39.53588500
19.90932503,-1.71071625,50.90285686,1.10798631,-1.31822014,0.48427425

>  <Name>
2oe5_lig

>  <RI>
0

>  <Rbt.Current_Directory>
/home/itssahil/PROJECTS/Mol_Feturizer/New_Systems/rnas/2oe5

>  <Rbt.Executable>
rbdock ($Id: //depot/dev/client3/rdock/2013.1/src/exe/rbdock.cxx#4 $)

>  <Rbt.Library>
libRbt.so (2013.1, Build901 2013/11/27)

>  <Rbt.Parameter_File>
/export/apps/rDock/src/rDock_2013.1_src/data/scripts/dock_solv.prm

>  <Rbt.Receptor>
prm/pocket_docking_5.prm

>  <SCORE>
-14.4626

>  <SCORE.INTER>
-13.7655

>  <SCORE.INTER.CONST>
1

>  <SCORE.INTER.POLAR>
-1.21394

>  <SCORE.INTER.ROT>
6

>  <SCORE.INTER.SOLV>
14.1107

>  <SCORE.INTER.VDW>
-17.4341

>  <SCORE.INTER.norm>
-0.372041

>  <SCORE.INTRA>
-0.697084

>  <SCORE.INTRA.DIHEDRAL>
-5.94682

>  <SCORE.INTRA.DIHEDRAL.0>
16.2083

>  <SCORE.INTRA.POLAR>
0

>  <SCORE.INTRA.POLAR.0>
0

>  <SCORE.INTRA.REPUL>
0.00800033

>  <SCORE.INTRA.REPUL.0>
0

>  <SCORE.INTRA.SOLV>
1.20988

>  <SCORE.INTRA.SOLV.lig_0>
-89.8095

>  <SCORE.INTRA.VDW>
1.63138

>  <SCORE.INTRA.VDW.0>
-3.19502

>  <SCORE.INTRA.norm>
-0.0188401

>  <SCORE.RESTR>
0

>  <SCORE.RESTR.CAVITY>
0

>  <SCORE.RESTR.norm>
0

>  <SCORE.SYSTEM>
0

>  <SCORE.SYSTEM.CONST>
0

>  <SCORE.SYSTEM.DIHEDRAL>
0

>  <SCORE.SYSTEM.SOLV>
0

>  <SCORE.SYSTEM.norm>
0

>  <SCORE.heavy>
37

>  <SCORE.norm>
-0.390881

>  <RMSD>
3.277

$$$$
2oe5_lig
 OpenBabel11021811463D
libRbt.so/2013.1/901 2013/11/27
 37 40  0  0  0  0  0  0  0  0999 V2000
   20.2248    3.8164   54.4330 C   0  0  1  0  0  0  0  0  0  0  0  0
   18.8245    3.4748   53.8764 C   0  0  1  0  0  0  0  0  0  0  0  0
   18.6635    1.9111   53.7991 C   0  0  0  0  0  0  0  0  0  0  0  0
   19.7975    1.4299   52.8664 C   0  0  1  0  0  0  0  0  0  0  0  0
   21.2325    1.7945   53.4529 C   0  0  1  0  0  0  0  0  0  0  0  0
   22.3877    1.3127   52.5333 C   0  0  1  0  0  0  0  0  0  0  0  0
   22.2434   -0.2299   52.3986 C   0  0  1  0  0  0  0  0  0  0  0  0
   20.7974   -0.5479   51.8590 C   0  0  2  0  0  0  0  0  0  0  0  0
   24.6262   -1.2494   52.0167 C   0  0  0  0  0  0  0  0  0  0  0  0
   17.7777    4.0349   54.7618 N   0  0  0  0  0  0  0  0  0  0  0  0
   23.3046   -0.7787   51.4728 N   0  0  0  0  0  0  0  0  0  0  0  0
   20.4023    3.3338   55.7748 O   0  0  0  0  0  0  0  0  0  0  0  0
   21.3035    3.2486   53.6104 O   0  0  0  0  0  0  0  0  0  0  0  0
   19.7307   -0.0148   52.7283 O   0  0  0  0  0  0  0  0  0  0  0  0
   22.2495    1.9712   51.2702 O   0  0  0  0  0  0  0  0  0  0  0  0
   20.6067   -1.9469   51.7831 O   0  0  0  0  0  0  0  0  0  0  0  0
   19.7427   -2.2645   50.7081 C   0  0  2  0  0  0  0  0  0  0  0  0
   19.3240   -3.7342   50.7144 C   0  0  1  0  0  0  0  0  0  0  0  0
   20.5470   -4.6670   50.4968 C   0  0  2  0  0  0  0  0  0  0  0  0
   21.2146   -4.2585   49.1502 C   0  0  1  0  0  0  0  0  0  0  0  0
   21.6485   -2.7596   49.2561 C   0  0  1  0  0  0  0  0  0  0  0  0
   22.2659   -2.2370   47.9782 C   0  0  0  0  0  0  0  0  0  0  0  0
   22.4049   -5.1628   48.9276 N   0  0  0  0  0  0  0  0  0  0  0  0
   20.4375   -1.9554   49.4592 O   0  0  0  0  0  0  0  0  0  0  0  0
   18.6956   -4.0003   51.9841 O   0  0  0  0  0  0  0  0  0  0  0  0
   20.0652   -6.0199   50.4052 O   0  0  0  0  0  0  0  0  0  0  0  0
   21.3629   -2.2392   46.9259 O   0  0  0  0  0  0  0  0  0  0  0  0
   21.6665    3.6619   56.3517 C   0  0  1  0  0  0  0  0  0  0  0  0
   21.7393    5.2051   56.6352 C   0  0  1  0  0  0  0  0  0  0  0  0
   23.1321    5.5389   57.2810 C   0  0  2  0  0  0  0  0  0  0  0  0
   23.2768    4.7694   58.6026 C   0  0  1  0  0  0  0  0  0  0  0  0
   23.2178    3.2197   58.3146 C   0  0  0  0  0  0  0  0  0  0  0  0
   21.8246    2.8837   57.6510 C   0  0  2  0  0  0  0  0  0  0  0  0
   24.5603    5.1013   59.1988 N   0  0  0  0  0  0  0  0  0  0  0  0
   21.7375    1.4320   57.3426 N   0  0  0  0  0  0  0  0  0  0  0  0
   21.6019    5.9389   55.3845 O   0  0  0  0  0  0  0  0  0  0  0  0
   23.1943    6.9139   57.5530 O   0  0  0  0  0  0  0  0  0  0  0  0
  1  2  1  0  0  0  0
  1 12  1  1  0  0  0
  1 13  1  0  0  0  0
  2  3  1  0  0  0  0
  2 10  1  1  0  0  0
  4  3  1  1  0  0  0
  4  5  1  0  0  0  0
  4 14  1  0  0  0  0
  5  6  1  0  0  0  0
  5 13  1  6  0  0  0
  6  7  1  0  0  0  0
  6 15  1  6  0  0  0
  7  8  1  0  0  0  0
  7 11  1  6  0  0  0
  8 14  1  0  0  0  0
  8 16  1  1  0  0  0
  9 11  1  0  0  0  0
 17 16  1  1  0  0  0
 17 18  1  0  0  0  0
 17 24  1  0  0  0  0
 18 19  1  0  0  0  0
 18 25  1  1  0  0  0
 19 20  1  0  0  0  0
 19 26  1  6  0  0  0
 20 21  1  0  0  0  0
 20 23  1  1  0  0  0
 21 22  1  6  0  0  0
 21 24  1  0  0  0  0
 22 27  1  0  0  0  0
 28 12  1  1  0  0  0
 28 29  1  0  0  0  0
 28 33  1  0  0  0  0
 29 30  1  0  0  0  0
 29 36  1  6  0  0  0
 30 31  1  0  0  0  0
 30 37  1  1  0  0  0
 31 32  1  0  0  0  0
 31 34  1  6  0  0  0
 32 33  1  0  0  0  0
 33 35  1  6  0  0  0
M  END
>  <CHROM.1>
-178.07983857,91.44490192,-147.94916994,-170.85461210,63.70044872,69.90638033
21.28637647,0.70760050,53.17368993,1.46014029,-0.17112655,0.70925982

>  <Name>
2oe5_lig

>  <RI>
0

>  <Rbt.Current_Directory>
/home/itssahil/PROJECTS/Mol_Feturizer/New_Systems/rnas/2oe5

>  <Rbt.Executable>
rbdock ($Id: //depot/dev/client3/rdock/2013.1/src/exe/rbdock.cxx#4 $)

>  <Rbt.Library>
libRbt.so (2013.1, Build901 2013/11/27)

>  <Rbt.Parameter_File>
/export/apps/rDock/src/rDock_2013.1_src/data/scripts/dock_solv.prm

>  <Rbt.Receptor>
prm/pocket_docking_7.prm

>  <SCORE>
-17.9149

>  <SCORE.INTER>
-12.2725

>  <SCORE.INTER.CONST>
1

>  <SCORE.INTER.POLAR>
-1.0583

>  <SCORE.INTER.ROT>
6

>  <SCORE.INTER.SOLV>
11.1449

>  <SCORE.INTER.VDW>
-15.969

>  <SCORE.INTER.norm>
-0.33169

>  <SCORE.INTRA>
-5.64234

>  <SCORE.INTRA.DIHEDRAL>
-10.5697

>  <SCORE.INTRA.DIHEDRAL.0>
16.2083

>  <SCORE.INTRA.POLAR>
0

>  <SCORE.INTRA.POLAR.0>
0

>  <SCORE.INTRA.REPUL>
0

>  <SCORE.INTRA.REPUL.0>
0

>  <SCORE.INTRA.SOLV>
-1.74061

>  <SCORE.INTRA.SOLV.lig_0>
-89.8095

>  <SCORE.INTRA.VDW>
0.512792

>  <SCORE.INTRA.VDW.0>
-3.19502

>  <SCORE.INTRA.norm>
-0.152496

>  <SCORE.RESTR>
0

>  <SCORE.RESTR.CAVITY>
0

>  <SCORE.RESTR.norm>
0

>  <SCORE.SYSTEM>
0

>  <SCORE.SYSTEM.CONST>
0

>  <SCORE.SYSTEM.DIHEDRAL>
0

>  <SCORE.SYSTEM.SOLV>
0

>  <SCORE.SYSTEM.norm>
0

>  <SCORE.heavy>
37

>  <SCORE.norm>
-0.484186

>  <RMSD>
3.316

$$$$
2oe5_lig
 OpenBabel11021811463D
libRbt.so/2013.1/901 2013/11/27
 37 40  0  0  0  0  0  0  0  0999 V2000
   20.8937    0.0310   53.1318 C   0  0  1  0  0  0  0  0  0  0  0  0
   21.5239    0.6559   51.8671 C   0  0  1  0  0  0  0  0  0  0  0  0
   20.5957    0.3698   50.6286 C   0  0  0  0  0  0  0  0  0  0  0  0
   20.5018   -1.1697   50.5362 C   0  0  1  0  0  0  0  0  0  0  0  0
   19.8549   -1.7968   51.8494 C   0  0  1  0  0  0  0  0  0  0  0  0
   19.7445   -3.3441   51.7741 C   0  0  1  0  0  0  0  0  0  0  0  0
   18.8626   -3.6735   50.5361 C   0  0  1  0  0  0  0  0  0  0  0  0
   19.5130   -2.9984   49.2695 C   0  0  2  0  0  0  0  0  0  0  0  0
   17.5581   -5.7649   49.6489 C   0  0  0  0  0  0  0  0  0  0  0  0
   21.6712    2.1188   52.0452 N   0  0  0  0  0  0  0  0  0  0  0  0
   18.7446   -5.1697   50.3573 N   0  0  0  0  0  0  0  0  0  0  0  0
   19.6217    0.6210   53.4463 O   0  0  0  0  0  0  0  0  0  0  0  0
   20.6885   -1.4186   52.9923 O   0  0  0  0  0  0  0  0  0  0  0  0
   19.6600   -1.5367   49.4105 O   0  0  0  0  0  0  0  0  0  0  0  0
   21.0670   -3.8744   51.6399 O   0  0  0  0  0  0  0  0  0  0  0  0
   18.7034   -3.2235   48.1324 O   0  0  0  0  0  0  0  0  0  0  0  0
   19.4352   -2.9561   46.9509 C   0  0  2  0  0  0  0  0  0  0  0  0
   18.6352   -3.2732   45.6880 C   0  0  1  0  0  0  0  0  0  0  0  0
   18.3158   -4.7904   45.5924 C   0  0  2  0  0  0  0  0  0  0  0  0
   19.6705   -5.5581   45.6305 C   0  0  1  0  0  0  0  0  0  0  0  0
   20.3919   -5.2076   46.9733 C   0  0  1  0  0  0  0  0  0  0  0  0
   21.7503   -5.8610   47.0961 C   0  0  0  0  0  0  0  0  0  0  0  0
   19.3707   -7.0363   45.5350 N   0  0  0  0  0  0  0  0  0  0  0  0
   20.6539   -3.7634   46.9779 O   0  0  0  0  0  0  0  0  0  0  0  0
   17.4223   -2.4959   45.7369 O   0  0  0  0  0  0  0  0  0  0  0  0
   17.6612   -5.0299   44.3334 O   0  0  0  0  0  0  0  0  0  0  0  0
   22.3800   -5.5311   48.2867 O   0  0  0  0  0  0  0  0  0  0  0  0
   19.6643    1.5672   54.5148 C   0  0  1  0  0  0  0  0  0  0  0  0
   18.4956    2.6044   54.3560 C   0  0  1  0  0  0  0  0  0  0  0  0
   18.5553    3.6253   55.5488 C   0  0  2  0  0  0  0  0  0  0  0  0
   18.3891    2.8676   56.8747 C   0  0  1  0  0  0  0  0  0  0  0  0
   19.5715    1.8365   57.0394 C   0  0  0  0  0  0  0  0  0  0  0  0
   19.5231    0.8182   55.8331 C   0  0  2  0  0  0  0  0  0  0  0  0
   18.4273    3.8248   57.9681 N   0  0  0  0  0  0  0  0  0  0  0  0
   20.6376   -0.1598   55.9395 N   0  0  0  0  0  0  0  0  0  0  0  0
   18.6487    3.3249   53.0995 O   0  0  0  0  0  0  0  0  0  0  0  0
   17.5016    4.5427   55.4209 O   0  0  0  0  0  0  0  0  0  0  0  0
  1  2  1  0  0  0  0
  1 12  1  6  0  0  0
  1 13  1  0  0  0  0
  2  3  1  0  0  0  0
  2 10  1  1  0  0  0
  4  3  1  1  0  0  0
  4  5  1  0  0  0  0
  4 14  1  0  0  0  0
  5  6  1  0  0  0  0
  5 13  1  1  0  0  0
  6  7  1  0  0  0  0
  6 15  1  6  0  0  0
  7  8  1  0  0  0  0
  7 11  1  6  0  0  0
  8 14  1  0  0  0  0
  8 16  1  6  0  0  0
  9 11  1  0  0  0  0
 17 16  1  1  0  0  0
 17 18  1  0  0  0  0
 17 24  1  0  0  0  0
 18 19  1  0  0  0  0
 18 25  1  1  0  0  0
 19 20  1  0  0  0  0
 19 26  1  6  0  0  0
 20 21  1  0  0  0  0
 20 23  1  1  0  0  0
 21 22  1  6  0  0  0
 21 24  1  0  0  0  0
 22 27  1  0  0  0  0
 28 12  1  6  0  0  0
 28 29  1  0  0  0  0
 28 33  1  0  0  0  0
 29 30  1  0  0  0  0
 29 36  1  6  0  0  0
 30 31  1  0  0  0  0
 30 37  1  6  0  0  0
 31 32  1  0  0  0  0
 31 34  1  1  0  0  0
 32 33  1  0  0  0  0
 33 35  1  1  0  0  0
M  END
>  <CHROM.1>
-102.22619205,154.53032473,-163.89889330,176.18676367,179.50887596,153.60001537
19.56850052,-1.55634213,50.83790417,-1.60225471,0.99588529,-2.24024086

>  <Name>
2oe5_lig

>  <RI>
0

>  <Rbt.Current_Directory>
/home/itssahil/PROJECTS/Mol_Feturizer/New_Systems/rnas/2oe5

>  <Rbt.Executable>
rbdock ($Id: //depot/dev/client3/rdock/2013.1/src/exe/rbdock.cxx#4 $)

>  <Rbt.Library>
libRbt.so (2013.1, Build901 2013/11/27)

>  <Rbt.Parameter_File>
/export/apps/rDock/src/rDock_2013.1_src/data/scripts/dock_solv.prm

>  <Rbt.Receptor>
prm/pocket_docking_4.prm

>  <SCORE>
-19.9344

>  <SCORE.INTER>
-17.2212

>  <SCORE.INTER.CONST>
1

>  <SCORE.INTER.POLAR>
-0.998162

>  <SCORE.INTER.ROT>
6

>  <SCORE.INTER.SOLV>
14.5851

>  <SCORE.INTER.VDW>
-20.6153

>  <SCORE.INTER.norm>
-0.465437

>  <SCORE.INTRA>
-2.71325

>  <SCORE.INTRA.DIHEDRAL>
-5.78167

>  <SCORE.INTRA.DIHEDRAL.0>
16.2083

>  <SCORE.INTRA.POLAR>
0

>  <SCORE.INTRA.POLAR.0>
0

>  <SCORE.INTRA.REPUL>
0.0192056

>  <SCORE.INTRA.REPUL.0>
0

>  <SCORE.INTRA.SOLV>
0.0939614

>  <SCORE.INTRA.SOLV.lig_0>
-89.8095

>  <SCORE.INTRA.VDW>
0.0345828

>  <SCORE.INTRA.VDW.0>
-3.19502

>  <SCORE.INTRA.norm>
-0.0733309

>  <SCORE.RESTR>
0

>  <SCORE.RESTR.CAVITY>
0

>  <SCORE.RESTR.norm>
0

>  <SCORE.SYSTEM>
0

>  <SCORE.SYSTEM.CONST>
0

>  <SCORE.SYSTEM.DIHEDRAL>
0

>  <SCORE.SYSTEM.SOLV>
0

>  <SCORE.SYSTEM.norm>
0

>  <SCORE.heavy>
37

>  <SCORE.norm>
-0.538768

>  <RMSD>
3.341

$$$$
2oe5_lig
 OpenBabel11021811463D
libRbt.so/2013.1/901 2013/11/27
 37 40  0  0  0  0  0  0  0  0999 V2000
   24.8660    1.1938   55.2254 C   0  0  1  0  0  0  0  0  0  0  0  0
   23.6674    2.0203   54.7080 C   0  0  1  0  0  0  0  0  0  0  0  0
   22.5228    1.0431   54.2475 C   0  0  0  0  0  0  0  0  0  0  0  0
   23.1532    0.1697   53.1398 C   0  0  1  0  0  0  0  0  0  0  0  0
   24.3893   -0.6709   53.6892 C   0  0  1  0  0  0  0  0  0  0  0  0
   25.0335   -1.5621   52.5924 C   0  0  1  0  0  0  0  0  0  0  0  0
   23.9219   -2.5217   52.0807 C   0  0  1  0  0  0  0  0  0  0  0  0
   22.7030   -1.6523   51.5892 C   0  0  2  0  0  0  0  0  0  0  0  0
   25.3944   -4.5304   51.2685 C   0  0  0  0  0  0  0  0  0  0  0  0
   23.1593    2.9026   55.7836 N   0  0  0  0  0  0  0  0  0  0  0  0
   24.4528   -3.3960   50.9679 N   0  0  0  0  0  0  0  0  0  0  0  0
   24.5221    0.4145   56.3826 O   0  0  0  0  0  0  0  0  0  0  0  0
   25.3854    0.2699   54.2059 O   0  0  0  0  0  0  0  0  0  0  0  0
   22.1641   -0.7719   52.6439 O   0  0  0  0  0  0  0  0  0  0  0  0
   25.5137   -0.7037   51.5528 O   0  0  0  0  0  0  0  0  0  0  0  0
   21.6452   -2.4937   51.1742 O   0  0  0  0  0  0  0  0  0  0  0  0
   20.6082   -1.7248   50.5941 C   0  0  2  0  0  0  0  0  0  0  0  0
   19.2431   -2.3994   50.7236 C   0  0  1  0  0  0  0  0  0  0  0  0
   19.2010   -3.7366   49.9342 C   0  0  2  0  0  0  0  0  0  0  0  0
   19.5530   -3.4169   48.4511 C   0  0  1  0  0  0  0  0  0  0  0  0
   20.9789   -2.7752   48.4159 C   0  0  1  0  0  0  0  0  0  0  0  0
   21.4062   -2.3737   47.0218 C   0  0  0  0  0  0  0  0  0  0  0  0
   19.5119   -4.7120   47.6732 N   0  0  0  0  0  0  0  0  0  0  0  0
   20.9265   -1.5238   49.1813 O   0  0  0  0  0  0  0  0  0  0  0  0
   19.0024   -2.6245   52.1269 O   0  0  0  0  0  0  0  0  0  0  0  0
   17.8615   -4.2574   50.0103 O   0  0  0  0  0  0  0  0  0  0  0  0
   22.6931   -1.8577   47.0010 O   0  0  0  0  0  0  0  0  0  0  0  0
   24.3052    1.1865   57.5640 C   0  0  1  0  0  0  0  0  0  0  0  0
   23.3075    0.4354   58.5166 C   0  0  1  0  0  0  0  0  0  0  0  0
   23.0955    1.2968   59.8133 C   0  0  2  0  0  0  0  0  0  0  0  0
   24.4433    1.4802   60.5273 C   0  0  1  0  0  0  0  0  0  0  0  0
   25.4395    2.2472   59.5748 C   0  0  0  0  0  0  0  0  0  0  0  0
   25.6423    1.3907   58.2635 C   0  0  2  0  0  0  0  0  0  0  0  0
   24.2305    2.2621   61.7341 N   0  0  0  0  0  0  0  0  0  0  0  0
   26.5601    2.0914   57.3272 N   0  0  0  0  0  0  0  0  0  0  0  0
   22.0281    0.2587   57.8433 O   0  0  0  0  0  0  0  0  0  0  0  0
   22.2192    0.6207   60.6754 O   0  0  0  0  0  0  0  0  0  0  0  0
  1  2  1  0  0  0  0
  1 12  1  1  0  0  0
  1 13  1  0  0  0  0
  2  3  1  0  0  0  0
  2 10  1  1  0  0  0
  4  3  1  1  0  0  0
  4  5  1  0  0  0  0
  4 14  1  0  0  0  0
  5  6  1  0  0  0  0
  5 13  1  6  0  0  0
  6  7  1  0  0  0  0
  6 15  1  6  0  0  0
  7  8  1  0  0  0  0
  7 11  1  6  0  0  0
  8 14  1  0  0  0  0
  8 16  1  1  0  0  0
  9 11  1  0  0  0  0
 17 16  1  6  0  0  0
 17 18  1  0  0  0  0
 17 24  1  0  0  0  0
 18 19  1  0  0  0  0
 18 25  1  1  0  0  0
 19 20  1  0  0  0  0
 19 26  1  6  0  0  0
 20 21  1  0  0  0  0
 20 23  1  6  0  0  0
 21 22  1  6  0  0  0
 21 24  1  0  0  0  0
 22 27  1  0  0  0  0
 28 12  1  6  0  0  0
 28 29  1  0  0  0  0
 28 33  1  0  0  0  0
 29 30  1  0  0  0  0
 29 36  1  6  0  0  0
 30 31  1  0  0  0  0
 30 37  1  1  0  0  0
 31 32  1  0  0  0  0
 31 34  1  1  0  0  0
 32 33  1  0  0  0  0
 33 35  1  6  0  0  0
M  END
>  <CHROM.1>
-70.44831888,73.81472220,-173.50434633,-153.21343577,-177.52116371,152.44070458
22.80891770,-0.79475855,53.58822624,-1.24603780,-0.24756095,-1.92649132

>  <Name>
2oe5_lig

>  <RI>
0

>  <Rbt.Current_Directory>
/home/itssahil/PROJECTS/Mol_Feturizer/New_Systems/rnas/2oe5

>  <Rbt.Executable>
rbdock ($Id: //depot/dev/client3/rdock/2013.1/src/exe/rbdock.cxx#4 $)

>  <Rbt.Library>
libRbt.so (2013.1, Build901 2013/11/27)

>  <Rbt.Parameter_File>
/export/apps/rDock/src/rDock_2013.1_src/data/scripts/dock_solv.prm

>  <Rbt.Receptor>
prm/pocket_docking_8.prm

>  <SCORE>
-18.482

>  <SCORE.INTER>
-15.5148

>  <SCORE.INTER.CONST>
1

>  <SCORE.INTER.POLAR>
-2.0996

>  <SCORE.INTER.ROT>
6

>  <SCORE.INTER.SOLV>
9.8883

>  <SCORE.INTER.VDW>
-14.2406

>  <SCORE.INTER.norm>
-0.41932

>  <SCORE.INTRA>
-2.96722

>  <SCORE.INTRA.DIHEDRAL>
-9.08438

>  <SCORE.INTRA.DIHEDRAL.0>
16.2083

>  <SCORE.INTRA.POLAR>
0

>  <SCORE.INTRA.POLAR.0>
0

>  <SCORE.INTRA.REPUL>
0

>  <SCORE.INTRA.REPUL.0>
0

>  <SCORE.INTRA.SOLV>
1.03518

>  <SCORE.INTRA.SOLV.lig_0>
-89.8095

>  <SCORE.INTRA.VDW>
1.05738

>  <SCORE.INTRA.VDW.0>
-3.19502

>  <SCORE.INTRA.norm>
-0.0801953

>  <SCORE.RESTR>
0

>  <SCORE.RESTR.CAVITY>
0

>  <SCORE.RESTR.norm>
0

>  <SCORE.SYSTEM>
0

>  <SCORE.SYSTEM.CONST>
0

>  <SCORE.SYSTEM.DIHEDRAL>
0

>  <SCORE.SYSTEM.SOLV>
0

>  <SCORE.SYSTEM.norm>
0

>  <SCORE.heavy>
37

>  <SCORE.norm>
-0.499515

>  <RMSD>
3.381

$$$$
2oe5_lig
 OpenBabel11021811463D
libRbt.so/2013.1/901 2013/11/27
 37 40  0  0  0  0  0  0  0  0999 V2000
   20.7534    0.0013   53.4739 C   0  0  1  0  0  0  0  0  0  0  0  0
   21.6435    0.6904   52.4155 C   0  0  1  0  0  0  0  0  0  0  0  0
   20.9399    0.6056   51.0102 C   0  0  0  0  0  0  0  0  0  0  0  0
   20.7631   -0.9042   50.7330 C   0  0  1  0  0  0  0  0  0  0  0  0
   19.8476   -1.5987   51.8356 C   0  0  1  0  0  0  0  0  0  0  0  0
   19.6510   -3.1165   51.5714 C   0  0  1  0  0  0  0  0  0  0  0  0
   18.9899   -3.2482   50.1699 C   0  0  1  0  0  0  0  0  0  0  0  0
   19.9035   -2.5109   49.1188 C   0  0  2  0  0  0  0  0  0  0  0  0
   17.6109   -5.1530   49.0152 C   0  0  0  0  0  0  0  0  0  0  0  0
   21.8520    2.1114   52.7774 N   0  0  0  0  0  0  0  0  0  0  0  0
   18.8081   -4.7046   49.8087 N   0  0  0  0  0  0  0  0  0  0  0  0
   19.4872    0.6637   53.6250 O   0  0  0  0  0  0  0  0  0  0  0  0
   20.4819   -1.4052   53.1412 O   0  0  0  0  0  0  0  0  0  0  0  0
   20.1184   -1.0876   49.4441 O   0  0  0  0  0  0  0  0  0  0  0  0
   20.9379   -3.7413   51.6122 O   0  0  0  0  0  0  0  0  0  0  0  0
   19.3018   -2.5552   47.8400 O   0  0  0  0  0  0  0  0  0  0  0  0
   20.2945   -2.6533   46.8361 C   0  0  2  0  0  0  0  0  0  0  0  0
   19.6958   -2.8662   45.4463 C   0  0  1  0  0  0  0  0  0  0  0  0
   18.9448   -4.2234   45.3608 C   0  0  2  0  0  0  0  0  0  0  0  0
   19.9589   -5.3448   45.7349 C   0  0  1  0  0  0  0  0  0  0  0  0
   20.4794   -5.0679   47.1836 C   0  0  1  0  0  0  0  0  0  0  0  0
   21.5162   -6.0721   47.6353 C   0  0  0  0  0  0  0  0  0  0  0  0
   19.2383   -6.6707   45.6519 N   0  0  0  0  0  0  0  0  0  0  0  0
   21.1719   -3.7738   47.1716 O   0  0  0  0  0  0  0  0  0  0  0  0
   18.7998   -1.7672   45.1875 O   0  0  0  0  0  0  0  0  0  0  0  0
   18.5048   -4.4048   44.0027 O   0  0  0  0  0  0  0  0  0  0  0  0
   22.6589   -6.0279   46.8510 O   0  0  0  0  0  0  0  0  0  0  0  0
   19.4620    1.6481   54.6590 C   0  0  1  0  0  0  0  0  0  0  0  0
   18.3408    2.7068   54.3606 C   0  0  1  0  0  0  0  0  0  0  0  0
   18.3238    3.7701   55.5172 C   0  0  2  0  0  0  0  0  0  0  0  0
   18.0211    3.0671   56.8490 C   0  0  1  0  0  0  0  0  0  0  0  0
   19.1554    2.0143   57.1543 C   0  0  0  0  0  0  0  0  0  0  0  0
   19.1850    0.9529   55.9852 C   0  0  2  0  0  0  0  0  0  0  0  0
   17.9896    4.0635   57.9070 N   0  0  0  0  0  0  0  0  0  0  0  0
   20.2584   -0.0473   56.2245 N   0  0  0  0  0  0  0  0  0  0  0  0
   18.6235    3.3756   53.0979 O   0  0  0  0  0  0  0  0  0  0  0  0
   17.3112    4.7075   55.2640 O   0  0  0  0  0  0  0  0  0  0  0  0
  1  2  1  0  0  0  0
  1 12  1  6  0  0  0
  1 13  1  0  0  0  0
  2  3  1  0  0  0  0
  2 10  1  1  0  0  0
  4  3  1  1  0  0  0
  4  5  1  0  0  0  0
  4 14  1  0  0  0  0
  5  6  1  0  0  0  0
  5 13  1  1  0  0  0
  6  7  1  0  0  0  0
  6 15  1  6  0  0  0
  7  8  1  0  0  0  0
  7 11  1  6  0  0  0
  8 14  1  0  0  0  0
  8 16  1  6  0  0  0
  9 11  1  0  0  0  0
 17 16  1  1  0  0  0
 17 18  1  0  0  0  0
 17 24  1  0  0  0  0
 18 19  1  0  0  0  0
 18 25  1  1  0  0  0
 19 20  1  0  0  0  0
 19 26  1  6  0  0  0
 20 21  1  0  0  0  0
 20 23  1  1  0  0  0
 21 22  1  6  0  0  0
 21 24  1  0  0  0  0
 22 27  1  0  0  0  0
 28 12  1  6  0  0  0
 28 29  1  0  0  0  0
 28 33  1  0  0  0  0
 29 30  1  0  0  0  0
 29 36  1  6  0  0  0
 30 31  1  0  0  0  0
 30 37  1  6  0  0  0
 31 32  1  0  0  0  0
 31 34  1  1  0  0  0
 32 33  1  0  0  0  0
 33 35  1  1  0  0  0
M  END
>  <CHROM.1>
-93.08558586,145.06559693,-145.78966453,173.42003506,62.92198349,155.47290179
19.70317438,-1.33292202,50.80116014,-1.76546116,1.14353744,-2.06163160

>  <Name>
2oe5_lig

>  <RI>
0

>  <Rbt.Current_Directory>
/home/itssahil/PROJECTS/Mol_Feturizer/New_Systems/rnas/2oe5

>  <Rbt.Executable>
rbdock ($Id: //depot/dev/client3/rdock/2013.1/src/exe/rbdock.cxx#4 $)

>  <Rbt.Library>
libRbt.so (2013.1, Build901 2013/11/27)

>  <Rbt.Parameter_File>
/export/apps/rDock/src/rDock_2013.1_src/data/scripts/dock_solv.prm

>  <Rbt.Receptor>
prm/pocket_docking_6.prm

>  <SCORE>
-18.8819

>  <SCORE.INTER>
-17.7081

>  <SCORE.INTER.CONST>
1

>  <SCORE.INTER.POLAR>
-1.12213

>  <SCORE.INTER.ROT>
6

>  <SCORE.INTER.SOLV>
15.4584

>  <SCORE.INTER.VDW>
-20.8178

>  <SCORE.INTER.norm>
-0.478597

>  <SCORE.INTRA>
-1.1738

>  <SCORE.INTRA.DIHEDRAL>
-4.05765

>  <SCORE.INTRA.DIHEDRAL.0>
16.2083

>  <SCORE.INTRA.POLAR>
0

>  <SCORE.INTRA.POLAR.0>
0

>  <SCORE.INTRA.REPUL>
0

>  <SCORE.INTRA.REPUL.0>
0

>  <SCORE.INTRA.SOLV>
1.90479

>  <SCORE.INTRA.SOLV.lig_0>
-89.8095

>  <SCORE.INTRA.VDW>
-0.0973754

>  <SCORE.INTRA.VDW.0>
-3.19502

>  <SCORE.INTRA.norm>
-0.0317244

>  <SCORE.RESTR>
0

>  <SCORE.RESTR.CAVITY>
0

>  <SCORE.RESTR.norm>
0

>  <SCORE.SYSTEM>
0

>  <SCORE.SYSTEM.CONST>
0

>  <SCORE.SYSTEM.DIHEDRAL>
0

>  <SCORE.SYSTEM.SOLV>
0

>  <SCORE.SYSTEM.norm>
0

>  <SCORE.heavy>
37

>  <SCORE.norm>
-0.510321

>  <RMSD>
3.449

$$$$
2oe5_lig
 OpenBabel11021811463D
libRbt.so/2013.1/901 2013/11/27
 37 40  0  0  0  0  0  0  0  0999 V2000
   21.9832   -0.0636   52.4082 C   0  0  1  0  0  0  0  0  0  0  0  0
   20.6491   -0.2091   51.6425 C   0  0  1  0  0  0  0  0  0  0  0  0
   20.3275   -1.7371   51.4450 C   0  0  0  0  0  0  0  0  0  0  0  0
   21.5239   -2.3063   50.6499 C   0  0  1  0  0  0  0  0  0  0  0  0
   22.8903   -2.1435   51.4515 C   0  0  1  0  0  0  0  0  0  0  0  0
   24.1056   -2.7164   50.6723 C   0  0  1  0  0  0  0  0  0  0  0  0
   23.8110   -4.2228   50.4217 C   0  0  1  0  0  0  0  0  0  0  0  0
   22.4322   -4.3403   49.6679 C   0  0  2  0  0  0  0  0  0  0  0  0
   26.1424   -5.4120   50.3063 C   0  0  0  0  0  0  0  0  0  0  0  0
   19.5541    0.4302   52.4078 N   0  0  0  0  0  0  0  0  0  0  0  0
   24.9273   -4.8507   49.6191 N   0  0  0  0  0  0  0  0  0  0  0  0
   21.9093   -0.6260   53.7285 O   0  0  0  0  0  0  0  0  0  0  0  0
   23.0996   -0.7173   51.7088 O   0  0  0  0  0  0  0  0  0  0  0  0
   21.3169   -3.7247   50.4129 O   0  0  0  0  0  0  0  0  0  0  0  0
   24.2263   -1.9880   49.4463 O   0  0  0  0  0  0  0  0  0  0  0  0
   22.0995   -5.7014   49.4781 O   0  0  0  0  0  0  0  0  0  0  0  0
   22.7096   -6.1936   48.2997 C   0  0  2  0  0  0  0  0  0  0  0  0
   21.9951   -5.7197   47.0346 C   0  0  1  0  0  0  0  0  0  0  0  0
   20.5473   -6.2785   46.9652 C   0  0  2  0  0  0  0  0  0  0  0  0
   20.6403   -7.8317   47.0332 C   0  0  1  0  0  0  0  0  0  0  0  0
   21.3408   -8.2198   48.3767 C   0  0  1  0  0  0  0  0  0  0  0  0
   21.5327   -9.7125   48.5272 C   0  0  0  0  0  0  0  0  0  0  0  0
   19.2359   -8.3857   46.9635 N   0  0  0  0  0  0  0  0  0  0  0  0
   22.6952   -7.6545   48.3559 O   0  0  0  0  0  0  0  0  0  0  0  0
   21.9881   -4.2785   47.0548 O   0  0  0  0  0  0  0  0  0  0  0  0
   19.9771   -5.8844   45.7040 O   0  0  0  0  0  0  0  0  0  0  0  0
   22.1154  -10.0417   49.7416 O   0  0  0  0  0  0  0  0  0  0  0  0
   23.0377   -0.3329   54.5529 C   0  0  1  0  0  0  0  0  0  0  0  0
   22.9346    1.1375   55.0953 C   0  0  1  0  0  0  0  0  0  0  0  0
   24.1786    1.4315   56.0089 C   0  0  2  0  0  0  0  0  0  0  0  0
   24.1840    0.4502   57.1908 C   0  0  1  0  0  0  0  0  0  0  0  0
   24.3019   -1.0251   56.6451 C   0  0  0  0  0  0  0  0  0  0  0  0
   23.0604   -1.3180   55.7137 C   0  0  2  0  0  0  0  0  0  0  0  0
   25.3281    0.7447   58.0378 N   0  0  0  0  0  0  0  0  0  0  0  0
   23.1455   -2.6950   55.1599 N   0  0  0  0  0  0  0  0  0  0  0  0
   22.9285    2.0716   53.9778 O   0  0  0  0  0  0  0  0  0  0  0  0
   24.0811    2.7380   56.5107 O   0  0  0  0  0  0  0  0  0  0  0  0
  1  2  1  0  0  0  0
  1 12  1  1  0  0  0
  1 13  1  0  0  0  0
  2  3  1  0  0  0  0
  2 10  1  1  0  0  0
  4  3  1  1  0  0  0
  4  5  1  0  0  0  0
  4 14  1  0  0  0  0
  5  6  1  0  0  0  0
  5 13  1  6  0  0  0
  6  7  1  0  0  0  0
  6 15  1  6  0  0  0
  7  8  1  0  0  0  0
  7 11  1  6  0  0  0
  8 14  1  0  0  0  0
  8 16  1  1  0  0  0
  9 11  1  0  0  0  0
 17 16  1  1  0  0  0
 17 18  1  0  0  0  0
 17 24  1  0  0  0  0
 18 19  1  0  0  0  0
 18 25  1  1  0  0  0
 19 20  1  0  0  0  0
 19 26  1  6  0  0  0
 20 21  1  0  0  0  0
 20 23  1  1  0  0  0
 21 22  1  6  0  0  0
 21 24  1  0  0  0  0
 22 27  1  0  0  0  0
 28 12  1  6  0  0  0
 28 29  1  0  0  0  0
 28 33  1  0  0  0  0
 29 30  1  0  0  0  0
 29 36  1  6  0  0  0
 30 31  1  0  0  0  0
 30 37  1  1  0  0  0
 31 32  1  0  0  0  0
 31 34  1  1  0  0  0
 32 33  1  0  0  0  0
 33 35  1  6  0  0  0
M  END
>  <CHROM.1>
-170.56280713,86.99059883,-85.38503426,-76.10888459,-178.06044430,77.56456918
22.51612868,-3.18849806,51.27346039,1.30918532,-0.84768754,0.57035743

>  <Name>
2oe5_lig

>  <RI>
0

>  <Rbt.Current_Directory>
/home/itssahil/PROJECTS/Mol_Feturizer/New_Systems/rnas/2oe5

>  <Rbt.Executable>
rbdock ($Id: //depot/dev/client3/rdock/2013.1/src/exe/rbdock.cxx#4 $)

>  <Rbt.Library>
libRbt.so (2013.1, Build901 2013/11/27)

>  <Rbt.Parameter_File>
/export/apps/rDock/src/rDock_2013.1_src/data/scripts/dock_solv.prm

>  <Rbt.Receptor>
prm/pocket_docking_7.prm

>  <SCORE>
-13.2291

>  <SCORE.INTER>
-8.80296

>  <SCORE.INTER.CONST>
1

>  <SCORE.INTER.POLAR>
0

>  <SCORE.INTER.ROT>
6

>  <SCORE.INTER.SOLV>
14.7045

>  <SCORE.INTER.VDW>
-18.3702

>  <SCORE.INTER.norm>
-0.237918

>  <SCORE.INTRA>
-4.42618

>  <SCORE.INTRA.DIHEDRAL>
-9.82875

>  <SCORE.INTRA.DIHEDRAL.0>
16.2083

>  <SCORE.INTRA.POLAR>
0

>  <SCORE.INTRA.POLAR.0>
0

>  <SCORE.INTRA.REPUL>
0

>  <SCORE.INTRA.REPUL.0>
0

>  <SCORE.INTRA.SOLV>
-1.40554

>  <SCORE.INTRA.SOLV.lig_0>
-89.8095

>  <SCORE.INTRA.VDW>
1.19097

>  <SCORE.INTRA.VDW.0>
-3.19502

>  <SCORE.INTRA.norm>
-0.119626

>  <SCORE.RESTR>
0

>  <SCORE.RESTR.CAVITY>
0

>  <SCORE.RESTR.norm>
0

>  <SCORE.SYSTEM>
0

>  <SCORE.SYSTEM.CONST>
0

>  <SCORE.SYSTEM.DIHEDRAL>
0

>  <SCORE.SYSTEM.SOLV>
0

>  <SCORE.SYSTEM.norm>
0

>  <SCORE.heavy>
37

>  <SCORE.norm>
-0.357544

>  <RMSD>
3.493

$$$$
2oe5_lig
 OpenBabel11021811463D
libRbt.so/2013.1/901 2013/11/27
 37 40  0  0  0  0  0  0  0  0999 V2000
   20.7673   -0.0466   53.4879 C   0  0  1  0  0  0  0  0  0  0  0  0
   21.6105    0.7009   52.4309 C   0  0  1  0  0  0  0  0  0  0  0  0
   20.8880    0.6159   51.0352 C   0  0  0  0  0  0  0  0  0  0  0  0
   20.7694   -0.8938   50.7285 C   0  0  1  0  0  0  0  0  0  0  0  0
   19.9017   -1.6487   51.8301 C   0  0  1  0  0  0  0  0  0  0  0  0
   19.7638   -3.1676   51.5365 C   0  0  1  0  0  0  0  0  0  0  0  0
   19.0857   -3.2977   50.1430 C   0  0  1  0  0  0  0  0  0  0  0  0
   19.9505   -2.5012   49.0938 C   0  0  2  0  0  0  0  0  0  0  0  0
   17.6741   -5.4993   49.9916 C   0  0  0  0  0  0  0  0  0  0  0  0
   21.7660    2.1214   52.8198 N   0  0  0  0  0  0  0  0  0  0  0  0
   18.9584   -4.7526   49.7536 N   0  0  0  0  0  0  0  0  0  0  0  0
   19.4774    0.5590   53.6730 O   0  0  0  0  0  0  0  0  0  0  0  0
   20.5489   -1.4561   53.1295 O   0  0  0  0  0  0  0  0  0  0  0  0
   20.1116   -1.0772   49.4461 O   0  0  0  0  0  0  0  0  0  0  0  0
   21.0759   -3.7389   51.5438 O   0  0  0  0  0  0  0  0  0  0  0  0
   19.3301   -2.5440   47.8239 O   0  0  0  0  0  0  0  0  0  0  0  0
   20.3072   -2.6601   46.8066 C   0  0  2  0  0  0  0  0  0  0  0  0
   19.6857   -2.8600   45.4248 C   0  0  1  0  0  0  0  0  0  0  0  0
   18.9076   -4.2023   45.3484 C   0  0  2  0  0  0  0  0  0  0  0  0
   19.9049   -5.3435   45.7079 C   0  0  1  0  0  0  0  0  0  0  0  0
   20.4502   -5.0782   47.1496 C   0  0  1  0  0  0  0  0  0  0  0  0
   21.4734   -6.1027   47.5864 C   0  0  0  0  0  0  0  0  0  0  0  0
   19.1579   -6.6551   45.6335 N   0  0  0  0  0  0  0  0  0  0  0  0
   21.1672   -3.7976   47.1293 O   0  0  0  0  0  0  0  0  0  0  0  0
   18.8076   -1.7436   45.1790 O   0  0  0  0  0  0  0  0  0  0  0  0
   18.4459   -4.3738   43.9962 O   0  0  0  0  0  0  0  0  0  0  0  0
   21.9160   -5.8760   48.8808 O   0  0  0  0  0  0  0  0  0  0  0  0
   19.4550    1.6002   54.6497 C   0  0  1  0  0  0  0  0  0  0  0  0
   18.3277    2.6363   54.2996 C   0  0  1  0  0  0  0  0  0  0  0  0
   18.3140    3.7633   55.3941 C   0  0  2  0  0  0  0  0  0  0  0  0
   18.0229    3.1357   56.7657 C   0  0  1  0  0  0  0  0  0  0  0  0
   19.1635    2.1061   57.1224 C   0  0  0  0  0  0  0  0  0  0  0  0
   19.1896    0.9803   56.0150 C   0  0  2  0  0  0  0  0  0  0  0  0
   17.9943    4.1903   57.7658 N   0  0  0  0  0  0  0  0  0  0  0  0
   20.2686   -0.0009   56.3032 N   0  0  0  0  0  0  0  0  0  0  0  0
   18.5993    3.2335   52.9992 O   0  0  0  0  0  0  0  0  0  0  0  0
   17.2960    4.6812   55.0953 O   0  0  0  0  0  0  0  0  0  0  0  0
  1  2  1  0  0  0  0
  1 12  1  6  0  0  0
  1 13  1  0  0  0  0
  2  3  1  0  0  0  0
  2 10  1  1  0  0  0
  4  3  1  1  0  0  0
  4  5  1  0  0  0  0
  4 14  1  0  0  0  0
  5  6  1  0  0  0  0
  5 13  1  1  0  0  0
  6  7  1  0  0  0  0
  6 15  1  6  0  0  0
  7  8  1  0  0  0  0
  7 11  1  6  0  0  0
  8 14  1  0  0  0  0
  8 16  1  6  0  0  0
  9 11  1  0  0  0  0
 17 16  1  1  0  0  0
 17 18  1  0  0  0  0
 17 24  1  0  0  0  0
 18 19  1  0  0  0  0
 18 25  1  1  0  0  0
 19 20  1  0  0  0  0
 19 26  1  6  0  0  0
 20 21  1  0  0  0  0
 20 23  1  1  0  0  0
 21 22  1  6  0  0  0
 21 24  1  0  0  0  0
 22 27  1  0  0  0  0
 28 12  1  6  0  0  0
 28 29  1  0  0  0  0
 28 33  1  0  0  0  0
 29 30  1  0  0  0  0
 29 36  1  6  0  0  0
 30 31  1  0  0  0  0
 30 37  1  6  0  0  0
 31 32  1  0  0  0  0
 31 34  1  1  0  0  0
 32 33  1  0  0  0  0
 33 35  1  1  0  0  0
M  END
>  <CHROM.1>
-88.00677811,96.74856955,-142.31386116,173.91661515,-178.17611572,151.55990528
19.68754153,-1.34509627,50.86487941,-1.77631685,1.21454133,-2.05487329

>  <Name>
2oe5_lig

>  <RI>
0

>  <Rbt.Current_Directory>
/home/itssahil/PROJECTS/Mol_Feturizer/New_Systems/rnas/2oe5

>  <Rbt.Executable>
rbdock ($Id: //depot/dev/client3/rdock/2013.1/src/exe/rbdock.cxx#4 $)

>  <Rbt.Library>
libRbt.so (2013.1, Build901 2013/11/27)

>  <Rbt.Parameter_File>
/export/apps/rDock/src/rDock_2013.1_src/data/scripts/dock_solv.prm

>  <Rbt.Receptor>
prm/pocket_docking_5.prm

>  <SCORE>
-19

>  <SCORE.INTER>
-17.5846

>  <SCORE.INTER.CONST>
1

>  <SCORE.INTER.POLAR>
-1.16148

>  <SCORE.INTER.ROT>
6

>  <SCORE.INTER.SOLV>
14.6149

>  <SCORE.INTER.VDW>
-20.3231

>  <SCORE.INTER.norm>
-0.475259

>  <SCORE.INTRA>
-1.41542

>  <SCORE.INTRA.DIHEDRAL>
-3.65177

>  <SCORE.INTRA.DIHEDRAL.0>
16.2083

>  <SCORE.INTRA.POLAR>
0

>  <SCORE.INTRA.POLAR.0>
0

>  <SCORE.INTRA.REPUL>
0

>  <SCORE.INTRA.REPUL.0>
0

>  <SCORE.INTRA.SOLV>
1.8485

>  <SCORE.INTRA.SOLV.lig_0>
-89.8095

>  <SCORE.INTRA.VDW>
-0.513781

>  <SCORE.INTRA.VDW.0>
-3.19502

>  <SCORE.INTRA.norm>
-0.0382545

>  <SCORE.RESTR>
0

>  <SCORE.RESTR.CAVITY>
0

>  <SCORE.RESTR.norm>
0

>  <SCORE.SYSTEM>
0

>  <SCORE.SYSTEM.CONST>
0

>  <SCORE.SYSTEM.DIHEDRAL>
0

>  <SCORE.SYSTEM.SOLV>
0

>  <SCORE.SYSTEM.norm>
0

>  <SCORE.heavy>
37

>  <SCORE.norm>
-0.513513

>  <RMSD>
3.496

$$$$
2oe5_lig
 OpenBabel11021811463D
libRbt.so/2013.1/901 2013/11/27
 37 40  0  0  0  0  0  0  0  0999 V2000
   20.1000    2.0439   53.7547 C   0  0  1  0  0  0  0  0  0  0  0  0
   18.8198    1.3435   54.2625 C   0  0  1  0  0  0  0  0  0  0  0  0
   19.0545   -0.2126   54.2880 C   0  0  0  0  0  0  0  0  0  0  0  0
   19.3936   -0.5980   52.8306 C   0  0  1  0  0  0  0  0  0  0  0  0
   20.7122    0.1365   52.3225 C   0  0  1  0  0  0  0  0  0  0  0  0
   21.0753   -0.2430   50.8609 C   0  0  1  0  0  0  0  0  0  0  0  0
   21.2795   -1.7845   50.8327 C   0  0  1  0  0  0  0  0  0  0  0  0
   19.9713   -2.4687   51.3839 C   0  0  2  0  0  0  0  0  0  0  0  0
   22.8995   -1.9014   48.7773 C   0  0  0  0  0  0  0  0  0  0  0  0
   18.4927    1.8151   55.6278 N   0  0  0  0  0  0  0  0  0  0  0  0
   21.5880   -2.2487   49.4277 N   0  0  0  0  0  0  0  0  0  0  0  0
   21.2162    1.8267   54.6332 O   0  0  0  0  0  0  0  0  0  0  0  0
   20.4925    1.5813   52.4150 O   0  0  0  0  0  0  0  0  0  0  0  0
   19.6264   -2.0297   52.7500 O   0  0  0  0  0  0  0  0  0  0  0  0
   19.9930    0.1646   50.0178 O   0  0  0  0  0  0  0  0  0  0  0  0
   20.1432   -3.8713   51.4326 O   0  0  0  0  0  0  0  0  0  0  0  0
   18.9379   -4.5237   51.0794 C   0  0  2  0  0  0  0  0  0  0  0  0
   19.1596   -5.9875   50.7004 C   0  0  1  0  0  0  0  0  0  0  0  0
   20.0367   -6.1099   49.4242 C   0  0  2  0  0  0  0  0  0  0  0  0
   19.3253   -5.3166   48.2883 C   0  0  1  0  0  0  0  0  0  0  0  0
   19.1855   -3.8279   48.7471 C   0  0  1  0  0  0  0  0  0  0  0  0
   18.4575   -2.9697   47.7367 C   0  0  0  0  0  0  0  0  0  0  0  0
   20.1700   -5.4321   47.0403 N   0  0  0  0  0  0  0  0  0  0  0  0
   18.3461   -3.8066   49.9510 O   0  0  0  0  0  0  0  0  0  0  0  0
   19.7929   -6.6344   51.8220 O   0  0  0  0  0  0  0  0  0  0  0  0
   20.1115   -7.5018   49.0663 O   0  0  0  0  0  0  0  0  0  0  0  0
   17.2248   -3.5037   47.3932 O   0  0  0  0  0  0  0  0  0  0  0  0
   22.2365    2.8210   54.5391 C   0  0  1  0  0  0  0  0  0  0  0  0
   21.7158    4.1780   55.1344 C   0  0  1  0  0  0  0  0  0  0  0  0
   22.8589    5.2510   55.0319 C   0  0  2  0  0  0  0  0  0  0  0  0
   24.0770    4.7740   55.8370 C   0  0  1  0  0  0  0  0  0  0  0  0
   24.6075    3.4185   55.2291 C   0  0  0  0  0  0  0  0  0  0  0  0
   23.4550    2.3423   55.3168 C   0  0  2  0  0  0  0  0  0  0  0  0
   25.1196    5.7832   55.7497 N   0  0  0  0  0  0  0  0  0  0  0  0
   23.9086    1.0529   54.7322 N   0  0  0  0  0  0  0  0  0  0  0  0
   20.5600    4.6339   54.3742 O   0  0  0  0  0  0  0  0  0  0  0  0
   22.4041    6.4599   55.5796 O   0  0  0  0  0  0  0  0  0  0  0  0
  1  2  1  0  0  0  0
  1 12  1  1  0  0  0
  1 13  1  0  0  0  0
  2  3  1  0  0  0  0
  2 10  1  1  0  0  0
  4  3  1  1  0  0  0
  4  5  1  0  0  0  0
  4 14  1  0  0  0  0
  5  6  1  0  0  0  0
  5 13  1  6  0  0  0
  6  7  1  0  0  0  0
  6 15  1  6  0  0  0
  7  8  1  0  0  0  0
  7 11  1  6  0  0  0
  8 14  1  0  0  0  0
  8 16  1  1  0  0  0
  9 11  1  0  0  0  0
 17 16  1  6  0  0  0
 17 18  1  0  0  0  0
 17 24  1  0  0  0  0
 18 19  1  0  0  0  0
 18 25  1  1  0  0  0
 19 20  1  0  0  0  0
 19 26  1  6  0  0  0
 20 21  1  0  0  0  0
 20 23  1  6  0  0  0
 21 22  1  6  0  0  0
 21 24  1  0  0  0  0
 22 27  1  0  0  0  0
 28 12  1  1  0  0  0
 28 29  1  0  0  0  0
 28 33  1  0  0  0  0
 29 30  1  0  0  0  0
 29 36  1  6  0  0  0
 30 31  1  0  0  0  0
 30 37  1  1  0  0  0
 31 32  1  0  0  0  0
 31 34  1  6  0  0  0
 32 33  1  0  0  0  0
 33 35  1  6  0  0  0
M  END
>  <CHROM.1>
-156.56289892,69.42387625,-142.71899096,162.52611701,53.79232649,69.85527834
20.69120386,-0.60696802,52.08927237,1.28417437,0.22919307,0.64908609

>  <Name>
2oe5_lig

>  <RI>
0

>  <Rbt.Current_Directory>
/home/itssahil/PROJECTS/Mol_Feturizer/New_Systems/rnas/2oe5

>  <Rbt.Executable>
rbdock ($Id: //depot/dev/client3/rdock/2013.1/src/exe/rbdock.cxx#4 $)

>  <Rbt.Library>
libRbt.so (2013.1, Build901 2013/11/27)

>  <Rbt.Parameter_File>
/export/apps/rDock/src/rDock_2013.1_src/data/scripts/dock_solv.prm

>  <Rbt.Receptor>
prm/pocket_docking_6.prm

>  <SCORE>
-24.3699

>  <SCORE.INTER>
-22.9697

>  <SCORE.INTER.CONST>
1

>  <SCORE.INTER.POLAR>
-2.6205

>  <SCORE.INTER.ROT>
6

>  <SCORE.INTER.SOLV>
13.4546

>  <SCORE.INTER.VDW>
-18.663

>  <SCORE.INTER.norm>
-0.620803

>  <SCORE.INTRA>
-1.66327

>  <SCORE.INTRA.DIHEDRAL>
-6.7678

>  <SCORE.INTRA.DIHEDRAL.0>
16.2083

>  <SCORE.INTRA.POLAR>
0

>  <SCORE.INTRA.POLAR.0>
0

>  <SCORE.INTRA.REPUL>
0

>  <SCORE.INTRA.REPUL.0>
0

>  <SCORE.INTRA.SOLV>
2.82623e-05

>  <SCORE.INTRA.SOLV.lig_0>
-89.8095

>  <SCORE.INTRA.VDW>
1.72061

>  <SCORE.INTRA.VDW.0>
-3.19502

>  <SCORE.INTRA.norm>
-0.0449533

>  <SCORE.RESTR>
0.263088

>  <SCORE.RESTR.CAVITY>
0.263088

>  <SCORE.RESTR.norm>
0.00711048

>  <SCORE.SYSTEM>
0

>  <SCORE.SYSTEM.CONST>
0

>  <SCORE.SYSTEM.DIHEDRAL>
0

>  <SCORE.SYSTEM.SOLV>
0

>  <SCORE.SYSTEM.norm>
0

>  <SCORE.heavy>
37

>  <SCORE.norm>
-0.658646

>  <RMSD>
3.519

$$$$
2oe5_lig
 OpenBabel11021811463D
libRbt.so/2013.1/901 2013/11/27
 37 40  0  0  0  0  0  0  0  0999 V2000
   20.9571    0.9964   52.6728 C   0  0  1  0  0  0  0  0  0  0  0  0
   21.6486    1.3486   51.3367 C   0  0  1  0  0  0  0  0  0  0  0  0
   21.0408    0.4613   50.1876 C   0  0  0  0  0  0  0  0  0  0  0  0
   21.3057   -0.9993   50.6166 C   0  0  1  0  0  0  0  0  0  0  0  0
   20.5900   -1.3431   51.9971 C   0  0  1  0  0  0  0  0  0  0  0  0
   20.8378   -2.8100   52.4432 C   0  0  1  0  0  0  0  0  0  0  0  0
   20.2839   -3.7244   51.3137 C   0  0  1  0  0  0  0  0  0  0  0  0
   20.9841   -3.3215   49.9607 C   0  0  2  0  0  0  0  0  0  0  0  0
   19.3960   -6.1653   51.6545 C   0  0  0  0  0  0  0  0  0  0  0  0
   21.4366    2.7795   51.0191 N   0  0  0  0  0  0  0  0  0  0  0  0
   20.5315   -5.1782   51.6449 N   0  0  0  0  0  0  0  0  0  0  0  0
   19.5514    1.2935   52.6452 O   0  0  0  0  0  0  0  0  0  0  0  0
   21.1038   -0.4259   53.0166 O   0  0  0  0  0  0  0  0  0  0  0  0
   20.7786   -1.9032   49.6087 O   0  0  0  0  0  0  0  0  0  0  0  0
   22.2468   -2.9838   52.6239 O   0  0  0  0  0  0  0  0  0  0  0  0
   20.4587   -4.0906   48.8969 O   0  0  0  0  0  0  0  0  0  0  0  0
   21.4379   -4.2648   47.8900 C   0  0  2  0  0  0  0  0  0  0  0  0
   21.2958   -3.2464   46.7595 C   0  0  1  0  0  0  0  0  0  0  0  0
   19.9501   -3.4293   46.0054 C   0  0  2  0  0  0  0  0  0  0  0  0
   19.9037   -4.8939   45.4776 C   0  0  1  0  0  0  0  0  0  0  0  0
   20.0087   -5.8579   46.7047 C   0  0  1  0  0  0  0  0  0  0  0  0
   20.0260   -7.3162   46.3041 C   0  0  0  0  0  0  0  0  0  0  0  0
   18.5984   -5.0816   44.7392 N   0  0  0  0  0  0  0  0  0  0  0  0
   21.3033   -5.6184   47.3536 O   0  0  0  0  0  0  0  0  0  0  0  0
   21.3801   -1.9327   47.3466 O   0  0  0  0  0  0  0  0  0  0  0  0
   19.9340   -2.5156   44.8937 O   0  0  0  0  0  0  0  0  0  0  0  0
   20.0919   -8.1569   47.4049 O   0  0  0  0  0  0  0  0  0  0  0  0
   19.0336    1.7862   53.8813 C   0  0  1  0  0  0  0  0  0  0  0  0
   19.5050    0.8647   55.0625 C   0  0  1  0  0  0  0  0  0  0  0  0
   18.9346    1.4339   56.4113 C   0  0  2  0  0  0  0  0  0  0  0  0
   19.4702    2.8572   56.6288 C   0  0  1  0  0  0  0  0  0  0  0  0
   18.9840    3.7847   55.4492 C   0  0  0  0  0  0  0  0  0  0  0  0
   19.5432    3.2058   54.0903 C   0  0  2  0  0  0  0  0  0  0  0  0
   18.9507    3.3649   57.8879 N   0  0  0  0  0  0  0  0  0  0  0  0
   19.0879    4.0414   52.9482 N   0  0  0  0  0  0  0  0  0  0  0  0
   18.9999   -0.4864   54.8601 O   0  0  0  0  0  0  0  0  0  0  0  0
   19.3687    0.6240   57.4714 O   0  0  0  0  0  0  0  0  0  0  0  0
  1  2  1  0  0  0  0
  1 12  1  6  0  0  0
  1 13  1  0  0  0  0
  2  3  1  0  0  0  0
  2 10  1  6  0  0  0
  4  3  1  6  0  0  0
  4  5  1  0  0  0  0
  4 14  1  0  0  0  0
  5  6  1  0  0  0  0
  5 13  1  1  0  0  0
  6  7  1  0  0  0  0
  6 15  1  6  0  0  0
  7  8  1  0  0  0  0
  7 11  1  1  0  0  0
  8 14  1  0  0  0  0
  8 16  1  6  0  0  0
  9 11  1  0  0  0  0
 17 16  1  1  0  0  0
 17 18  1  0  0  0  0
 17 24  1  0  0  0  0
 18 19  1  0  0  0  0
 18 25  1  1  0  0  0
 19 20  1  0  0  0  0
 19 26  1  6  0  0  0
 20 21  1  0  0  0  0
 20 23  1  1  0  0  0
 21 22  1  6  0  0  0
 21 24  1  0  0  0  0
 22 27  1  0  0  0  0
 28 12  1  6  0  0  0
 28 29  1  0  0  0  0
 28 33  1  0  0  0  0
 29 30  1  0  0  0  0
 29 36  1  6  0  0  0
 30 31  1  0  0  0  0
 30 37  1  1  0  0  0
 31 32  1  0  0  0  0
 31 34  1  1  0  0  0
 32 33  1  0  0  0  0
 33 35  1  6  0  0  0
M  END
>  <CHROM.1>
-143.37490563,125.85957267,-150.65161913,-96.44979627,-178.77128035,-48.50982835
20.24719955,-1.59113512,50.98402154,-2.34862753,-1.47460230,-3.06866193

>  <Name>
2oe5_lig

>  <RI>
0

>  <Rbt.Current_Directory>
/home/itssahil/PROJECTS/Mol_Feturizer/New_Systems/rnas/2oe5

>  <Rbt.Executable>
rbdock ($Id: //depot/dev/client3/rdock/2013.1/src/exe/rbdock.cxx#4 $)

>  <Rbt.Library>
libRbt.so (2013.1, Build901 2013/11/27)

>  <Rbt.Parameter_File>
/export/apps/rDock/src/rDock_2013.1_src/data/scripts/dock_solv.prm

>  <Rbt.Receptor>
prm/pocket_docking_4.prm

>  <SCORE>
-11.0401

>  <SCORE.INTER>
-12.5823

>  <SCORE.INTER.CONST>
1

>  <SCORE.INTER.POLAR>
-0.947583

>  <SCORE.INTER.ROT>
6

>  <SCORE.INTER.SOLV>
20.4547

>  <SCORE.INTER.VDW>
-19.6478

>  <SCORE.INTER.norm>
-0.340061

>  <SCORE.INTRA>
1.4768

>  <SCORE.INTRA.DIHEDRAL>
-1.3038

>  <SCORE.INTRA.DIHEDRAL.0>
16.2083

>  <SCORE.INTRA.POLAR>
0

>  <SCORE.INTRA.POLAR.0>
0

>  <SCORE.INTRA.REPUL>
0

>  <SCORE.INTRA.REPUL.0>
0

>  <SCORE.INTRA.SOLV>
-0.0179094

>  <SCORE.INTRA.SOLV.lig_0>
-89.8095

>  <SCORE.INTRA.VDW>
2.13765

>  <SCORE.INTRA.VDW.0>
-3.19502

>  <SCORE.INTRA.norm>
0.0399135

>  <SCORE.RESTR>
0.065348

>  <SCORE.RESTR.CAVITY>
0.065348

>  <SCORE.RESTR.norm>
0.00176616

>  <SCORE.SYSTEM>
0

>  <SCORE.SYSTEM.CONST>
0

>  <SCORE.SYSTEM.DIHEDRAL>
0

>  <SCORE.SYSTEM.SOLV>
0

>  <SCORE.SYSTEM.norm>
0

>  <SCORE.heavy>
37

>  <SCORE.norm>
-0.298381

>  <RMSD>
3.566

$$$$
2oe5_lig
 OpenBabel11021811463D
libRbt.so/2013.1/901 2013/11/27
 37 40  0  0  0  0  0  0  0  0999 V2000
   20.3471    3.0034   53.7263 C   0  0  1  0  0  0  0  0  0  0  0  0
   18.8665    2.7145   53.3921 C   0  0  1  0  0  0  0  0  0  0  0  0
   18.6609    1.1610   53.2450 C   0  0  0  0  0  0  0  0  0  0  0  0
   19.6129    0.7294   52.1071 C   0  0  1  0  0  0  0  0  0  0  0  0
   21.1332    1.0390   52.4664 C   0  0  1  0  0  0  0  0  0  0  0  0
   22.1082    0.6057   51.3378 C   0  0  1  0  0  0  0  0  0  0  0  0
   21.9099   -0.9231   51.1327 C   0  0  1  0  0  0  0  0  0  0  0  0
   20.3876   -1.1892   50.8244 C   0  0  2  0  0  0  0  0  0  0  0  0
   24.1515   -1.9923   50.2994 C   0  0  0  0  0  0  0  0  0  0  0  0
   17.9943    3.2270   54.4737 N   0  0  0  0  0  0  0  0  0  0  0  0
   22.7898   -1.4218   50.0096 N   0  0  0  0  0  0  0  0  0  0  0  0
   20.7352    2.4322   54.9865 O   0  0  0  0  0  0  0  0  0  0  0  0
   21.2611    2.4788   52.7005 O   0  0  0  0  0  0  0  0  0  0  0  0
   19.4925   -0.7024   51.8919 O   0  0  0  0  0  0  0  0  0  0  0  0
   21.7759    1.3469   50.1595 O   0  0  0  0  0  0  0  0  0  0  0  0
   20.1564   -2.5780   50.6940 O   0  0  0  0  0  0  0  0  0  0  0  0
   20.1278   -2.9422   49.3267 C   0  0  2  0  0  0  0  0  0  0  0  0
   19.0520   -3.9851   49.0261 C   0  0  1  0  0  0  0  0  0  0  0  0
   19.3454   -5.3218   49.7610 C   0  0  2  0  0  0  0  0  0  0  0  0
   20.7594   -5.8006   49.3169 C   0  0  1  0  0  0  0  0  0  0  0  0
   21.7935   -4.6935   49.7060 C   0  0  1  0  0  0  0  0  0  0  0  0
   23.2029   -5.0304   49.2730 C   0  0  0  0  0  0  0  0  0  0  0  0
   21.0536   -7.1031   50.0248 N   0  0  0  0  0  0  0  0  0  0  0  0
   21.4424   -3.4733   48.9696 O   0  0  0  0  0  0  0  0  0  0  0  0
   17.7870   -3.4362   49.4457 O   0  0  0  0  0  0  0  0  0  0  0  0
   18.3587   -6.2842   49.3474 O   0  0  0  0  0  0  0  0  0  0  0  0
   23.6447   -6.2235   49.8241 O   0  0  0  0  0  0  0  0  0  0  0  0
   21.6127    3.2548   55.7559 C   0  0  1  0  0  0  0  0  0  0  0  0
   22.9114    3.5681   54.9300 C   0  0  1  0  0  0  0  0  0  0  0  0
   23.8538    4.4840   55.7910 C   0  0  2  0  0  0  0  0  0  0  0  0
   23.1265    5.7972   56.1169 C   0  0  1  0  0  0  0  0  0  0  0  0
   21.8302    5.4821   56.9585 C   0  0  0  0  0  0  0  0  0  0  0  0
   20.8879    4.5487   56.1011 C   0  0  2  0  0  0  0  0  0  0  0  0
   24.0152    6.6427   56.8971 N   0  0  0  0  0  0  0  0  0  0  0  0
   19.6613    4.2094   56.8695 N   0  0  0  0  0  0  0  0  0  0  0  0
   23.6041    2.3253   54.6181 O   0  0  0  0  0  0  0  0  0  0  0  0
   25.0072    4.7815   55.0498 O   0  0  0  0  0  0  0  0  0  0  0  0
  1  2  1  0  0  0  0
  1 12  1  1  0  0  0
  1 13  1  0  0  0  0
  2  3  1  0  0  0  0
  2 10  1  1  0  0  0
  4  3  1  1  0  0  0
  4  5  1  0  0  0  0
  4 14  1  0  0  0  0
  5  6  1  0  0  0  0
  5 13  1  6  0  0  0
  6  7  1  0  0  0  0
  6 15  1  6  0  0  0
  7  8  1  0  0  0  0
  7 11  1  6  0  0  0
  8 14  1  0  0  0  0
  8 16  1  1  0  0  0
  9 11  1  0  0  0  0
 17 16  1  1  0  0  0
 17 18  1  0  0  0  0
 17 24  1  0  0  0  0
 18 19  1  0  0  0  0
 18 25  1  1  0  0  0
 19 20  1  0  0  0  0
 19 26  1  6  0  0  0
 20 21  1  0  0  0  0
 20 23  1  1  0  0  0
 21 22  1  6  0  0  0
 21 24  1  0  0  0  0
 22 27  1  0  0  0  0
 28 12  1  6  0  0  0
 28 29  1  0  0  0  0
 28 33  1  0  0  0  0
 29 30  1  0  0  0  0
 29 36  1  1  0  0  0
 30 31  1  0  0  0  0
 30 37  1  6  0  0  0
 31 32  1  0  0  0  0
 31 34  1  1  0  0  0
 32 33  1  0  0  0  0
 33 35  1  1  0  0  0
M  END
>  <CHROM.1>
-141.27208226,93.88838031,-98.74130018,-140.76228930,-58.64807356,-57.87656931
21.21248094,-0.02899438,52.30288888,1.44977312,0.01327911,0.58531997

>  <Name>
2oe5_lig

>  <RI>
0

>  <Rbt.Current_Directory>
/home/itssahil/PROJECTS/Mol_Feturizer/New_Systems/rnas/2oe5

>  <Rbt.Executable>
rbdock ($Id: //depot/dev/client3/rdock/2013.1/src/exe/rbdock.cxx#4 $)

>  <Rbt.Library>
libRbt.so (2013.1, Build901 2013/11/27)

>  <Rbt.Parameter_File>
/export/apps/rDock/src/rDock_2013.1_src/data/scripts/dock_solv.prm

>  <Rbt.Receptor>
prm/pocket_docking_6.prm

>  <SCORE>
-12.0514

>  <SCORE.INTER>
-13.803

>  <SCORE.INTER.CONST>
1

>  <SCORE.INTER.POLAR>
-0.979796

>  <SCORE.INTER.ROT>
6

>  <SCORE.INTER.SOLV>
12.1282

>  <SCORE.INTER.VDW>
-17.5788

>  <SCORE.INTER.norm>
-0.373054

>  <SCORE.INTRA>
1.72513

>  <SCORE.INTRA.DIHEDRAL>
0.177961

>  <SCORE.INTRA.DIHEDRAL.0>
16.2083

>  <SCORE.INTRA.POLAR>
0

>  <SCORE.INTRA.POLAR.0>
0

>  <SCORE.INTRA.REPUL>
0

>  <SCORE.INTRA.REPUL.0>
0

>  <SCORE.INTRA.SOLV>
2.44491

>  <SCORE.INTRA.SOLV.lig_0>
-89.8095

>  <SCORE.INTRA.VDW>
0.41369

>  <SCORE.INTRA.VDW.0>
-3.19502

>  <SCORE.INTRA.norm>
0.046625

>  <SCORE.RESTR>
0.026434

>  <SCORE.RESTR.CAVITY>
0.026434

>  <SCORE.RESTR.norm>
0.000714433

>  <SCORE.SYSTEM>
0

>  <SCORE.SYSTEM.CONST>
0

>  <SCORE.SYSTEM.DIHEDRAL>
0

>  <SCORE.SYSTEM.SOLV>
0

>  <SCORE.SYSTEM.norm>
0

>  <SCORE.heavy>
37

>  <SCORE.norm>
-0.325715

>  <RMSD>
3.584

$$$$
2oe5_lig
 OpenBabel11021811463D
libRbt.so/2013.1/901 2013/11/27
 37 40  0  0  0  0  0  0  0  0999 V2000
   22.9562   -0.1898   52.3073 C   0  0  1  0  0  0  0  0  0  0  0  0
   22.7781    0.5517   50.9634 C   0  0  1  0  0  0  0  0  0  0  0  0
   21.4052    0.1335   50.3173 C   0  0  0  0  0  0  0  0  0  0  0  0
   21.4905   -1.3983   50.1339 C   0  0  1  0  0  0  0  0  0  0  0  0
   21.6787   -2.1454   51.5277 C   0  0  1  0  0  0  0  0  0  0  0  0
   21.7595   -3.6881   51.3663 C   0  0  1  0  0  0  0  0  0  0  0  0
   20.4325   -4.1412   50.6938 C   0  0  1  0  0  0  0  0  0  0  0  0
   20.2639   -3.3468   49.3433 C   0  0  2  0  0  0  0  0  0  0  0  0
   20.3217   -6.5966   51.6001 C   0  0  0  0  0  0  0  0  0  0  0  0
   22.7918    2.0156   51.1876 N   0  0  0  0  0  0  0  0  0  0  0  0
   20.4481   -5.6330   50.4515 N   0  0  0  0  0  0  0  0  0  0  0  0
   21.9438    0.1738   53.2600 O   0  0  0  0  0  0  0  0  0  0  0  0
   22.9104   -1.6508   52.1462 O   0  0  0  0  0  0  0  0  0  0  0  0
   20.2589   -1.8836   49.5353 O   0  0  0  0  0  0  0  0  0  0  0  0
   22.8970   -3.9870   50.5508 O   0  0  0  0  0  0  0  0  0  0  0  0
   19.0346   -3.6867   48.7329 O   0  0  0  0  0  0  0  0  0  0  0  0
   19.2635   -4.4698   47.5765 C   0  0  2  0  0  0  0  0  0  0  0  0
   19.7075   -3.6259   46.3823 C   0  0  1  0  0  0  0  0  0  0  0  0
   18.5906   -2.6377   45.9473 C   0  0  2  0  0  0  0  0  0  0  0  0
   17.3201   -3.4787   45.6245 C   0  0  1  0  0  0  0  0  0  0  0  0
   16.9173   -4.2678   46.9134 C   0  0  1  0  0  0  0  0  0  0  0  0
   15.7182   -5.1647   46.7002 C   0  0  0  0  0  0  0  0  0  0  0  0
   16.2274   -2.5261   45.1971 N   0  0  0  0  0  0  0  0  0  0  0  0
   18.0234   -5.1721   47.2496 O   0  0  0  0  0  0  0  0  0  0  0  0
   20.8982   -2.9140   46.7736 O   0  0  0  0  0  0  0  0  0  0  0  0
   19.0341   -1.9586   44.7586 O   0  0  0  0  0  0  0  0  0  0  0  0
   15.3721   -5.8524   47.8534 O   0  0  0  0  0  0  0  0  0  0  0  0
   22.0272   -0.5305   54.4992 C   0  0  1  0  0  0  0  0  0  0  0  0
   23.3795   -0.1849   55.2195 C   0  0  1  0  0  0  0  0  0  0  0  0
   23.4419   -0.9602   56.5846 C   0  0  2  0  0  0  0  0  0  0  0  0
   22.2653   -0.5242   57.4707 C   0  0  1  0  0  0  0  0  0  0  0  0
   20.9081   -0.8849   56.7524 C   0  0  0  0  0  0  0  0  0  0  0  0
   20.8497   -0.1188   55.3725 C   0  0  2  0  0  0  0  0  0  0  0  0
   22.3453   -1.2340   58.7367 N   0  0  0  0  0  0  0  0  0  0  0  0
   19.5921   -0.4500   54.6522 N   0  0  0  0  0  0  0  0  0  0  0  0
   24.4982   -0.5962   54.3823 O   0  0  0  0  0  0  0  0  0  0  0  0
   24.6403   -0.6399   57.2400 O   0  0  0  0  0  0  0  0  0  0  0  0
  1  2  1  0  0  0  0
  1 12  1  1  0  0  0
  1 13  1  0  0  0  0
  2  3  1  0  0  0  0
  2 10  1  1  0  0  0
  4  3  1  1  0  0  0
  4  5  1  0  0  0  0
  4 14  1  0  0  0  0
  5  6  1  0  0  0  0
  5 13  1  6  0  0  0
  6  7  1  0  0  0  0
  6 15  1  6  0  0  0
  7  8  1  0  0  0  0
  7 11  1  6  0  0  0
  8 14  1  0  0  0  0
  8 16  1  1  0  0  0
  9 11  1  0  0  0  0
 17 16  1  1  0  0  0
 17 18  1  0  0  0  0
 17 24  1  0  0  0  0
 18 19  1  0  0  0  0
 18 25  1  1  0  0  0
 19 20  1  0  0  0  0
 19 26  1  6  0  0  0
 20 21  1  0  0  0  0
 20 23  1  1  0  0  0
 21 22  1  6  0  0  0
 21 24  1  0  0  0  0
 22 27  1  0  0  0  0
 28 12  1  6  0  0  0
 28 29  1  0  0  0  0
 28 33  1  0  0  0  0
 29 30  1  0  0  0  0
 29 36  1  6  0  0  0
 30 31  1  0  0  0  0
 30 37  1  1  0  0  0
 31 32  1  0  0  0  0
 31 34  1  1  0  0  0
 32 33  1  0  0  0  0
 33 35  1  6  0  0  0
M  END
>  <CHROM.1>
177.26346823,72.03155970,-108.92331634,-78.09434455,-179.77694818,63.26554181
20.65961341,-2.28836441,50.94048993,-0.74204407,-0.90767123,-1.23222312

>  <Name>
2oe5_lig

>  <RI>
0

>  <Rbt.Current_Directory>
/home/itssahil/PROJECTS/Mol_Feturizer/New_Systems/rnas/2oe5

>  <Rbt.Executable>
rbdock ($Id: //depot/dev/client3/rdock/2013.1/src/exe/rbdock.cxx#4 $)

>  <Rbt.Library>
libRbt.so (2013.1, Build901 2013/11/27)

>  <Rbt.Parameter_File>
/export/apps/rDock/src/rDock_2013.1_src/data/scripts/dock_solv.prm

>  <Rbt.Receptor>
prm/pocket_docking_5.prm

>  <SCORE>
-17.4333

>  <SCORE.INTER>
-14.509

>  <SCORE.INTER.CONST>
1

>  <SCORE.INTER.POLAR>
-1.79722

>  <SCORE.INTER.ROT>
6

>  <SCORE.INTER.SOLV>
26.6814

>  <SCORE.INTER.VDW>
-20.1757

>  <SCORE.INTER.norm>
-0.392136

>  <SCORE.INTRA>
-2.92432

>  <SCORE.INTRA.DIHEDRAL>
-7.85077

>  <SCORE.INTRA.DIHEDRAL.0>
16.2083

>  <SCORE.INTRA.POLAR>
0

>  <SCORE.INTRA.POLAR.0>
0

>  <SCORE.INTRA.REPUL>
0

>  <SCORE.INTRA.REPUL.0>
0

>  <SCORE.INTRA.SOLV>
-2.60489

>  <SCORE.INTRA.SOLV.lig_0>
-89.8095

>  <SCORE.INTRA.VDW>
2.30351

>  <SCORE.INTRA.VDW.0>
-3.19502

>  <SCORE.INTRA.norm>
-0.0790358

>  <SCORE.RESTR>
0

>  <SCORE.RESTR.CAVITY>
0

>  <SCORE.RESTR.norm>
0

>  <SCORE.SYSTEM>
0

>  <SCORE.SYSTEM.CONST>
0

>  <SCORE.SYSTEM.DIHEDRAL>
0

>  <SCORE.SYSTEM.SOLV>
0

>  <SCORE.SYSTEM.norm>
0

>  <SCORE.heavy>
37

>  <SCORE.norm>
-0.471172

>  <RMSD>
3.726

$$$$
2oe5_lig
 OpenBabel11021811463D
libRbt.so/2013.1/901 2013/11/27
 37 40  0  0  0  0  0  0  0  0999 V2000
   23.1038   -1.2295   52.9870 C   0  0  1  0  0  0  0  0  0  0  0  0
   24.0569   -0.9730   51.7982 C   0  0  1  0  0  0  0  0  0  0  0  0
   23.2167   -0.8740   50.4710 C   0  0  0  0  0  0  0  0  0  0  0  0
   22.4825   -2.2283   50.3510 C   0  0  1  0  0  0  0  0  0  0  0  0
   21.5090   -2.4780   51.5864 C   0  0  1  0  0  0  0  0  0  0  0  0
   20.7550   -3.8318   51.4816 C   0  0  1  0  0  0  0  0  0  0  0  0
   19.9379   -3.7917   50.1589 C   0  0  1  0  0  0  0  0  0  0  0  0
   20.9307   -3.4985   48.9708 C   0  0  2  0  0  0  0  0  0  0  0  0
   17.8871   -5.1330   49.2327 C   0  0  0  0  0  0  0  0  0  0  0  0
   24.7982    0.2919   52.0078 N   0  0  0  0  0  0  0  0  0  0  0  0
   19.2087   -5.0992   49.9511 N   0  0  0  0  0  0  0  0  0  0  0  0
   22.1832   -0.1435   53.1819 O   0  0  0  0  0  0  0  0  0  0  0  0
   22.3125   -2.4564   52.8103 O   0  0  0  0  0  0  0  0  0  0  0  0
   21.6748   -2.2358   49.1434 O   0  0  0  0  0  0  0  0  0  0  0  0
   21.7297   -4.8796   51.4719 O   0  0  0  0  0  0  0  0  0  0  0  0
   20.2137   -3.3918   47.7569 O   0  0  0  0  0  0  0  0  0  0  0  0
   21.0070   -3.8520   46.6789 C   0  0  2  0  0  0  0  0  0  0  0  0
   20.3199   -3.6572   45.3278 C   0  0  1  0  0  0  0  0  0  0  0  0
   19.0258   -4.5107   45.2283 C   0  0  2  0  0  0  0  0  0  0  0  0
   19.4246   -5.9970   45.4687 C   0  0  1  0  0  0  0  0  0  0  0  0
   20.0741   -6.1040   46.8875 C   0  0  1  0  0  0  0  0  0  0  0  0
   20.5503   -7.5030   47.2095 C   0  0  0  0  0  0  0  0  0  0  0  0
   18.1719   -6.8368   45.3710 N   0  0  0  0  0  0  0  0  0  0  0  0
   21.2834   -5.2721   46.8910 O   0  0  0  0  0  0  0  0  0  0  0  0
   20.0203   -2.2538   45.1924 O   0  0  0  0  0  0  0  0  0  0  0  0
   18.4953   -4.3629   43.8987 O   0  0  0  0  0  0  0  0  0  0  0  0
   21.0098   -7.6083   48.5135 O   0  0  0  0  0  0  0  0  0  0  0  0
   21.2832   -0.3290   54.2748 C   0  0  1  0  0  0  0  0  0  0  0  0
   22.0916   -0.4675   55.6142 C   0  0  1  0  0  0  0  0  0  0  0  0
   21.0807   -0.6569   56.8019 C   0  0  2  0  0  0  0  0  0  0  0  0
   20.1597    0.5697   56.8856 C   0  0  1  0  0  0  0  0  0  0  0  0
   19.3381    0.6991   55.5453 C   0  0  0  0  0  0  0  0  0  0  0  0
   20.3527    0.8742   54.3477 C   0  0  2  0  0  0  0  0  0  0  0  0
   19.2425    0.3906   57.9990 N   0  0  0  0  0  0  0  0  0  0  0  0
   19.6170    0.9778   53.0601 N   0  0  0  0  0  0  0  0  0  0  0  0
   22.9669   -1.6292   55.5391 O   0  0  0  0  0  0  0  0  0  0  0  0
   21.7980   -0.7625   58.0029 O   0  0  0  0  0  0  0  0  0  0  0  0
  1  2  1  0  0  0  0
  1 12  1  6  0  0  0
  1 13  1  0  0  0  0
  2  3  1  0  0  0  0
  2 10  1  1  0  0  0
  4  3  1  1  0  0  0
  4  5  1  0  0  0  0
  4 14  1  0  0  0  0
  5  6  1  0  0  0  0
  5 13  1  1  0  0  0
  6  7  1  0  0  0  0
  6 15  1  6  0  0  0
  7  8  1  0  0  0  0
  7 11  1  6  0  0  0
  8 14  1  0  0  0  0
  8 16  1  6  0  0  0
  9 11  1  0  0  0  0
 17 16  1  1  0  0  0
 17 18  1  0  0  0  0
 17 24  1  0  0  0  0
 18 19  1  0  0  0  0
 18 25  1  1  0  0  0
 19 20  1  0  0  0  0
 19 26  1  6  0  0  0
 20 21  1  0  0  0  0
 20 23  1  1  0  0  0
 21 22  1  6  0  0  0
 21 24  1  0  0  0  0
 22 27  1  0  0  0  0
 28 12  1  6  0  0  0
 28 29  1  0  0  0  0
 28 33  1  0  0  0  0
 29 30  1  0  0  0  0
 29 36  1  6  0  0  0
 30 31  1  0  0  0  0
 30 37  1  1  0  0  0
 31 32  1  0  0  0  0
 31 34  1  1  0  0  0
 32 33  1  0  0  0  0
 33 35  1  6  0  0  0
M  END
>  <CHROM.1>
-179.70862386,148.73813352,-148.11197184,-175.53171228,-174.44443445,60.70556077
20.90453780,-2.74110293,50.73020052,-1.33186584,-0.86467899,-1.88262050

>  <Name>
2oe5_lig

>  <RI>
0

>  <Rbt.Current_Directory>
/home/itssahil/PROJECTS/Mol_Feturizer/New_Systems/rnas/2oe5

>  <Rbt.Executable>
rbdock ($Id: //depot/dev/client3/rdock/2013.1/src/exe/rbdock.cxx#4 $)

>  <Rbt.Library>
libRbt.so (2013.1, Build901 2013/11/27)

>  <Rbt.Parameter_File>
/export/apps/rDock/src/rDock_2013.1_src/data/scripts/dock_solv.prm

>  <Rbt.Receptor>
prm/pocket_docking_3.prm

>  <SCORE>
-17.082

>  <SCORE.INTER>
-11.8858

>  <SCORE.INTER.CONST>
1

>  <SCORE.INTER.POLAR>
-1.22625

>  <SCORE.INTER.ROT>
6

>  <SCORE.INTER.SOLV>
11.7636

>  <SCORE.INTER.VDW>
-15.3576

>  <SCORE.INTER.norm>
-0.321239

>  <SCORE.INTRA>
-5.36574

>  <SCORE.INTRA.DIHEDRAL>
-11.3411

>  <SCORE.INTRA.DIHEDRAL.0>
16.2083

>  <SCORE.INTRA.POLAR>
0

>  <SCORE.INTRA.POLAR.0>
0

>  <SCORE.INTRA.REPUL>
0

>  <SCORE.INTRA.REPUL.0>
0

>  <SCORE.INTRA.SOLV>
-1.53753

>  <SCORE.INTRA.SOLV.lig_0>
-89.8095

>  <SCORE.INTRA.VDW>
1.07358

>  <SCORE.INTRA.VDW.0>
-3.19502

>  <SCORE.INTRA.norm>
-0.14502

>  <SCORE.RESTR>
0.169624

>  <SCORE.RESTR.CAVITY>
0.169624

>  <SCORE.RESTR.norm>
0.00458442

>  <SCORE.SYSTEM>
0

>  <SCORE.SYSTEM.CONST>
0

>  <SCORE.SYSTEM.DIHEDRAL>
0

>  <SCORE.SYSTEM.SOLV>
0

>  <SCORE.SYSTEM.norm>
0

>  <SCORE.heavy>
37

>  <SCORE.norm>
-0.461675

>  <RMSD>
3.777

$$$$
2oe5_lig
 OpenBabel11021811463D
libRbt.so/2013.1/901 2013/11/27
 37 40  0  0  0  0  0  0  0  0999 V2000
   22.5096    0.7935   52.7317 C   0  0  1  0  0  0  0  0  0  0  0  0
   23.5596    0.8545   51.5998 C   0  0  1  0  0  0  0  0  0  0  0  0
   22.8590    0.5469   50.2244 C   0  0  0  0  0  0  0  0  0  0  0  0
   22.2507   -0.8646   50.3831 C   0  0  1  0  0  0  0  0  0  0  0  0
   21.1750   -0.9100   51.5566 C   0  0  1  0  0  0  0  0  0  0  0  0
   20.5455   -2.3194   51.7283 C   0  0  1  0  0  0  0  0  0  0  0  0
   19.8720   -2.6805   50.3738 C   0  0  1  0  0  0  0  0  0  0  0  0
   20.9583   -2.5798   49.2368 C   0  0  2  0  0  0  0  0  0  0  0  0
   18.3559   -4.5551   49.3491 C   0  0  0  0  0  0  0  0  0  0  0  0
   24.1726    2.2018   51.5503 N   0  0  0  0  0  0  0  0  0  0  0  0
   19.2742   -4.0673   50.4366 N   0  0  0  0  0  0  0  0  0  0  0  0
   21.4907    1.7945   52.5744 O   0  0  0  0  0  0  0  0  0  0  0  0
   21.8407   -0.5144   52.7994 O   0  0  0  0  0  0  0  0  0  0  0  0
   21.5781   -1.2431   49.1523 O   0  0  0  0  0  0  0  0  0  0  0  0
   21.5954   -3.2339   52.0594 O   0  0  0  0  0  0  0  0  0  0  0  0
   20.3673   -2.8404   47.9790 O   0  0  0  0  0  0  0  0  0  0  0  0
   21.3434   -3.3106   47.0685 C   0  0  2  0  0  0  0  0  0  0  0  0
   20.7704   -3.5411   45.6707 C   0  0  1  0  0  0  0  0  0  0  0  0
   19.6994   -4.6662   45.6818 C   0  0  2  0  0  0  0  0  0  0  0  0
   20.3730   -5.9492   46.2527 C   0  0  1  0  0  0  0  0  0  0  0  0
   20.8845   -5.6303   47.6960 C   0  0  1  0  0  0  0  0  0  0  0  0
   21.6069   -6.7967   48.3323 C   0  0  0  0  0  0  0  0  0  0  0  0
   19.3393   -7.0516   46.2651 N   0  0  0  0  0  0  0  0  0  0  0  0
   21.8870   -4.5634   47.5909 O   0  0  0  0  0  0  0  0  0  0  0  0
   20.2000   -2.2945   45.2253 O   0  0  0  0  0  0  0  0  0  0  0  0
   19.2863   -4.9022   44.3236 O   0  0  0  0  0  0  0  0  0  0  0  0
   22.0032   -6.5165   49.6312 O   0  0  0  0  0  0  0  0  0  0  0  0
   20.7017    2.0146   53.7439 C   0  0  1  0  0  0  0  0  0  0  0  0
   21.4304    3.0292   54.6960 C   0  0  1  0  0  0  0  0  0  0  0  0
   20.5380    3.2651   55.9674 C   0  0  2  0  0  0  0  0  0  0  0  0
   19.1848    3.8506   55.5366 C   0  0  1  0  0  0  0  0  0  0  0  0
   18.4479    2.8244   54.5920 C   0  0  0  0  0  0  0  0  0  0  0  0
   19.3502    2.5735   53.3202 C   0  0  2  0  0  0  0  0  0  0  0  0
   18.3765    4.0816   56.7225 N   0  0  0  0  0  0  0  0  0  0  0  0
   18.6996    1.5923   52.4125 N   0  0  0  0  0  0  0  0  0  0  0  0
   22.7147    2.4783   55.1066 O   0  0  0  0  0  0  0  0  0  0  0  0
   21.1768    4.1852   56.8122 O   0  0  0  0  0  0  0  0  0  0  0  0
  1  2  1  0  0  0  0
  1 12  1  6  0  0  0
  1 13  1  0  0  0  0
  2  3  1  0  0  0  0
  2 10  1  6  0  0  0
  4  3  1  6  0  0  0
  4  5  1  0  0  0  0
  4 14  1  0  0  0  0
  5  6  1  0  0  0  0
  5 13  1  1  0  0  0
  6  7  1  0  0  0  0
  6 15  1  6  0  0  0
  7  8  1  0  0  0  0
  7 11  1  1  0  0  0
  8 14  1  0  0  0  0
  8 16  1  6  0  0  0
  9 11  1  0  0  0  0
 17 16  1  1  0  0  0
 17 18  1  0  0  0  0
 17 24  1  0  0  0  0
 18 19  1  0  0  0  0
 18 25  1  1  0  0  0
 19 20  1  0  0  0  0
 19 26  1  6  0  0  0
 20 21  1  0  0  0  0
 20 23  1  1  0  0  0
 21 22  1  6  0  0  0
 21 24  1  0  0  0  0
 22 27  1  0  0  0  0
 28 12  1  6  0  0  0
 28 29  1  0  0  0  0
 28 33  1  0  0  0  0
 29 30  1  0  0  0  0
 29 36  1  1  0  0  0
 30 31  1  0  0  0  0
 30 37  1  1  0  0  0
 31 32  1  0  0  0  0
 31 34  1  1  0  0  0
 32 33  1  0  0  0  0
 33 35  1  6  0  0  0
M  END
>  <CHROM.1>
-164.74894605,168.90612249,-155.17148358,-177.10359516,-177.43241908,84.35106762
20.83446916,-1.24618481,50.69087164,-1.54493824,-0.32115012,-2.34899185

>  <Name>
2oe5_lig

>  <RI>
0

>  <Rbt.Current_Directory>
/home/itssahil/PROJECTS/Mol_Feturizer/New_Systems/rnas/2oe5

>  <Rbt.Executable>
rbdock ($Id: //depot/dev/client3/rdock/2013.1/src/exe/rbdock.cxx#4 $)

>  <Rbt.Library>
libRbt.so (2013.1, Build901 2013/11/27)

>  <Rbt.Parameter_File>
/export/apps/rDock/src/rDock_2013.1_src/data/scripts/dock_solv.prm

>  <Rbt.Receptor>
prm/pocket_docking_8.prm

>  <SCORE>
-18.838

>  <SCORE.INTER>
-13.5523

>  <SCORE.INTER.CONST>
1

>  <SCORE.INTER.POLAR>
-0.884353

>  <SCORE.INTER.ROT>
6

>  <SCORE.INTER.SOLV>
16.4747

>  <SCORE.INTER.VDW>
-19.1786

>  <SCORE.INTER.norm>
-0.36628

>  <SCORE.INTRA>
-5.28566

>  <SCORE.INTRA.DIHEDRAL>
-9.70939

>  <SCORE.INTRA.DIHEDRAL.0>
16.2083

>  <SCORE.INTRA.POLAR>
0

>  <SCORE.INTRA.POLAR.0>
0

>  <SCORE.INTRA.REPUL>
0

>  <SCORE.INTRA.REPUL.0>
0

>  <SCORE.INTRA.SOLV>
-0.469082

>  <SCORE.INTRA.SOLV.lig_0>
-89.8095

>  <SCORE.INTRA.VDW>
-0.196423

>  <SCORE.INTRA.VDW.0>
-3.19502

>  <SCORE.INTRA.norm>
-0.142856

>  <SCORE.RESTR>
0

>  <SCORE.RESTR.CAVITY>
0

>  <SCORE.RESTR.norm>
0

>  <SCORE.SYSTEM>
0

>  <SCORE.SYSTEM.CONST>
0

>  <SCORE.SYSTEM.DIHEDRAL>
0

>  <SCORE.SYSTEM.SOLV>
0

>  <SCORE.SYSTEM.norm>
0

>  <SCORE.heavy>
37

>  <SCORE.norm>
-0.509135

>  <RMSD>
3.824

$$$$
2oe5_lig
 OpenBabel11021811463D
libRbt.so/2013.1/901 2013/11/27
 37 40  0  0  0  0  0  0  0  0999 V2000
   20.8467   -0.8145   53.2153 C   0  0  1  0  0  0  0  0  0  0  0  0
   21.8800   -0.2525   52.2135 C   0  0  1  0  0  0  0  0  0  0  0  0
   21.2665   -0.2796   50.7643 C   0  0  0  0  0  0  0  0  0  0  0  0
   20.9326   -1.7632   50.4904 C   0  0  1  0  0  0  0  0  0  0  0  0
   19.8705   -2.3268   51.5347 C   0  0  1  0  0  0  0  0  0  0  0  0
   19.5152   -3.8158   51.2725 C   0  0  1  0  0  0  0  0  0  0  0  0
   18.9380   -3.8944   49.8305 C   0  0  1  0  0  0  0  0  0  0  0  0
   19.9998   -3.2871   48.8370 C   0  0  2  0  0  0  0  0  0  0  0  0
   17.2282   -5.8747   49.6966 C   0  0  0  0  0  0  0  0  0  0  0  0
   22.2293    1.1407   52.5749 N   0  0  0  0  0  0  0  0  0  0  0  0
   18.6110   -5.3259   49.4720 N   0  0  0  0  0  0  0  0  0  0  0  0
   19.6597   -0.0066   53.2732 O   0  0  0  0  0  0  0  0  0  0  0  0
   20.4348   -2.1855   52.8786 O   0  0  0  0  0  0  0  0  0  0  0  0
   20.3581   -1.8930   49.1623 O   0  0  0  0  0  0  0  0  0  0  0  0
   20.7143   -4.5855   51.4070 O   0  0  0  0  0  0  0  0  0  0  0  0
   19.4836   -3.2836   47.5207 O   0  0  0  0  0  0  0  0  0  0  0  0
   20.4861   -3.6752   46.6017 C   0  0  2  0  0  0  0  0  0  0  0  0
   20.0882   -3.3934   45.1533 C   0  0  1  0  0  0  0  0  0  0  0  0
   18.8519   -4.2367   44.7369 C   0  0  2  0  0  0  0  0  0  0  0  0
   19.2102   -5.7360   44.9601 C   0  0  1  0  0  0  0  0  0  0  0  0
   19.5565   -5.9345   46.4724 C   0  0  1  0  0  0  0  0  0  0  0  0
   19.9727   -7.3519   46.7967 C   0  0  0  0  0  0  0  0  0  0  0  0
   18.0139   -6.5658   44.5548 N   0  0  0  0  0  0  0  0  0  0  0  0
   20.7296   -5.1063   46.7763 O   0  0  0  0  0  0  0  0  0  0  0  0
   19.8065   -1.9837   45.0478 O   0  0  0  0  0  0  0  0  0  0  0  0
   18.6034   -4.0035   43.3387 O   0  0  0  0  0  0  0  0  0  0  0  0
   18.9518   -8.2602   46.5613 O   0  0  0  0  0  0  0  0  0  0  0  0
   19.7280    1.0664   54.2127 C   0  0  1  0  0  0  0  0  0  0  0  0
   18.6294    2.1382   53.8795 C   0  0  1  0  0  0  0  0  0  0  0  0
   18.7157    3.3004   54.9332 C   0  0  2  0  0  0  0  0  0  0  0  0
   18.4651    2.7320   56.3381 C   0  0  1  0  0  0  0  0  0  0  0  0
   19.5775    1.6661   56.6770 C   0  0  0  0  0  0  0  0  0  0  0  0
   19.5031    0.5042   55.6099 C   0  0  2  0  0  0  0  0  0  0  0  0
   18.5289    3.8193   57.3007 N   0  0  0  0  0  0  0  0  0  0  0  0
   20.5528   -0.5128   55.8816 N   0  0  0  0  0  0  0  0  0  0  0  0
   18.8627    2.6797   52.5476 O   0  0  0  0  0  0  0  0  0  0  0  0
   17.7237    4.2513   54.6501 O   0  0  0  0  0  0  0  0  0  0  0  0
  1  2  1  0  0  0  0
  1 12  1  6  0  0  0
  1 13  1  0  0  0  0
  2  3  1  0  0  0  0
  2 10  1  1  0  0  0
  4  3  1  1  0  0  0
  4  5  1  0  0  0  0
  4 14  1  0  0  0  0
  5  6  1  0  0  0  0
  5 13  1  1  0  0  0
  6  7  1  0  0  0  0
  6 15  1  6  0  0  0
  7  8  1  0  0  0  0
  7 11  1  6  0  0  0
  8 14  1  0  0  0  0
  8 16  1  6  0  0  0
  9 11  1  0  0  0  0
 17 16  1  1  0  0  0
 17 18  1  0  0  0  0
 17 24  1  0  0  0  0
 18 19  1  0  0  0  0
 18 25  1  1  0  0  0
 19 20  1  0  0  0  0
 19 26  1  6  0  0  0
 20 21  1  0  0  0  0
 20 23  1  1  0  0  0
 21 22  1  6  0  0  0
 21 24  1  0  0  0  0
 22 27  1  0  0  0  0
 28 12  1  6  0  0  0
 28 29  1  0  0  0  0
 28 33  1  0  0  0  0
 29 30  1  0  0  0  0
 29 36  1  6  0  0  0
 30 31  1  0  0  0  0
 30 37  1  6  0  0  0
 31 32  1  0  0  0  0
 31 34  1  1  0  0  0
 32 33  1  0  0  0  0
 33 35  1  1  0  0  0
M  END
>  <CHROM.1>
-87.83881347,93.12192909,-138.64419319,-167.22767252,-62.91655018,161.51307503
19.62601447,-1.99995843,50.41285870,-1.44898666,1.51343897,-2.37249934

>  <Name>
2oe5_lig

>  <RI>
0

>  <Rbt.Current_Directory>
/home/itssahil/PROJECTS/Mol_Feturizer/New_Systems/rnas/2oe5

>  <Rbt.Executable>
rbdock ($Id: //depot/dev/client3/rdock/2013.1/src/exe/rbdock.cxx#4 $)

>  <Rbt.Library>
libRbt.so (2013.1, Build901 2013/11/27)

>  <Rbt.Parameter_File>
/export/apps/rDock/src/rDock_2013.1_src/data/scripts/dock_solv.prm

>  <Rbt.Receptor>
prm/pocket_docking_4.prm

>  <SCORE>
-18.6124

>  <SCORE.INTER>
-17.6473

>  <SCORE.INTER.CONST>
1

>  <SCORE.INTER.POLAR>
-0.998721

>  <SCORE.INTER.ROT>
6

>  <SCORE.INTER.SOLV>
11.8918

>  <SCORE.INTER.VDW>
-19.9997

>  <SCORE.INTER.norm>
-0.476955

>  <SCORE.INTRA>
-0.965062

>  <SCORE.INTRA.DIHEDRAL>
-4.32161

>  <SCORE.INTRA.DIHEDRAL.0>
16.2083

>  <SCORE.INTRA.POLAR>
0

>  <SCORE.INTRA.POLAR.0>
0

>  <SCORE.INTRA.REPUL>
0

>  <SCORE.INTRA.REPUL.0>
0

>  <SCORE.INTRA.SOLV>
2.28519

>  <SCORE.INTRA.SOLV.lig_0>
-89.8095

>  <SCORE.INTRA.VDW>
0.0531441

>  <SCORE.INTRA.VDW.0>
-3.19502

>  <SCORE.INTRA.norm>
-0.0260828

>  <SCORE.RESTR>
0

>  <SCORE.RESTR.CAVITY>
0

>  <SCORE.RESTR.norm>
0

>  <SCORE.SYSTEM>
0

>  <SCORE.SYSTEM.CONST>
0

>  <SCORE.SYSTEM.DIHEDRAL>
0

>  <SCORE.SYSTEM.SOLV>
0

>  <SCORE.SYSTEM.norm>
0

>  <SCORE.heavy>
37

>  <SCORE.norm>
-0.503038

>  <RMSD>
3.829

$$$$
2oe5_lig
 OpenBabel11021811463D
libRbt.so/2013.1/901 2013/11/27
 37 40  0  0  0  0  0  0  0  0999 V2000
   19.6999    3.6056   55.8205 C   0  0  1  0  0  0  0  0  0  0  0  0
   18.8815    3.7228   54.5152 C   0  0  1  0  0  0  0  0  0  0  0  0
   18.5069    2.2814   54.0059 C   0  0  0  0  0  0  0  0  0  0  0  0
   19.8569    1.5622   53.7877 C   0  0  1  0  0  0  0  0  0  0  0  0
   20.6886    1.4549   55.1416 C   0  0  1  0  0  0  0  0  0  0  0  0
   22.0471    0.7280   54.9457 C   0  0  1  0  0  0  0  0  0  0  0  0
   21.7239   -0.6938   54.4048 C   0  0  1  0  0  0  0  0  0  0  0  0
   20.8643   -0.5422   53.0928 C   0  0  2  0  0  0  0  0  0  0  0  0
   23.0196   -2.9606   54.1917 C   0  0  0  0  0  0  0  0  0  0  0  0
   17.6426    4.4957   54.7624 N   0  0  0  0  0  0  0  0  0  0  0  0
   23.0005   -1.4572   54.1360 N   0  0  0  0  0  0  0  0  0  0  0  0
   18.9408    2.9974   56.8782 O   0  0  0  0  0  0  0  0  0  0  0  0
   20.9245    2.8117   55.6393 O   0  0  0  0  0  0  0  0  0  0  0  0
   19.6144    0.2118   53.3100 O   0  0  0  0  0  0  0  0  0  0  0  0
   22.8228    1.4872   54.0129 O   0  0  0  0  0  0  0  0  0  0  0  0
   20.4969   -1.8178   52.6057 O   0  0  0  0  0  0  0  0  0  0  0  0
   21.1461   -2.0762   51.3749 C   0  0  2  0  0  0  0  0  0  0  0  0
   20.2511   -1.7781   50.1726 C   0  0  1  0  0  0  0  0  0  0  0  0
   19.0154   -2.7190   50.1460 C   0  0  2  0  0  0  0  0  0  0  0  0
   19.5422   -4.1846   50.1295 C   0  0  1  0  0  0  0  0  0  0  0  0
   20.4047   -4.4072   51.4151 C   0  0  1  0  0  0  0  0  0  0  0  0
   21.0144   -5.7898   51.4791 C   0  0  0  0  0  0  0  0  0  0  0  0
   18.3467   -5.1087   50.1006 N   0  0  0  0  0  0  0  0  0  0  0  0
   21.5436   -3.4831   51.3566 O   0  0  0  0  0  0  0  0  0  0  0  0
   19.8435   -0.3988   50.2671 O   0  0  0  0  0  0  0  0  0  0  0  0
   18.2812   -2.4569   48.9364 O   0  0  0  0  0  0  0  0  0  0  0  0
   20.0540   -6.7736   51.6594 O   0  0  0  0  0  0  0  0  0  0  0  0
   19.6573    2.8550   58.1049 C   0  0  1  0  0  0  0  0  0  0  0  0
   19.9537    4.2707   58.7172 C   0  0  1  0  0  0  0  0  0  0  0  0
   20.7299    4.0876   60.0709 C   0  0  2  0  0  0  0  0  0  0  0  0
   19.8629    3.2797   61.0483 C   0  0  1  0  0  0  0  0  0  0  0  0
   19.5781    1.8531   60.4383 C   0  0  0  0  0  0  0  0  0  0  0  0
   18.8114    2.0349   59.0695 C   0  0  2  0  0  0  0  0  0  0  0  0
   20.5840    3.1336   62.3020 N   0  0  0  0  0  0  0  0  0  0  0  0
   18.5429    0.7106   58.4497 N   0  0  0  0  0  0  0  0  0  0  0  0
   20.7752    5.0408   57.7933 O   0  0  0  0  0  0  0  0  0  0  0  0
   20.9804    5.3494   60.6307 O   0  0  0  0  0  0  0  0  0  0  0  0
  1  2  1  0  0  0  0
  1 12  1  1  0  0  0
  1 13  1  0  0  0  0
  2  3  1  0  0  0  0
  2 10  1  1  0  0  0
  4  3  1  1  0  0  0
  4  5  1  0  0  0  0
  4 14  1  0  0  0  0
  5  6  1  0  0  0  0
  5 13  1  6  0  0  0
  6  7  1  0  0  0  0
  6 15  1  6  0  0  0
  7  8  1  0  0  0  0
  7 11  1  6  0  0  0
  8 14  1  0  0  0  0
  8 16  1  1  0  0  0
  9 11  1  0  0  0  0
 17 16  1  1  0  0  0
 17 18  1  0  0  0  0
 17 24  1  0  0  0  0
 18 19  1  0  0  0  0
 18 25  1  1  0  0  0
 19 20  1  0  0  0  0
 19 26  1  6  0  0  0
 20 21  1  0  0  0  0
 20 23  1  1  0  0  0
 21 22  1  6  0  0  0
 21 24  1  0  0  0  0
 22 27  1  0  0  0  0
 28 12  1  6  0  0  0
 28 29  1  0  0  0  0
 28 33  1  0  0  0  0
 29 30  1  0  0  0  0
 29 36  1  6  0  0  0
 30 31  1  0  0  0  0
 30 37  1  1  0  0  0
 31 32  1  0  0  0  0
 31 34  1  1  0  0  0
 32 33  1  0  0  0  0
 33 35  1  6  0  0  0
M  END
>  <CHROM.1>
179.47046623,153.28585688,-112.54602589,-97.69052168,-68.06938039,67.14067460
20.22052611,0.28680721,54.68951561,1.60605258,-1.15837251,0.87395686

>  <Name>
2oe5_lig

>  <RI>
0

>  <Rbt.Current_Directory>
/home/itssahil/PROJECTS/Mol_Feturizer/New_Systems/rnas/2oe5

>  <Rbt.Executable>
rbdock ($Id: //depot/dev/client3/rdock/2013.1/src/exe/rbdock.cxx#4 $)

>  <Rbt.Library>
libRbt.so (2013.1, Build901 2013/11/27)

>  <Rbt.Parameter_File>
/export/apps/rDock/src/rDock_2013.1_src/data/scripts/dock_solv.prm

>  <Rbt.Receptor>
prm/pocket_docking_6.prm

>  <SCORE>
-14.62

>  <SCORE.INTER>
-12.9225

>  <SCORE.INTER.CONST>
1

>  <SCORE.INTER.POLAR>
-1.73544

>  <SCORE.INTER.ROT>
6

>  <SCORE.INTER.SOLV>
18.0588

>  <SCORE.INTER.VDW>
-16.4498

>  <SCORE.INTER.norm>
-0.349257

>  <SCORE.INTRA>
-1.69754

>  <SCORE.INTRA.DIHEDRAL>
-3.24672

>  <SCORE.INTRA.DIHEDRAL.0>
16.2083

>  <SCORE.INTRA.POLAR>
0

>  <SCORE.INTRA.POLAR.0>
0

>  <SCORE.INTRA.REPUL>
0

>  <SCORE.INTRA.REPUL.0>
0

>  <SCORE.INTRA.SOLV>
-1.537

>  <SCORE.INTRA.SOLV.lig_0>
-89.8095

>  <SCORE.INTRA.VDW>
0.694326

>  <SCORE.INTRA.VDW.0>
-3.19502

>  <SCORE.INTRA.norm>
-0.0458794

>  <SCORE.RESTR>
0

>  <SCORE.RESTR.CAVITY>
0

>  <SCORE.RESTR.norm>
0

>  <SCORE.SYSTEM>
0

>  <SCORE.SYSTEM.CONST>
0

>  <SCORE.SYSTEM.DIHEDRAL>
0

>  <SCORE.SYSTEM.SOLV>
0

>  <SCORE.SYSTEM.norm>
0

>  <SCORE.heavy>
37

>  <SCORE.norm>
-0.395136

>  <RMSD>
3.869

$$$$
2oe5_lig
 OpenBabel11021811463D
libRbt.so/2013.1/901 2013/11/27
 37 40  0  0  0  0  0  0  0  0999 V2000
   22.2472    0.3564   52.6748 C   0  0  1  0  0  0  0  0  0  0  0  0
   23.3553    0.2318   51.6053 C   0  0  1  0  0  0  0  0  0  0  0  0
   22.6927    0.0294   50.1921 C   0  0  0  0  0  0  0  0  0  0  0  0
   21.8518   -1.2608   50.3167 C   0  0  1  0  0  0  0  0  0  0  0  0
   20.7186   -1.1163   51.4263 C   0  0  1  0  0  0  0  0  0  0  0  0
   19.8564   -2.4009   51.5628 C   0  0  1  0  0  0  0  0  0  0  0  0
   19.2104   -2.6601   50.1720 C   0  0  1  0  0  0  0  0  0  0  0  0
   20.3612   -2.7517   49.0994 C   0  0  2  0  0  0  0  0  0  0  0  0
   19.0265   -5.2450   50.5558 C   0  0  0  0  0  0  0  0  0  0  0  0
   24.1840    1.4591   51.5899 N   0  0  0  0  0  0  0  0  0  0  0  0
   18.3894   -3.9288   50.2015 N   0  0  0  0  0  0  0  0  0  0  0  0
   21.4181    1.5098   52.4581 O   0  0  0  0  0  0  0  0  0  0  0  0
   21.3689   -0.8227   52.7051 O   0  0  0  0  0  0  0  0  0  0  0  0
   21.1968   -1.5363   49.0496 O   0  0  0  0  0  0  0  0  0  0  0  0
   20.7205   -3.4722   51.9547 O   0  0  0  0  0  0  0  0  0  0  0  0
   19.8075   -2.9244   47.8099 O   0  0  0  0  0  0  0  0  0  0  0  0
   20.7903   -3.4160   46.9181 C   0  0  2  0  0  0  0  0  0  0  0  0
   20.3033   -3.4337   45.4697 C   0  0  1  0  0  0  0  0  0  0  0  0
   19.1133   -4.4158   45.2899 C   0  0  2  0  0  0  0  0  0  0  0  0
   19.5906   -5.8219   45.7599 C   0  0  1  0  0  0  0  0  0  0  0  0
   20.0233   -5.7139   47.2591 C   0  0  1  0  0  0  0  0  0  0  0  0
   20.5573   -7.0174   47.8098 C   0  0  0  0  0  0  0  0  0  0  0  0
   18.4400   -6.7863   45.5862 N   0  0  0  0  0  0  0  0  0  0  0  0
   21.1460   -4.7715   47.3350 O   0  0  0  0  0  0  0  0  0  0  0  0
   19.9144   -2.0887   45.1268 O   0  0  0  0  0  0  0  0  0  0  0  0
   18.7810   -4.4624   43.8905 O   0  0  0  0  0  0  0  0  0  0  0  0
   21.0653   -6.8706   49.0916 O   0  0  0  0  0  0  0  0  0  0  0  0
   20.6845    1.9273   53.6097 C   0  0  1  0  0  0  0  0  0  0  0  0
   21.5547    2.9136   54.4681 C   0  0  1  0  0  0  0  0  0  0  0  0
   20.7225    3.3687   55.7205 C   0  0  2  0  0  0  0  0  0  0  0  0
   19.4492    4.0880   55.2503 C   0  0  1  0  0  0  0  0  0  0  0  0
   18.5695    3.0920   54.4004 C   0  0  0  0  0  0  0  0  0  0  0  0
   19.4096    2.6208   53.1488 C   0  0  2  0  0  0  0  0  0  0  0  0
   18.6982    4.5202   56.4174 N   0  0  0  0  0  0  0  0  0  0  0  0
   18.6219    1.6609   52.3314 N   0  0  0  0  0  0  0  0  0  0  0  0
   22.7637    2.2358   54.9157 O   0  0  0  0  0  0  0  0  0  0  0  0
   21.4894    4.2645   56.4805 O   0  0  0  0  0  0  0  0  0  0  0  0
  1  2  1  0  0  0  0
  1 12  1  6  0  0  0
  1 13  1  0  0  0  0
  2  3  1  0  0  0  0
  2 10  1  6  0  0  0
  4  3  1  6  0  0  0
  4  5  1  0  0  0  0
  4 14  1  0  0  0  0
  5  6  1  0  0  0  0
  5 13  1  1  0  0  0
  6  7  1  0  0  0  0
  6 15  1  6  0  0  0
  7  8  1  0  0  0  0
  7 11  1  1  0  0  0
  8 14  1  0  0  0  0
  8 16  1  6  0  0  0
  9 11  1  0  0  0  0
 17 16  1  1  0  0  0
 17 18  1  0  0  0  0
 17 24  1  0  0  0  0
 18 19  1  0  0  0  0
 18 25  1  1  0  0  0
 19 20  1  0  0  0  0
 19 26  1  6  0  0  0
 20 21  1  0  0  0  0
 20 23  1  1  0  0  0
 21 22  1  6  0  0  0
 21 24  1  0  0  0  0
 22 27  1  0  0  0  0
 28 12  1  6  0  0  0
 28 29  1  0  0  0  0
 28 33  1  0  0  0  0
 29 30  1  0  0  0  0
 29 36  1  1  0  0  0
 30 31  1  0  0  0  0
 30 37  1  1  0  0  0
 31 32  1  0  0  0  0
 31 34  1  1  0  0  0
 32 33  1  0  0  0  0
 33 35  1  1  0  0  0
M  END
>  <CHROM.1>
-160.42702883,-58.82844790,-161.87944664,-171.87429557,173.68199000,87.51661430
20.50071440,-1.34844790,50.51080277,-1.25173079,-1.28752539,-2.04378135

>  <Name>
2oe5_lig

>  <RI>
0

>  <Rbt.Current_Directory>
/home/itssahil/PROJECTS/Mol_Feturizer/New_Systems/rnas/2oe5

>  <Rbt.Executable>
rbdock ($Id: //depot/dev/client3/rdock/2013.1/src/exe/rbdock.cxx#4 $)

>  <Rbt.Library>
libRbt.so (2013.1, Build901 2013/11/27)

>  <Rbt.Parameter_File>
/export/apps/rDock/src/rDock_2013.1_src/data/scripts/dock_solv.prm

>  <Rbt.Receptor>
prm/pocket_docking_4.prm

>  <SCORE>
-23.6775

>  <SCORE.INTER>
-19.9452

>  <SCORE.INTER.CONST>
1

>  <SCORE.INTER.POLAR>
-1.94311

>  <SCORE.INTER.ROT>
6

>  <SCORE.INTER.SOLV>
16.18

>  <SCORE.INTER.VDW>
-19.8131

>  <SCORE.INTER.norm>
-0.539059

>  <SCORE.INTRA>
-3.73233

>  <SCORE.INTRA.DIHEDRAL>
-9.31015

>  <SCORE.INTRA.DIHEDRAL.0>
16.2083

>  <SCORE.INTRA.POLAR>
0

>  <SCORE.INTRA.POLAR.0>
0

>  <SCORE.INTRA.REPUL>
0

>  <SCORE.INTRA.REPUL.0>
0

>  <SCORE.INTRA.SOLV>
-0.754041

>  <SCORE.INTRA.SOLV.lig_0>
-89.8095

>  <SCORE.INTRA.VDW>
1.29977

>  <SCORE.INTRA.VDW.0>
-3.19502

>  <SCORE.INTRA.norm>
-0.100874

>  <SCORE.RESTR>
0

>  <SCORE.RESTR.CAVITY>
0

>  <SCORE.RESTR.norm>
0

>  <SCORE.SYSTEM>
0

>  <SCORE.SYSTEM.CONST>
0

>  <SCORE.SYSTEM.DIHEDRAL>
0

>  <SCORE.SYSTEM.SOLV>
0

>  <SCORE.SYSTEM.norm>
0

>  <SCORE.heavy>
37

>  <SCORE.norm>
-0.639933

>  <RMSD>
3.937

$$$$
2oe5_lig
 OpenBabel11021811463D
libRbt.so/2013.1/901 2013/11/27
 37 40  0  0  0  0  0  0  0  0999 V2000
   22.4373    1.1104   53.0294 C   0  0  1  0  0  0  0  0  0  0  0  0
   23.3654    0.9866   51.8003 C   0  0  1  0  0  0  0  0  0  0  0  0
   22.4943    0.7239   50.5160 C   0  0  0  0  0  0  0  0  0  0  0  0
   21.7271   -0.5859   50.8044 C   0  0  1  0  0  0  0  0  0  0  0  0
   20.7798   -0.4417   52.0765 C   0  0  1  0  0  0  0  0  0  0  0  0
   19.9932   -1.7462   52.3797 C   0  0  1  0  0  0  0  0  0  0  0  0
   19.1440   -2.0646   51.1164 C   0  0  1  0  0  0  0  0  0  0  0  0
   20.1127   -2.1542   49.8767 C   0  0  2  0  0  0  0  0  0  0  0  0
   19.0815   -4.6822   51.2006 C   0  0  0  0  0  0  0  0  0  0  0  0
   24.1401    2.2364   51.6233 N   0  0  0  0  0  0  0  0  0  0  0  0
   18.3806   -3.3551   51.3072 N   0  0  0  0  0  0  0  0  0  0  0  0
   21.5465    2.2326   52.9195 O   0  0  0  0  0  0  0  0  0  0  0  0
   21.6144   -0.0922   53.2278 O   0  0  0  0  0  0  0  0  0  0  0  0
   20.8890   -0.9171   49.6648 O   0  0  0  0  0  0  0  0  0  0  0  0
   20.9436   -2.7802   52.6550 O   0  0  0  0  0  0  0  0  0  0  0  0
   19.3676   -2.3805   48.6965 O   0  0  0  0  0  0  0  0  0  0  0  0
   19.5800   -3.6998   48.2302 C   0  0  2  0  0  0  0  0  0  0  0  0
   20.9533   -3.8726   47.5823 C   0  0  1  0  0  0  0  0  0  0  0  0
   21.0840   -3.0005   46.3035 C   0  0  2  0  0  0  0  0  0  0  0  0
   19.9308   -3.4070   45.3387 C   0  0  1  0  0  0  0  0  0  0  0  0
   18.5715   -3.1528   46.0695 C   0  0  1  0  0  0  0  0  0  0  0  0
   17.3751   -3.5635   45.2404 C   0  0  0  0  0  0  0  0  0  0  0  0
   20.0508   -2.5656   44.0891 N   0  0  0  0  0  0  0  0  0  0  0  0
   18.5336   -4.0130   47.2582 O   0  0  0  0  0  0  0  0  0  0  0  0
   21.9440   -3.4999   48.5607 O   0  0  0  0  0  0  0  0  0  0  0  0
   22.3520   -3.2955   45.6902 O   0  0  0  0  0  0  0  0  0  0  0  0
   16.1832   -3.3949   45.9286 O   0  0  0  0  0  0  0  0  0  0  0  0
   20.7108    2.4295   54.0603 C   0  0  1  0  0  0  0  0  0  0  0  0
   21.5208    3.1494   55.1972 C   0  0  1  0  0  0  0  0  0  0  0  0
   20.5777    3.3668   56.4349 C   0  0  2  0  0  0  0  0  0  0  0  0
   19.3888    4.2463   56.0194 C   0  0  1  0  0  0  0  0  0  0  0  0
   18.5682    3.5156   54.8876 C   0  0  0  0  0  0  0  0  0  0  0  0
   19.5183    3.2820   53.6479 C   0  0  2  0  0  0  0  0  0  0  0  0
   18.5347    4.4552   57.1769 N   0  0  0  0  0  0  0  0  0  0  0  0
   18.7870    2.5739   52.5645 N   0  0  0  0  0  0  0  0  0  0  0  0
   22.6498    2.3191   55.5940 O   0  0  0  0  0  0  0  0  0  0  0  0
   21.2922    4.0263   57.4462 O   0  0  0  0  0  0  0  0  0  0  0  0
  1  2  1  0  0  0  0
  1 12  1  6  0  0  0
  1 13  1  0  0  0  0
  2  3  1  0  0  0  0
  2 10  1  6  0  0  0
  4  3  1  6  0  0  0
  4  5  1  0  0  0  0
  4 14  1  0  0  0  0
  5  6  1  0  0  0  0
  5 13  1  1  0  0  0
  6  7  1  0  0  0  0
  6 15  1  6  0  0  0
  7  8  1  0  0  0  0
  7 11  1  1  0  0  0
  8 14  1  0  0  0  0
  8 16  1  6  0  0  0
  9 11  1  0  0  0  0
 17 16  1  6  0  0  0
 17 18  1  0  0  0  0
 17 24  1  0  0  0  0
 18 19  1  0  0  0  0
 18 25  1  1  0  0  0
 19 20  1  0  0  0  0
 19 26  1  6  0  0  0
 20 21  1  0  0  0  0
 20 23  1  6  0  0  0
 21 22  1  6  0  0  0
 21 24  1  0  0  0  0
 22 27  1  0  0  0  0
 28 12  1  6  0  0  0
 28 29  1  0  0  0  0
 28 33  1  0  0  0  0
 29 30  1  0  0  0  0
 29 36  1  1  0  0  0
 30 31  1  0  0  0  0
 30 37  1  1  0  0  0
 31 32  1  0  0  0  0
 31 34  1  1  0  0  0
 32 33  1  0  0  0  0
 33 35  1  6  0  0  0
M  END
>  <CHROM.1>
-177.13532871,-76.13640463,-108.94926971,-74.45825156,176.93774146,79.50951721
20.38543305,-0.52452094,50.96096847,-1.45255267,-0.18295620,-2.20106989

>  <Name>
2oe5_lig

>  <RI>
0

>  <Rbt.Current_Directory>
/home/itssahil/PROJECTS/Mol_Feturizer/New_Systems/rnas/2oe5

>  <Rbt.Executable>
rbdock ($Id: //depot/dev/client3/rdock/2013.1/src/exe/rbdock.cxx#4 $)

>  <Rbt.Library>
libRbt.so (2013.1, Build901 2013/11/27)

>  <Rbt.Parameter_File>
/export/apps/rDock/src/rDock_2013.1_src/data/scripts/dock_solv.prm

>  <Rbt.Receptor>
prm/pocket_docking_4.prm

>  <SCORE>
-25.382

>  <SCORE.INTER>
-23.5607

>  <SCORE.INTER.CONST>
1

>  <SCORE.INTER.POLAR>
-2.36451

>  <SCORE.INTER.ROT>
6

>  <SCORE.INTER.SOLV>
23.9692

>  <SCORE.INTER.VDW>
-23.4151

>  <SCORE.INTER.norm>
-0.636775

>  <SCORE.INTRA>
-1.82129

>  <SCORE.INTRA.DIHEDRAL>
-6.5685

>  <SCORE.INTRA.DIHEDRAL.0>
16.2083

>  <SCORE.INTRA.POLAR>
0

>  <SCORE.INTRA.POLAR.0>
0

>  <SCORE.INTRA.REPUL>
0

>  <SCORE.INTRA.REPUL.0>
0

>  <SCORE.INTRA.SOLV>
-1.56921

>  <SCORE.INTRA.SOLV.lig_0>
-89.8095

>  <SCORE.INTRA.VDW>
2.24757

>  <SCORE.INTRA.VDW.0>
-3.19502

>  <SCORE.INTRA.norm>
-0.0492239

>  <SCORE.RESTR>
0

>  <SCORE.RESTR.CAVITY>
0

>  <SCORE.RESTR.norm>
0

>  <SCORE.SYSTEM>
0

>  <SCORE.SYSTEM.CONST>
0

>  <SCORE.SYSTEM.DIHEDRAL>
0

>  <SCORE.SYSTEM.SOLV>
0

>  <SCORE.SYSTEM.norm>
0

>  <SCORE.heavy>
37

>  <SCORE.norm>
-0.685999

>  <RMSD>
3.962

$$$$
2oe5_lig
 OpenBabel11021811463D
libRbt.so/2013.1/901 2013/11/27
 37 40  0  0  0  0  0  0  0  0999 V2000
   22.4427    1.1013   53.0390 C   0  0  1  0  0  0  0  0  0  0  0  0
   23.3761    0.9779   51.8139 C   0  0  1  0  0  0  0  0  0  0  0  0
   22.5105    0.7178   50.5255 C   0  0  0  0  0  0  0  0  0  0  0  0
   21.7405   -0.5915   50.8088 C   0  0  1  0  0  0  0  0  0  0  0  0
   20.7877   -0.4478   52.0768 C   0  0  1  0  0  0  0  0  0  0  0  0
   19.9983   -1.7517   52.3749 C   0  0  1  0  0  0  0  0  0  0  0  0
   19.1544   -2.0676   51.1073 C   0  0  1  0  0  0  0  0  0  0  0  0
   20.1285   -2.1568   49.8719 C   0  0  2  0  0  0  0  0  0  0  0  0
   19.0920   -4.6847   51.2063 C   0  0  0  0  0  0  0  0  0  0  0  0
   24.1530    2.2271   51.6420 N   0  0  0  0  0  0  0  0  0  0  0  0
   18.3886   -3.3574   51.2931 N   0  0  0  0  0  0  0  0  0  0  0  0
   21.5536    2.2246   52.9265 O   0  0  0  0  0  0  0  0  0  0  0  0
   21.6175   -0.1006   53.2323 O   0  0  0  0  0  0  0  0  0  0  0  0
   20.9072   -0.9204   49.6651 O   0  0  0  0  0  0  0  0  0  0  0  0
   20.9462   -2.7871   52.6532 O   0  0  0  0  0  0  0  0  0  0  0  0
   19.3886   -2.3809   48.6881 O   0  0  0  0  0  0  0  0  0  0  0  0
   19.6062   -3.6979   48.2180 C   0  0  2  0  0  0  0  0  0  0  0  0
   20.9823   -3.8649   47.5747 C   0  0  1  0  0  0  0  0  0  0  0  0
   21.1156   -2.9879   46.2995 C   0  0  2  0  0  0  0  0  0  0  0  0
   19.9672   -3.3939   45.3289 C   0  0  1  0  0  0  0  0  0  0  0  0
   18.6044   -3.1458   46.0553 C   0  0  1  0  0  0  0  0  0  0  0  0
   17.4123   -3.5567   45.2202 C   0  0  0  0  0  0  0  0  0  0  0  0
   20.0898   -2.5478   44.0827 N   0  0  0  0  0  0  0  0  0  0  0  0
   18.5643   -4.0103   47.2408 O   0  0  0  0  0  0  0  0  0  0  0  0
   21.9683   -3.4931   48.5582 O   0  0  0  0  0  0  0  0  0  0  0  0
   22.3868   -3.2774   45.6900 O   0  0  0  0  0  0  0  0  0  0  0  0
   16.2126   -3.3102   45.8703 O   0  0  0  0  0  0  0  0  0  0  0  0
   20.7183    2.4257   54.0668 C   0  0  1  0  0  0  0  0  0  0  0  0
   21.5179    3.1820   55.1873 C   0  0  1  0  0  0  0  0  0  0  0  0
   20.5752    3.4031   56.4246 C   0  0  2  0  0  0  0  0  0  0  0  0
   19.3675    4.2512   55.9979 C   0  0  1  0  0  0  0  0  0  0  0  0
   18.5575    3.4839   54.8829 C   0  0  0  0  0  0  0  0  0  0  0  0
   19.5076    3.2467   53.6438 C   0  0  2  0  0  0  0  0  0  0  0  0
   18.5136    4.4641   57.1549 N   0  0  0  0  0  0  0  0  0  0  0  0
   18.7866    2.5047   52.5763 N   0  0  0  0  0  0  0  0  0  0  0  0
   22.6646    2.3816   55.5946 O   0  0  0  0  0  0  0  0  0  0  0  0
   21.2801    4.0949   57.4210 O   0  0  0  0  0  0  0  0  0  0  0  0
  1  2  1  0  0  0  0
  1 12  1  6  0  0  0
  1 13  1  0  0  0  0
  2  3  1  0  0  0  0
  2 10  1  6  0  0  0
  4  3  1  6  0  0  0
  4  5  1  0  0  0  0
  4 14  1  0  0  0  0
  5  6  1  0  0  0  0
  5 13  1  1  0  0  0
  6  7  1  0  0  0  0
  6 15  1  6  0  0  0
  7  8  1  0  0  0  0
  7 11  1  1  0  0  0
  8 14  1  0  0  0  0
  8 16  1  6  0  0  0
  9 11  1  0  0  0  0
 17 16  1  6  0  0  0
 17 18  1  0  0  0  0
 17 24  1  0  0  0  0
 18 19  1  0  0  0  0
 18 25  1  1  0  0  0
 19 20  1  0  0  0  0
 19 26  1  6  0  0  0
 20 21  1  0  0  0  0
 20 23  1  6  0  0  0
 21 22  1  6  0  0  0
 21 24  1  0  0  0  0
 22 27  1  0  0  0  0
 28 12  1  6  0  0  0
 28 29  1  0  0  0  0
 28 33  1  0  0  0  0
 29 30  1  0  0  0  0
 29 36  1  1  0  0  0
 30 31  1  0  0  0  0
 30 37  1  1  0  0  0
 31 32  1  0  0  0  0
 31 34  1  1  0  0  0
 32 33  1  0  0  0  0
 33 35  1  6  0  0  0
M  END
>  <CHROM.1>
-176.80095158,-75.31755182,-109.20590436,-74.45745067,-179.03207340,81.04885493
20.39805787,-0.51937230,50.95536691,-1.45580131,-0.17577029,-2.20173785

>  <Name>
2oe5_lig

>  <RI>
0

>  <Rbt.Current_Directory>
/home/itssahil/PROJECTS/Mol_Feturizer/New_Systems/rnas/2oe5

>  <Rbt.Executable>
rbdock ($Id: //depot/dev/client3/rdock/2013.1/src/exe/rbdock.cxx#4 $)

>  <Rbt.Library>
libRbt.so (2013.1, Build901 2013/11/27)

>  <Rbt.Parameter_File>
/export/apps/rDock/src/rDock_2013.1_src/data/scripts/dock_solv.prm

>  <Rbt.Receptor>
prm/pocket_docking_6.prm

>  <SCORE>
-25.3316

>  <SCORE.INTER>
-23.5321

>  <SCORE.INTER.CONST>
1

>  <SCORE.INTER.POLAR>
-2.33073

>  <SCORE.INTER.ROT>
6

>  <SCORE.INTER.SOLV>
24.0149

>  <SCORE.INTER.VDW>
-23.5239

>  <SCORE.INTER.norm>
-0.636002

>  <SCORE.INTRA>
-1.79956

>  <SCORE.INTRA.DIHEDRAL>
-6.3322

>  <SCORE.INTRA.DIHEDRAL.0>
16.2083

>  <SCORE.INTRA.POLAR>
0

>  <SCORE.INTRA.POLAR.0>
0

>  <SCORE.INTRA.REPUL>
0

>  <SCORE.INTRA.REPUL.0>
0

>  <SCORE.INTRA.SOLV>
-1.479

>  <SCORE.INTRA.SOLV.lig_0>
-89.8095

>  <SCORE.INTRA.VDW>
2.10604

>  <SCORE.INTRA.VDW.0>
-3.19502

>  <SCORE.INTRA.norm>
-0.0486369

>  <SCORE.RESTR>
0

>  <SCORE.RESTR.CAVITY>
0

>  <SCORE.RESTR.norm>
0

>  <SCORE.SYSTEM>
0

>  <SCORE.SYSTEM.CONST>
0

>  <SCORE.SYSTEM.DIHEDRAL>
0

>  <SCORE.SYSTEM.SOLV>
0

>  <SCORE.SYSTEM.norm>
0

>  <SCORE.heavy>
37

>  <SCORE.norm>
-0.684639

>  <RMSD>
3.964

$$$$
2oe5_lig
 OpenBabel11021811463D
libRbt.so/2013.1/901 2013/11/27
 37 40  0  0  0  0  0  0  0  0999 V2000
   20.9723   -1.8015   52.4947 C   0  0  1  0  0  0  0  0  0  0  0  0
   21.5410   -1.0499   51.2704 C   0  0  1  0  0  0  0  0  0  0  0  0
   20.4685   -1.0470   50.1185 C   0  0  0  0  0  0  0  0  0  0  0  0
   20.1925   -2.5366   49.8145 C   0  0  1  0  0  0  0  0  0  0  0  0
   19.6118   -3.2963   51.0880 C   0  0  1  0  0  0  0  0  0  0  0  0
   19.3202   -4.7947   50.8015 C   0  0  1  0  0  0  0  0  0  0  0  0
   18.2887   -4.8389   49.6385 C   0  0  1  0  0  0  0  0  0  0  0  0
   18.8828   -4.0396   48.4173 C   0  0  2  0  0  0  0  0  0  0  0  0
   16.7017   -6.6198   48.5555 C   0  0  0  0  0  0  0  0  0  0  0  0
   21.8697    0.3457   51.6414 N   0  0  0  0  0  0  0  0  0  0  0  0
   17.9851   -6.2700   49.2586 N   0  0  0  0  0  0  0  0  0  0  0  0
   19.8127   -1.1478   53.0358 O   0  0  0  0  0  0  0  0  0  0  0  0
   20.5918   -3.1845   52.1703 O   0  0  0  0  0  0  0  0  0  0  0  0
   19.2074   -2.6393   48.7516 O   0  0  0  0  0  0  0  0  0  0  0  0
   20.5545   -5.4227   50.4405 O   0  0  0  0  0  0  0  0  0  0  0  0
   17.9445   -4.0042   47.3602 O   0  0  0  0  0  0  0  0  0  0  0  0
   18.2683   -2.9662   46.4542 C   0  0  2  0  0  0  0  0  0  0  0  0
   17.4077   -3.0079   45.1919 C   0  0  1  0  0  0  0  0  0  0  0  0
   17.6670   -4.3059   44.3788 C   0  0  2  0  0  0  0  0  0  0  0  0
   19.1880   -4.3556   44.0473 C   0  0  1  0  0  0  0  0  0  0  0  0
   19.9810   -4.3557   45.3954 C   0  0  1  0  0  0  0  0  0  0  0  0
   21.4798   -4.3501   45.1932 C   0  0  0  0  0  0  0  0  0  0  0  0
   19.4504   -5.6144   43.2531 N   0  0  0  0  0  0  0  0  0  0  0  0
   19.6788   -3.1005   46.0935 O   0  0  0  0  0  0  0  0  0  0  0  0
   16.0290   -2.9281   45.6046 O   0  0  0  0  0  0  0  0  0  0  0  0
   16.9098   -4.2258   43.1576 O   0  0  0  0  0  0  0  0  0  0  0  0
   21.9014   -3.2505   44.4612 O   0  0  0  0  0  0  0  0  0  0  0  0
   20.0981    0.0615   53.7393 C   0  0  1  0  0  0  0  0  0  0  0  0
   18.8570    1.0219   53.6747 C   0  0  1  0  0  0  0  0  0  0  0  0
   19.1899    2.3379   54.4658 C   0  0  2  0  0  0  0  0  0  0  0  0
   19.4891    1.9878   55.9313 C   0  0  1  0  0  0  0  0  0  0  0  0
   20.7444    1.0347   55.9954 C   0  0  0  0  0  0  0  0  0  0  0  0
   20.4180   -0.2827   55.1877 C   0  0  2  0  0  0  0  0  0  0  0  0
   19.7768    3.2147   56.6558 N   0  0  0  0  0  0  0  0  0  0  0  0
   21.5871   -1.2008   55.2052 N   0  0  0  0  0  0  0  0  0  0  0  0
   18.5692    1.3562   52.2866 O   0  0  0  0  0  0  0  0  0  0  0  0
   18.0770    3.1913   54.4263 O   0  0  0  0  0  0  0  0  0  0  0  0
  1  2  1  0  0  0  0
  1 12  1  6  0  0  0
  1 13  1  0  0  0  0
  2  3  1  0  0  0  0
  2 10  1  1  0  0  0
  4  3  1  1  0  0  0
  4  5  1  0  0  0  0
  4 14  1  0  0  0  0
  5  6  1  0  0  0  0
  5 13  1  1  0  0  0
  6  7  1  0  0  0  0
  6 15  1  6  0  0  0
  7  8  1  0  0  0  0
  7 11  1  6  0  0  0
  8 14  1  0  0  0  0
  8 16  1  6  0  0  0
  9 11  1  0  0  0  0
 17 16  1  1  0  0  0
 17 18  1  0  0  0  0
 17 24  1  0  0  0  0
 18 19  1  0  0  0  0
 18 25  1  1  0  0  0
 19 20  1  0  0  0  0
 19 26  1  6  0  0  0
 20 21  1  0  0  0  0
 20 23  1  1  0  0  0
 21 22  1  6  0  0  0
 21 24  1  0  0  0  0
 22 27  1  0  0  0  0
 28 12  1  6  0  0  0
 28 29  1  0  0  0  0
 28 33  1  0  0  0  0
 29 30  1  0  0  0  0
 29 36  1  6  0  0  0
 30 31  1  0  0  0  0
 30 37  1  1  0  0  0
 31 32  1  0  0  0  0
 31 34  1  1  0  0  0
 32 33  1  0  0  0  0
 33 35  1  6  0  0  0
M  END
>  <CHROM.1>
-72.92728483,157.33598173,161.48815048,171.83720659,58.54501927,152.52331218
19.40439129,-2.23349274,49.83105415,-1.24067194,1.20182035,-2.40681445

>  <Name>
2oe5_lig

>  <RI>
0

>  <Rbt.Current_Directory>
/home/itssahil/PROJECTS/Mol_Feturizer/New_Systems/rnas/2oe5

>  <Rbt.Executable>
rbdock ($Id: //depot/dev/client3/rdock/2013.1/src/exe/rbdock.cxx#4 $)

>  <Rbt.Library>
libRbt.so (2013.1, Build901 2013/11/27)

>  <Rbt.Parameter_File>
/export/apps/rDock/src/rDock_2013.1_src/data/scripts/dock_solv.prm

>  <Rbt.Receptor>
prm/pocket_docking_8.prm

>  <SCORE>
-12.1906

>  <SCORE.INTER>
-11.3441

>  <SCORE.INTER.CONST>
1

>  <SCORE.INTER.POLAR>
0

>  <SCORE.INTER.ROT>
6

>  <SCORE.INTER.SOLV>
14.3718

>  <SCORE.INTER.VDW>
-19.9533

>  <SCORE.INTER.norm>
-0.306598

>  <SCORE.INTRA>
-0.846493

>  <SCORE.INTRA.DIHEDRAL>
-9.94475

>  <SCORE.INTRA.DIHEDRAL.0>
16.2083

>  <SCORE.INTRA.POLAR>
0

>  <SCORE.INTRA.POLAR.0>
0

>  <SCORE.INTRA.REPUL>
0

>  <SCORE.INTRA.REPUL.0>
0

>  <SCORE.INTRA.SOLV>
1.57492

>  <SCORE.INTRA.SOLV.lig_0>
-89.8095

>  <SCORE.INTRA.VDW>
3.33842

>  <SCORE.INTRA.VDW.0>
-3.19502

>  <SCORE.INTRA.norm>
-0.0228782

>  <SCORE.RESTR>
0

>  <SCORE.RESTR.CAVITY>
0

>  <SCORE.RESTR.norm>
0

>  <SCORE.SYSTEM>
0

>  <SCORE.SYSTEM.CONST>
0

>  <SCORE.SYSTEM.DIHEDRAL>
0

>  <SCORE.SYSTEM.SOLV>
0

>  <SCORE.SYSTEM.norm>
0

>  <SCORE.heavy>
37

>  <SCORE.norm>
-0.329476

>  <RMSD>
3.973

$$$$
2oe5_lig
 OpenBabel11021811463D
libRbt.so/2013.1/901 2013/11/27
 37 40  0  0  0  0  0  0  0  0999 V2000
   20.7772   -1.2478   53.2167 C   0  0  1  0  0  0  0  0  0  0  0  0
   21.8645   -0.6898   52.2713 C   0  0  1  0  0  0  0  0  0  0  0  0
   21.2861   -0.6000   50.8102 C   0  0  0  0  0  0  0  0  0  0  0  0
   20.8770   -2.0442   50.4439 C   0  0  1  0  0  0  0  0  0  0  0  0
   19.7599   -2.6046   51.4310 C   0  0  1  0  0  0  0  0  0  0  0  0
   19.3288   -4.0537   51.0755 C   0  0  1  0  0  0  0  0  0  0  0  0
   18.7837   -4.0176   49.6194 C   0  0  1  0  0  0  0  0  0  0  0  0
   19.9017   -3.4165   48.6856 C   0  0  2  0  0  0  0  0  0  0  0  0
   17.1080   -6.0309   49.6600 C   0  0  0  0  0  0  0  0  0  0  0  0
   22.2817    0.6585   52.7201 N   0  0  0  0  0  0  0  0  0  0  0  0
   18.3864   -5.4056   49.1718 N   0  0  0  0  0  0  0  0  0  0  0  0
   19.6359   -0.3782   53.2960 O   0  0  0  0  0  0  0  0  0  0  0  0
   20.2981   -2.5720   52.7925 O   0  0  0  0  0  0  0  0  0  0  0  0
   20.3289   -2.0657   49.0986 O   0  0  0  0  0  0  0  0  0  0  0  0
   20.4795   -4.8968   51.1908 O   0  0  0  0  0  0  0  0  0  0  0  0
   19.4188   -3.3092   47.3610 O   0  0  0  0  0  0  0  0  0  0  0  0
   20.4233   -3.6958   46.4420 C   0  0  2  0  0  0  0  0  0  0  0  0
   20.0442   -3.3725   44.9973 C   0  0  1  0  0  0  0  0  0  0  0  0
   18.7977   -4.1842   44.5493 C   0  0  2  0  0  0  0  0  0  0  0  0
   19.1282   -5.6943   44.7395 C   0  0  1  0  0  0  0  0  0  0  0  0
   19.4566   -5.9350   46.2496 C   0  0  1  0  0  0  0  0  0  0  0  0
   19.8456   -7.3667   46.5434 C   0  0  0  0  0  0  0  0  0  0  0  0
   17.9219   -6.4934   44.3033 N   0  0  0  0  0  0  0  0  0  0  0  0
   20.6407   -5.1347   46.5842 O   0  0  0  0  0  0  0  0  0  0  0  0
   19.7875   -1.9561   44.9233 O   0  0  0  0  0  0  0  0  0  0  0  0
   18.5666   -3.9131   43.1550 O   0  0  0  0  0  0  0  0  0  0  0  0
   18.8199   -8.2538   46.2537 O   0  0  0  0  0  0  0  0  0  0  0  0
   19.8232    0.7565   54.1420 C   0  0  1  0  0  0  0  0  0  0  0  0
   18.9803    1.9679   53.6044 C   0  0  1  0  0  0  0  0  0  0  0  0
   19.1920    3.1985   54.5579 C   0  0  2  0  0  0  0  0  0  0  0  0
   18.7165    2.8331   55.9722 C   0  0  1  0  0  0  0  0  0  0  0  0
   19.5736    1.6258   56.5163 C   0  0  0  0  0  0  0  0  0  0  0  0
   19.3747    0.3918   55.5508 C   0  0  2  0  0  0  0  0  0  0  0  0
   18.9001    3.9852   56.8394 N   0  0  0  0  0  0  0  0  0  0  0  0
   20.1855   -0.7635   56.0176 N   0  0  0  0  0  0  0  0  0  0  0  0
   19.4273    2.3175   52.2630 O   0  0  0  0  0  0  0  0  0  0  0  0
   18.4260    4.2776   54.0916 O   0  0  0  0  0  0  0  0  0  0  0  0
  1  2  1  0  0  0  0
  1 12  1  6  0  0  0
  1 13  1  0  0  0  0
  2  3  1  0  0  0  0
  2 10  1  1  0  0  0
  4  3  1  1  0  0  0
  4  5  1  0  0  0  0
  4 14  1  0  0  0  0
  5  6  1  0  0  0  0
  5 13  1  1  0  0  0
  6  7  1  0  0  0  0
  6 15  1  6  0  0  0
  7  8  1  0  0  0  0
  7 11  1  6  0  0  0
  8 14  1  0  0  0  0
  8 16  1  6  0  0  0
  9 11  1  0  0  0  0
 17 16  1  1  0  0  0
 17 18  1  0  0  0  0
 17 24  1  0  0  0  0
 18 19  1  0  0  0  0
 18 25  1  1  0  0  0
 19 20  1  0  0  0  0
 19 26  1  6  0  0  0
 20 21  1  0  0  0  0
 20 23  1  1  0  0  0
 21 22  1  6  0  0  0
 21 24  1  0  0  0  0
 22 27  1  0  0  0  0
 28 12  1  6  0  0  0
 28 29  1  0  0  0  0
 28 33  1  0  0  0  0
 29 30  1  0  0  0  0
 29 36  1  6  0  0  0
 30 31  1  0  0  0  0
 30 37  1  6  0  0  0
 31 32  1  0  0  0  0
 31 34  1  1  0  0  0
 32 33  1  0  0  0  0
 33 35  1  1  0  0  0
M  END
>  <CHROM.1>
-78.41039403,76.17876881,-139.04459981,-170.11171133,-61.81639207,148.92858526
19.62823311,-2.13585419,50.24861411,-0.14851085,1.53542381,2.62022123

>  <Name>
2oe5_lig

>  <RI>
0

>  <Rbt.Current_Directory>
/home/itssahil/PROJECTS/Mol_Feturizer/New_Systems/rnas/2oe5

>  <Rbt.Executable>
rbdock ($Id: //depot/dev/client3/rdock/2013.1/src/exe/rbdock.cxx#4 $)

>  <Rbt.Library>
libRbt.so (2013.1, Build901 2013/11/27)

>  <Rbt.Parameter_File>
/export/apps/rDock/src/rDock_2013.1_src/data/scripts/dock_solv.prm

>  <Rbt.Receptor>
prm/pocket_docking_8.prm

>  <SCORE>
-17.249

>  <SCORE.INTER>
-15.9877

>  <SCORE.INTER.CONST>
1

>  <SCORE.INTER.POLAR>
-1.09979

>  <SCORE.INTER.ROT>
6

>  <SCORE.INTER.SOLV>
12.7192

>  <SCORE.INTER.VDW>
-18.8322

>  <SCORE.INTER.norm>
-0.4321

>  <SCORE.INTRA>
-1.26131

>  <SCORE.INTRA.DIHEDRAL>
-4.58489

>  <SCORE.INTRA.DIHEDRAL.0>
16.2083

>  <SCORE.INTRA.POLAR>
0

>  <SCORE.INTRA.POLAR.0>
0

>  <SCORE.INTRA.REPUL>
0

>  <SCORE.INTRA.REPUL.0>
0

>  <SCORE.INTRA.SOLV>
2.61147

>  <SCORE.INTRA.SOLV.lig_0>
-89.8095

>  <SCORE.INTRA.VDW>
-0.274601

>  <SCORE.INTRA.VDW.0>
-3.19502

>  <SCORE.INTRA.norm>
-0.0340894

>  <SCORE.RESTR>
0

>  <SCORE.RESTR.CAVITY>
0

>  <SCORE.RESTR.norm>
0

>  <SCORE.SYSTEM>
0

>  <SCORE.SYSTEM.CONST>
0

>  <SCORE.SYSTEM.DIHEDRAL>
0

>  <SCORE.SYSTEM.SOLV>
0

>  <SCORE.SYSTEM.norm>
0

>  <SCORE.heavy>
37

>  <SCORE.norm>
-0.466189

>  <RMSD>
3.981

$$$$
2oe5_lig
 OpenBabel11021811463D
libRbt.so/2013.1/901 2013/11/27
 37 40  0  0  0  0  0  0  0  0999 V2000
   19.5082    3.5575   56.0881 C   0  0  1  0  0  0  0  0  0  0  0  0
   18.9544    3.7302   54.6561 C   0  0  1  0  0  0  0  0  0  0  0  0
   18.6652    2.3126   54.0365 C   0  0  0  0  0  0  0  0  0  0  0  0
   20.0229    1.5751   54.0540 C   0  0  1  0  0  0  0  0  0  0  0  0
   20.5806    1.4104   55.5366 C   0  0  1  0  0  0  0  0  0  0  0  0
   21.9423    0.6644   55.5774 C   0  0  1  0  0  0  0  0  0  0  0  0
   21.7098   -0.7337   54.9371 C   0  0  1  0  0  0  0  0  0  0  0  0
   21.1172   -0.5256   53.4919 C   0  0  2  0  0  0  0  0  0  0  0  0
   23.0088   -2.9678   54.5078 C   0  0  0  0  0  0  0  0  0  0  0  0
   17.7010    4.5184   54.6900 N   0  0  0  0  0  0  0  0  0  0  0  0
   23.0044   -1.5124   54.8895 N   0  0  0  0  0  0  0  0  0  0  0  0
   18.5542    2.9314   56.9615 O   0  0  0  0  0  0  0  0  0  0  0  0
   20.7347    2.7465   56.1157 O   0  0  0  0  0  0  0  0  0  0  0  0
   19.8585    0.2448   53.4935 O   0  0  0  0  0  0  0  0  0  0  0  0
   22.8907    1.4372   54.8347 O   0  0  0  0  0  0  0  0  0  0  0  0
   20.8330   -1.7783   52.9010 O   0  0  0  0  0  0  0  0  0  0  0  0
   20.6782   -1.6344   51.5016 C   0  0  2  0  0  0  0  0  0  0  0  0
   19.3063   -2.1029   51.0180 C   0  0  1  0  0  0  0  0  0  0  0  0
   19.1164   -3.6257   51.2587 C   0  0  2  0  0  0  0  0  0  0  0  0
   20.2748   -4.3644   50.5250 C   0  0  1  0  0  0  0  0  0  0  0  0
   21.6300   -3.8551   51.1169 C   0  0  1  0  0  0  0  0  0  0  0  0
   22.8335   -4.4707   50.4386 C   0  0  0  0  0  0  0  0  0  0  0  0
   20.0975   -5.8482   50.7507 N   0  0  0  0  0  0  0  0  0  0  0  0
   21.7253   -2.4158   50.8452 O   0  0  0  0  0  0  0  0  0  0  0  0
   18.3120   -1.3428   51.7331 O   0  0  0  0  0  0  0  0  0  0  0  0
   17.8559   -4.0144   50.6833 O   0  0  0  0  0  0  0  0  0  0  0  0
   24.0251   -4.0275   50.9919 O   0  0  0  0  0  0  0  0  0  0  0  0
   18.9978    2.7975   58.3120 C   0  0  1  0  0  0  0  0  0  0  0  0
   19.1577    4.2172   58.9645 C   0  0  1  0  0  0  0  0  0  0  0  0
   19.6330    4.0434   60.4519 C   0  0  2  0  0  0  0  0  0  0  0  0
   18.5813    3.2389   61.2306 C   0  0  1  0  0  0  0  0  0  0  0  0
   18.4323    1.8084   60.5829 C   0  0  0  0  0  0  0  0  0  0  0  0
   17.9694    1.9807   59.0827 C   0  0  2  0  0  0  0  0  0  0  0  0
   19.0237    3.1015   62.6084 N   0  0  0  0  0  0  0  0  0  0  0  0
   17.8382    0.6524   58.4282 N   0  0  0  0  0  0  0  0  0  0  0  0
   20.1538    4.9840   58.2288 O   0  0  0  0  0  0  0  0  0  0  0  0
   19.7593    5.3089   61.0443 O   0  0  0  0  0  0  0  0  0  0  0  0
  1  2  1  0  0  0  0
  1 12  1  1  0  0  0
  1 13  1  0  0  0  0
  2  3  1  0  0  0  0
  2 10  1  1  0  0  0
  4  3  1  1  0  0  0
  4  5  1  0  0  0  0
  4 14  1  0  0  0  0
  5  6  1  0  0  0  0
  5 13  1  6  0  0  0
  6  7  1  0  0  0  0
  6 15  1  6  0  0  0
  7  8  1  0  0  0  0
  7 11  1  6  0  0  0
  8 14  1  0  0  0  0
  8 16  1  1  0  0  0
  9 11  1  0  0  0  0
 17 16  1  1  0  0  0
 17 18  1  0  0  0  0
 17 24  1  0  0  0  0
 18 19  1  0  0  0  0
 18 25  1  1  0  0  0
 19 20  1  0  0  0  0
 19 26  1  6  0  0  0
 20 21  1  0  0  0  0
 20 23  1  1  0  0  0
 21 22  1  6  0  0  0
 21 24  1  0  0  0  0
 22 27  1  0  0  0  0
 28 12  1  6  0  0  0
 28 29  1  0  0  0  0
 28 33  1  0  0  0  0
 29 30  1  0  0  0  0
 29 36  1  6  0  0  0
 30 31  1  0  0  0  0
 30 37  1  1  0  0  0
 31 32  1  0  0  0  0
 31 34  1  1  0  0  0
 32 33  1  0  0  0  0
 33 35  1  6  0  0  0
M  END
>  <CHROM.1>
-177.60227387,170.71933043,-162.98956789,-121.46198506,-178.87428429,66.07117329
20.14515430,0.31170985,55.00842047,1.77573877,-0.56094777,0.96353734

>  <Name>
2oe5_lig

>  <RI>
0

>  <Rbt.Current_Directory>
/home/itssahil/PROJECTS/Mol_Feturizer/New_Systems/rnas/2oe5

>  <Rbt.Executable>
rbdock ($Id: //depot/dev/client3/rdock/2013.1/src/exe/rbdock.cxx#4 $)

>  <Rbt.Library>
libRbt.so (2013.1, Build901 2013/11/27)

>  <Rbt.Parameter_File>
/export/apps/rDock/src/rDock_2013.1_src/data/scripts/dock_solv.prm

>  <Rbt.Receptor>
prm/pocket_docking_6.prm

>  <SCORE>
-16.447

>  <SCORE.INTER>
-12.469

>  <SCORE.INTER.CONST>
1

>  <SCORE.INTER.POLAR>
-1.84409

>  <SCORE.INTER.ROT>
6

>  <SCORE.INTER.SOLV>
17.8637

>  <SCORE.INTER.VDW>
-15.7203

>  <SCORE.INTER.norm>
-0.337001

>  <SCORE.INTRA>
-3.97797

>  <SCORE.INTRA.DIHEDRAL>
-7.32456

>  <SCORE.INTRA.DIHEDRAL.0>
16.2083

>  <SCORE.INTRA.POLAR>
0

>  <SCORE.INTRA.POLAR.0>
0

>  <SCORE.INTRA.REPUL>
0

>  <SCORE.INTRA.REPUL.0>
0

>  <SCORE.INTRA.SOLV>
-2.82895

>  <SCORE.INTRA.SOLV.lig_0>
-89.8095

>  <SCORE.INTRA.VDW>
1.09878

>  <SCORE.INTRA.VDW.0>
-3.19502

>  <SCORE.INTRA.norm>
-0.107513

>  <SCORE.RESTR>
0

>  <SCORE.RESTR.CAVITY>
0

>  <SCORE.RESTR.norm>
0

>  <SCORE.SYSTEM>
0

>  <SCORE.SYSTEM.CONST>
0

>  <SCORE.SYSTEM.DIHEDRAL>
0

>  <SCORE.SYSTEM.SOLV>
0

>  <SCORE.SYSTEM.norm>
0

>  <SCORE.heavy>
37

>  <SCORE.norm>
-0.444514

>  <RMSD>
4.033

$$$$
2oe5_lig
 OpenBabel11021811463D
libRbt.so/2013.1/901 2013/11/27
 37 40  0  0  0  0  0  0  0  0999 V2000
   20.9032   -0.6346   53.1672 C   0  0  1  0  0  0  0  0  0  0  0  0
   21.6185    0.1791   52.0657 C   0  0  1  0  0  0  0  0  0  0  0  0
   20.7289    0.1897   50.7673 C   0  0  0  0  0  0  0  0  0  0  0  0
   20.5563   -1.2958   50.3789 C   0  0  1  0  0  0  0  0  0  0  0  0
   19.8222   -2.1198   51.5271 C   0  0  1  0  0  0  0  0  0  0  0  0
   19.6321   -3.6153   51.1534 C   0  0  1  0  0  0  0  0  0  0  0  0
   18.7863   -3.6500   49.8487 C   0  0  1  0  0  0  0  0  0  0  0  0
   19.5246   -2.7879   48.7555 C   0  0  2  0  0  0  0  0  0  0  0  0
   17.5275   -5.9430   49.9913 C   0  0  0  0  0  0  0  0  0  0  0  0
   21.8366    1.5701   52.5251 N   0  0  0  0  0  0  0  0  0  0  0  0
   18.5957   -5.0753   49.3831 N   0  0  0  0  0  0  0  0  0  0  0  0
   19.6527   -0.0386   53.5496 O   0  0  0  0  0  0  0  0  0  0  0  0
   20.6264   -2.0163   52.7465 O   0  0  0  0  0  0  0  0  0  0  0  0
   19.7439   -1.3911   49.1783 O   0  0  0  0  0  0  0  0  0  0  0  0
   20.9286   -4.1899   50.9611 O   0  0  0  0  0  0  0  0  0  0  0  0
   18.7523   -2.7440   47.5719 O   0  0  0  0  0  0  0  0  0  0  0  0
   19.1643   -3.7641   46.6817 C   0  0  2  0  0  0  0  0  0  0  0  0
   19.0999   -3.3206   45.2206 C   0  0  1  0  0  0  0  0  0  0  0  0
   17.6382   -3.0189   44.7898 C   0  0  2  0  0  0  0  0  0  0  0  0
   16.7992   -4.3062   45.0441 C   0  0  1  0  0  0  0  0  0  0  0  0
   16.8880   -4.6532   46.5666 C   0  0  1  0  0  0  0  0  0  0  0  0
   16.1478   -5.9234   46.9219 C   0  0  0  0  0  0  0  0  0  0  0  0
   15.3748   -4.0239   44.6251 N   0  0  0  0  0  0  0  0  0  0  0  0
   18.2956   -4.9227   46.8837 O   0  0  0  0  0  0  0  0  0  0  0  0
   19.9264   -2.1473   45.0871 O   0  0  0  0  0  0  0  0  0  0  0  0
   17.6415   -2.7156   43.3830 O   0  0  0  0  0  0  0  0  0  0  0  0
   16.6629   -7.0276   46.2601 O   0  0  0  0  0  0  0  0  0  0  0  0
   19.7841    1.1042   54.3953 C   0  0  1  0  0  0  0  0  0  0  0  0
   18.6703    2.1558   54.0482 C   0  0  1  0  0  0  0  0  0  0  0  0
   18.8271    3.3964   54.9994 C   0  0  2  0  0  0  0  0  0  0  0  0
   18.6640    2.9421   56.4578 C   0  0  1  0  0  0  0  0  0  0  0  0
   19.7920    1.8969   56.8091 C   0  0  0  0  0  0  0  0  0  0  0  0
   19.6462    0.6553   55.8438 C   0  0  2  0  0  0  0  0  0  0  0  0
   18.7924    4.1011   57.3256 N   0  0  0  0  0  0  0  0  0  0  0  0
   20.7074   -0.3460   56.1285 N   0  0  0  0  0  0  0  0  0  0  0  0
   18.8207    2.5890   52.6657 O   0  0  0  0  0  0  0  0  0  0  0  0
   17.8225    4.3304   54.7051 O   0  0  0  0  0  0  0  0  0  0  0  0
  1  2  1  0  0  0  0
  1 12  1  6  0  0  0
  1 13  1  0  0  0  0
  2  3  1  0  0  0  0
  2 10  1  1  0  0  0
  4  3  1  1  0  0  0
  4  5  1  0  0  0  0
  4 14  1  0  0  0  0
  5  6  1  0  0  0  0
  5 13  1  1  0  0  0
  6  7  1  0  0  0  0
  6 15  1  6  0  0  0
  7  8  1  0  0  0  0
  7 11  1  6  0  0  0
  8 14  1  0  0  0  0
  8 16  1  6  0  0  0
  9 11  1  0  0  0  0
 17 16  1  1  0  0  0
 17 18  1  0  0  0  0
 17 24  1  0  0  0  0
 18 19  1  0  0  0  0
 18 25  1  1  0  0  0
 19 20  1  0  0  0  0
 19 26  1  6  0  0  0
 20 21  1  0  0  0  0
 20 23  1  1  0  0  0
 21 22  1  6  0  0  0
 21 24  1  0  0  0  0
 22 27  1  0  0  0  0
 28 12  1  6  0  0  0
 28 29  1  0  0  0  0
 28 33  1  0  0  0  0
 29 30  1  0  0  0  0
 29 36  1  6  0  0  0
 30 31  1  0  0  0  0
 30 37  1  6  0  0  0
 31 32  1  0  0  0  0
 31 34  1  1  0  0  0
 32 33  1  0  0  0  0
 33 35  1  1  0  0  0
M  END
>  <CHROM.1>
-76.67251137,81.64399803,-93.93091826,-143.86990658,61.18911879,144.30555682
19.02833749,-1.55657458,50.44465631,-0.89570693,1.30305520,-2.84375630

>  <Name>
2oe5_lig

>  <RI>
0

>  <Rbt.Current_Directory>
/home/itssahil/PROJECTS/Mol_Feturizer/New_Systems/rnas/2oe5

>  <Rbt.Executable>
rbdock ($Id: //depot/dev/client3/rdock/2013.1/src/exe/rbdock.cxx#4 $)

>  <Rbt.Library>
libRbt.so (2013.1, Build901 2013/11/27)

>  <Rbt.Parameter_File>
/export/apps/rDock/src/rDock_2013.1_src/data/scripts/dock_solv.prm

>  <Rbt.Receptor>
prm/pocket_docking_7.prm

>  <SCORE>
-20.7103

>  <SCORE.INTER>
-21.6542

>  <SCORE.INTER.CONST>
1

>  <SCORE.INTER.POLAR>
-1.7888

>  <SCORE.INTER.ROT>
6

>  <SCORE.INTER.SOLV>
13.5577

>  <SCORE.INTER.VDW>
-20.5927

>  <SCORE.INTER.norm>
-0.585248

>  <SCORE.INTRA>
0.943841

>  <SCORE.INTRA.DIHEDRAL>
-0.802784

>  <SCORE.INTRA.DIHEDRAL.0>
16.2083

>  <SCORE.INTRA.POLAR>
0

>  <SCORE.INTRA.POLAR.0>
0

>  <SCORE.INTRA.REPUL>
0

>  <SCORE.INTRA.REPUL.0>
0

>  <SCORE.INTRA.SOLV>
2.77214

>  <SCORE.INTRA.SOLV.lig_0>
-89.8095

>  <SCORE.INTRA.VDW>
-0.0408346

>  <SCORE.INTRA.VDW.0>
-3.19502

>  <SCORE.INTRA.norm>
0.0255092

>  <SCORE.RESTR>
0

>  <SCORE.RESTR.CAVITY>
0

>  <SCORE.RESTR.norm>
0

>  <SCORE.SYSTEM>
0

>  <SCORE.SYSTEM.CONST>
0

>  <SCORE.SYSTEM.DIHEDRAL>
0

>  <SCORE.SYSTEM.SOLV>
0

>  <SCORE.SYSTEM.norm>
0

>  <SCORE.heavy>
37

>  <SCORE.norm>
-0.559738

>  <RMSD>
4.040

$$$$
2oe5_lig
 OpenBabel11021811463D
libRbt.so/2013.1/901 2013/11/27
 37 40  0  0  0  0  0  0  0  0999 V2000
   19.9602    3.6559   54.9727 C   0  0  1  0  0  0  0  0  0  0  0  0
   19.5766    3.6695   53.4760 C   0  0  1  0  0  0  0  0  0  0  0  0
   19.2492    2.2022   53.0104 C   0  0  0  0  0  0  0  0  0  0  0  0
   20.5380    1.3925   53.2770 C   0  0  1  0  0  0  0  0  0  0  0  0
   20.9207    1.3934   54.8229 C   0  0  1  0  0  0  0  0  0  0  0  0
   22.2103    0.5783   55.1139 C   0  0  1  0  0  0  0  0  0  0  0  0
   21.9429   -0.8760   54.6321 C   0  0  1  0  0  0  0  0  0  0  0  0
   21.5249   -0.8269   53.1135 C   0  0  2  0  0  0  0  0  0  0  0  0
   23.8930   -1.7392   56.1534 C   0  0  0  0  0  0  0  0  0  0  0  0
   18.3895    4.5298   53.2657 N   0  0  0  0  0  0  0  0  0  0  0  0
   23.1729   -1.7313   54.8324 N   0  0  0  0  0  0  0  0  0  0  0  0
   18.8742    3.2110   55.8019 O   0  0  0  0  0  0  0  0  0  0  0  0
   21.1123    2.7830   55.2433 O   0  0  0  0  0  0  0  0  0  0  0  0
   20.3347    0.0119   52.8730 O   0  0  0  0  0  0  0  0  0  0  0  0
   23.2878    1.1862   54.3945 O   0  0  0  0  0  0  0  0  0  0  0  0
   21.2118   -2.1276   52.6560 O   0  0  0  0  0  0  0  0  0  0  0  0
   20.8374   -2.0886   51.2917 C   0  0  2  0  0  0  0  0  0  0  0  0
   20.0260   -3.3155   50.8770 C   0  0  1  0  0  0  0  0  0  0  0  0
   20.8719   -4.6131   50.9936 C   0  0  2  0  0  0  0  0  0  0  0  0
   22.1394   -4.4279   50.1077 C   0  0  1  0  0  0  0  0  0  0  0  0
   22.9249   -3.1823   50.6349 C   0  0  1  0  0  0  0  0  0  0  0  0
   24.1557   -2.8745   49.8116 C   0  0  0  0  0  0  0  0  0  0  0  0
   22.9685   -5.6872   50.2121 N   0  0  0  0  0  0  0  0  0  0  0  0
   22.0558   -2.0087   50.4874 O   0  0  0  0  0  0  0  0  0  0  0  0
   18.8684   -3.3792   51.7335 O   0  0  0  0  0  0  0  0  0  0  0  0
   20.0846   -5.7058   50.4863 O   0  0  0  0  0  0  0  0  0  0  0  0
   24.9429   -1.8961   50.3995 O   0  0  0  0  0  0  0  0  0  0  0  0
   19.0859    3.4112   57.1997 C   0  0  1  0  0  0  0  0  0  0  0  0
   18.8930    4.9285   57.5566 C   0  0  1  0  0  0  0  0  0  0  0  0
   19.1175    5.1212   59.0997 C   0  0  2  0  0  0  0  0  0  0  0  0
   18.0894    4.2803   59.8714 C   0  0  1  0  0  0  0  0  0  0  0  0
   18.2937    2.7555   59.5229 C   0  0  0  0  0  0  0  0  0  0  0  0
   18.0838    2.5616   57.9696 C   0  0  2  0  0  0  0  0  0  0  0  0
   18.2955    4.4818   61.2962 N   0  0  0  0  0  0  0  0  0  0  0  0
   18.2899    1.1376   57.5957 N   0  0  0  0  0  0  0  0  0  0  0  0
   19.8657    5.7300   56.8264 O   0  0  0  0  0  0  0  0  0  0  0  0
   18.9280    6.4724   59.4260 O   0  0  0  0  0  0  0  0  0  0  0  0
  1  2  1  0  0  0  0
  1 12  1  1  0  0  0
  1 13  1  0  0  0  0
  2  3  1  0  0  0  0
  2 10  1  1  0  0  0
  4  3  1  1  0  0  0
  4  5  1  0  0  0  0
  4 14  1  0  0  0  0
  5  6  1  0  0  0  0
  5 13  1  6  0  0  0
  6  7  1  0  0  0  0
  6 15  1  6  0  0  0
  7  8  1  0  0  0  0
  7 11  1  6  0  0  0
  8 14  1  0  0  0  0
  8 16  1  1  0  0  0
  9 11  1  0  0  0  0
 17 16  1  1  0  0  0
 17 18  1  0  0  0  0
 17 24  1  0  0  0  0
 18 19  1  0  0  0  0
 18 25  1  1  0  0  0
 19 20  1  0  0  0  0
 19 26  1  6  0  0  0
 20 21  1  0  0  0  0
 20 23  1  1  0  0  0
 21 22  1  6  0  0  0
 21 24  1  0  0  0  0
 22 27  1  0  0  0  0
 28 12  1  6  0  0  0
 28 29  1  0  0  0  0
 28 33  1  0  0  0  0
 29 30  1  0  0  0  0
 29 36  1  6  0  0  0
 30 31  1  0  0  0  0
 30 37  1  6  0  0  0
 31 32  1  0  0  0  0
 31 34  1  1  0  0  0
 32 33  1  0  0  0  0
 33 35  1  1  0  0  0
M  END
>  <CHROM.1>
-169.04443712,49.27322494,-179.92726546,-159.41663341,-171.24640168,75.53277632
20.64605551,0.49875416,54.32528076,1.93655127,-0.64810921,0.96840195

>  <Name>
2oe5_lig

>  <RI>
0

>  <Rbt.Current_Directory>
/home/itssahil/PROJECTS/Mol_Feturizer/New_Systems/rnas/2oe5

>  <Rbt.Executable>
rbdock ($Id: //depot/dev/client3/rdock/2013.1/src/exe/rbdock.cxx#4 $)

>  <Rbt.Library>
libRbt.so (2013.1, Build901 2013/11/27)

>  <Rbt.Parameter_File>
/export/apps/rDock/src/rDock_2013.1_src/data/scripts/dock_solv.prm

>  <Rbt.Receptor>
prm/pocket_docking_7.prm

>  <SCORE>
-19.9015

>  <SCORE.INTER>
-14.2134

>  <SCORE.INTER.CONST>
1

>  <SCORE.INTER.POLAR>
-1.99638

>  <SCORE.INTER.ROT>
6

>  <SCORE.INTER.SOLV>
17.4008

>  <SCORE.INTER.VDW>
-16.2212

>  <SCORE.INTER.norm>
-0.384145

>  <SCORE.INTRA>
-5.68811

>  <SCORE.INTRA.DIHEDRAL>
-12.1676

>  <SCORE.INTRA.DIHEDRAL.0>
16.2083

>  <SCORE.INTRA.POLAR>
0

>  <SCORE.INTRA.POLAR.0>
0

>  <SCORE.INTRA.REPUL>
0

>  <SCORE.INTRA.REPUL.0>
0

>  <SCORE.INTRA.SOLV>
-2.62448

>  <SCORE.INTRA.SOLV.lig_0>
-89.8095

>  <SCORE.INTRA.VDW>
1.70795

>  <SCORE.INTRA.VDW.0>
-3.19502

>  <SCORE.INTRA.norm>
-0.153733

>  <SCORE.RESTR>
0

>  <SCORE.RESTR.CAVITY>
0

>  <SCORE.RESTR.norm>
0

>  <SCORE.SYSTEM>
0

>  <SCORE.SYSTEM.CONST>
0

>  <SCORE.SYSTEM.DIHEDRAL>
0

>  <SCORE.SYSTEM.SOLV>
0

>  <SCORE.SYSTEM.norm>
0

>  <SCORE.heavy>
37

>  <SCORE.norm>
-0.537877

>  <RMSD>
4.060

$$$$
2oe5_lig
 OpenBabel11021811463D
libRbt.so/2013.1/901 2013/11/27
 37 40  0  0  0  0  0  0  0  0999 V2000
   22.1471    0.0811   52.4439 C   0  0  1  0  0  0  0  0  0  0  0  0
   22.0972    0.7693   51.0613 C   0  0  1  0  0  0  0  0  0  0  0  0
   20.7776    0.3435   50.3166 C   0  0  0  0  0  0  0  0  0  0  0  0
   20.8523   -1.1956   50.2021 C   0  0  1  0  0  0  0  0  0  0  0  0
   20.9081   -1.8875   51.6354 C   0  0  1  0  0  0  0  0  0  0  0  0
   20.9763   -3.4363   51.5429 C   0  0  1  0  0  0  0  0  0  0  0  0
   19.7040   -3.8987   50.7772 C   0  0  1  0  0  0  0  0  0  0  0  0
   19.6649   -3.1582   49.3868 C   0  0  2  0  0  0  0  0  0  0  0  0
   19.5606   -6.3143   51.7808 C   0  0  0  0  0  0  0  0  0  0  0  0
   22.1164    2.2408   51.2276 N   0  0  0  0  0  0  0  0  0  0  0  0
   19.7150   -5.3993   50.5964 N   0  0  0  0  0  0  0  0  0  0  0  0
   21.0634    0.4970   53.2908 O   0  0  0  0  0  0  0  0  0  0  0  0
   22.0906   -1.3846   52.3375 O   0  0  0  0  0  0  0  0  0  0  0  0
   19.6683   -1.6884   49.5194 O   0  0  0  0  0  0  0  0  0  0  0  0
   22.1740   -3.7837   50.8408 O   0  0  0  0  0  0  0  0  0  0  0  0
   18.4867   -3.5061   48.6868 O   0  0  0  0  0  0  0  0  0  0  0  0
   18.7815   -4.4473   47.6717 C   0  0  2  0  0  0  0  0  0  0  0  0
   19.5344   -3.8199   46.4992 C   0  0  1  0  0  0  0  0  0  0  0  0
   18.6628   -2.7554   45.7778 C   0  0  2  0  0  0  0  0  0  0  0  0
   17.3509   -3.4573   45.3174 C   0  0  1  0  0  0  0  0  0  0  0  0
   16.6309   -4.0246   46.5847 C   0  0  1  0  0  0  0  0  0  0  0  0
   15.3625   -4.7774   46.2499 C   0  0  0  0  0  0  0  0  0  0  0  0
   16.4964   -2.4301   44.6112 N   0  0  0  0  0  0  0  0  0  0  0  0
   17.5206   -5.0172   47.1993 O   0  0  0  0  0  0  0  0  0  0  0  0
   20.7381   -3.2263   47.0250 O   0  0  0  0  0  0  0  0  0  0  0  0
   19.3899   -2.2895   44.6265 O   0  0  0  0  0  0  0  0  0  0  0  0
   14.7415   -5.2792   47.3835 O   0  0  0  0  0  0  0  0  0  0  0  0
   21.1083    1.8745   53.6640 C   0  0  1  0  0  0  0  0  0  0  0  0
   19.6724    2.3644   54.0701 C   0  0  1  0  0  0  0  0  0  0  0  0
   19.7499    3.8768   54.4888 C   0  0  2  0  0  0  0  0  0  0  0  0
   20.6980    4.0238   55.6885 C   0  0  1  0  0  0  0  0  0  0  0  0
   22.1429    3.5447   55.2748 C   0  0  0  0  0  0  0  0  0  0  0  0
   22.0650    2.0288   54.8386 C   0  0  2  0  0  0  0  0  0  0  0  0
   20.7463    5.4235   56.0775 N   0  0  0  0  0  0  0  0  0  0  0  0
   23.4062    1.5439   54.4190 N   0  0  0  0  0  0  0  0  0  0  0  0
   18.7696    2.2262   52.9355 O   0  0  0  0  0  0  0  0  0  0  0  0
   18.4724    4.3136   54.8701 O   0  0  0  0  0  0  0  0  0  0  0  0
  1  2  1  0  0  0  0
  1 12  1  1  0  0  0
  1 13  1  0  0  0  0
  2  3  1  0  0  0  0
  2 10  1  1  0  0  0
  4  3  1  1  0  0  0
  4  5  1  0  0  0  0
  4 14  1  0  0  0  0
  5  6  1  0  0  0  0
  5 13  1  6  0  0  0
  6  7  1  0  0  0  0
  6 15  1  6  0  0  0
  7  8  1  0  0  0  0
  7 11  1  6  0  0  0
  8 14  1  0  0  0  0
  8 16  1  1  0  0  0
  9 11  1  0  0  0  0
 17 16  1  1  0  0  0
 17 18  1  0  0  0  0
 17 24  1  0  0  0  0
 18 19  1  0  0  0  0
 18 25  1  1  0  0  0
 19 20  1  0  0  0  0
 19 26  1  6  0  0  0
 20 21  1  0  0  0  0
 20 23  1  1  0  0  0
 21 22  1  6  0  0  0
 21 24  1  0  0  0  0
 22 27  1  0  0  0  0
 28 12  1  1  0  0  0
 28 29  1  0  0  0  0
 28 33  1  0  0  0  0
 29 30  1  0  0  0  0
 29 36  1  6  0  0  0
 30 31  1  0  0  0  0
 30 37  1  1  0  0  0
 31 32  1  0  0  0  0
 31 34  1  6  0  0  0
 32 33  1  0  0  0  0
 33 35  1  6  0  0  0
M  END
>  <CHROM.1>
-65.71630997,68.18159696,-102.91576163,-72.37462654,179.67260160,157.56161480
19.81268168,-1.17534434,50.53542691,-1.13284032,0.79549395,-2.64334151

>  <Name>
2oe5_lig

>  <RI>
0

>  <Rbt.Current_Directory>
/home/itssahil/PROJECTS/Mol_Feturizer/New_Systems/rnas/2oe5

>  <Rbt.Executable>
rbdock ($Id: //depot/dev/client3/rdock/2013.1/src/exe/rbdock.cxx#4 $)

>  <Rbt.Library>
libRbt.so (2013.1, Build901 2013/11/27)

>  <Rbt.Parameter_File>
/export/apps/rDock/src/rDock_2013.1_src/data/scripts/dock_solv.prm

>  <Rbt.Receptor>
prm/pocket_docking_7.prm

>  <SCORE>
-18.2438

>  <SCORE.INTER>
-18.4987

>  <SCORE.INTER.CONST>
1

>  <SCORE.INTER.POLAR>
-2.09811

>  <SCORE.INTER.ROT>
6

>  <SCORE.INTER.SOLV>
17.2881

>  <SCORE.INTER.VDW>
-18.7015

>  <SCORE.INTER.norm>
-0.499964

>  <SCORE.INTRA>
0.254199

>  <SCORE.INTRA.DIHEDRAL>
-7.15079

>  <SCORE.INTRA.DIHEDRAL.0>
16.2083

>  <SCORE.INTRA.POLAR>
0

>  <SCORE.INTRA.POLAR.0>
0

>  <SCORE.INTRA.REPUL>
0

>  <SCORE.INTRA.REPUL.0>
0

>  <SCORE.INTRA.SOLV>
2.45728

>  <SCORE.INTRA.SOLV.lig_0>
-89.8095

>  <SCORE.INTRA.VDW>
2.60096

>  <SCORE.INTRA.VDW.0>
-3.19502

>  <SCORE.INTRA.norm>
0.00687023

>  <SCORE.RESTR>
0.000632303

>  <SCORE.RESTR.CAVITY>
0.000632303

>  <SCORE.RESTR.norm>
1.70893e-05

>  <SCORE.SYSTEM>
0

>  <SCORE.SYSTEM.CONST>
0

>  <SCORE.SYSTEM.DIHEDRAL>
0

>  <SCORE.SYSTEM.SOLV>
0

>  <SCORE.SYSTEM.norm>
0

>  <SCORE.heavy>
37

>  <SCORE.norm>
-0.493077

>  <RMSD>
4.079

$$$$
2oe5_lig
 OpenBabel11021811463D
libRbt.so/2013.1/901 2013/11/27
 37 40  0  0  0  0  0  0  0  0999 V2000
   22.9218   -1.9958   53.4694 C   0  0  1  0  0  0  0  0  0  0  0  0
   24.0072   -2.1079   52.3755 C   0  0  1  0  0  0  0  0  0  0  0  0
   23.3825   -1.7243   50.9827 C   0  0  0  0  0  0  0  0  0  0  0  0
   22.2261   -2.7255   50.7647 C   0  0  1  0  0  0  0  0  0  0  0  0
   21.1198   -2.5994   51.9033 C   0  0  1  0  0  0  0  0  0  0  0  0
   19.9438   -3.5930   51.6987 C   0  0  1  0  0  0  0  0  0  0  0  0
   19.3190   -3.2726   50.3110 C   0  0  1  0  0  0  0  0  0  0  0  0
   20.4544   -3.3647   49.2222 C   0  0  2  0  0  0  0  0  0  0  0  0
   18.4151   -5.7194   50.0686 C   0  0  0  0  0  0  0  0  0  0  0  0
   25.1302   -1.1920   52.6812 N   0  0  0  0  0  0  0  0  0  0  0  0
   18.1919   -4.2328   50.0071 N   0  0  0  0  0  0  0  0  0  0  0  0
   22.4376   -0.6502   53.6104 O   0  0  0  0  0  0  0  0  0  0  0  0
   21.7631   -2.8582   53.1931 O   0  0  0  0  0  0  0  0  0  0  0  0
   21.5825   -2.4520   49.4912 O   0  0  0  0  0  0  0  0  0  0  0  0
   20.4750   -4.9210   51.7478 O   0  0  0  0  0  0  0  0  0  0  0  0
   19.9366   -3.0173   47.9532 O   0  0  0  0  0  0  0  0  0  0  0  0
   19.8869   -4.1579   47.1169 C   0  0  2  0  0  0  0  0  0  0  0  0
   20.1285   -3.8119   45.6481 C   0  0  1  0  0  0  0  0  0  0  0  0
   19.0025   -2.8957   45.0950 C   0  0  2  0  0  0  0  0  0  0  0  0
   17.6493   -3.6385   45.3023 C   0  0  1  0  0  0  0  0  0  0  0  0
   17.4700   -3.9070   46.8327 C   0  0  1  0  0  0  0  0  0  0  0  0
   16.2057   -4.6746   47.1484 C   0  0  0  0  0  0  0  0  0  0  0  0
   16.5467   -2.7560   44.7643 N   0  0  0  0  0  0  0  0  0  0  0  0
   18.5703   -4.7757   47.2675 O   0  0  0  0  0  0  0  0  0  0  0  0
   21.4102   -3.1581   45.5621 O   0  0  0  0  0  0  0  0  0  0  0  0
   19.2357   -2.7023   43.6882 O   0  0  0  0  0  0  0  0  0  0  0  0
   16.1916   -5.9233   46.5457 O   0  0  0  0  0  0  0  0  0  0  0  0
   21.3266   -0.5186   54.4975 C   0  0  1  0  0  0  0  0  0  0  0  0
   21.8220   -0.5833   55.9865 C   0  0  1  0  0  0  0  0  0  0  0  0
   20.5852   -0.4230   56.9420 C   0  0  2  0  0  0  0  0  0  0  0  0
   19.9171    0.9361   56.6846 C   0  0  1  0  0  0  0  0  0  0  0  0
   19.4074    0.9940   55.1930 C   0  0  0  0  0  0  0  0  0  0  0  0
   20.6469    0.8176   54.2302 C   0  0  2  0  0  0  0  0  0  0  0  0
   18.7867    1.0799   57.5871 N   0  0  0  0  0  0  0  0  0  0  0  0
   20.2049    0.8443   52.8111 N   0  0  0  0  0  0  0  0  0  0  0  0
   22.4568   -1.8704   56.2350 O   0  0  0  0  0  0  0  0  0  0  0  0
   21.0256   -0.4617   58.2735 O   0  0  0  0  0  0  0  0  0  0  0  0
  1  2  1  0  0  0  0
  1 12  1  6  0  0  0
  1 13  1  0  0  0  0
  2  3  1  0  0  0  0
  2 10  1  1  0  0  0
  4  3  1  1  0  0  0
  4  5  1  0  0  0  0
  4 14  1  0  0  0  0
  5  6  1  0  0  0  0
  5 13  1  1  0  0  0
  6  7  1  0  0  0  0
  6 15  1  6  0  0  0
  7  8  1  0  0  0  0
  7 11  1  6  0  0  0
  8 14  1  0  0  0  0
  8 16  1  6  0  0  0
  9 11  1  0  0  0  0
 17 16  1  1  0  0  0
 17 18  1  0  0  0  0
 17 24  1  0  0  0  0
 18 19  1  0  0  0  0
 18 25  1  1  0  0  0
 19 20  1  0  0  0  0
 19 26  1  6  0  0  0
 20 21  1  0  0  0  0
 20 23  1  1  0  0  0
 21 22  1  6  0  0  0
 21 24  1  0  0  0  0
 22 27  1  0  0  0  0
 28 12  1  6  0  0  0
 28 29  1  0  0  0  0
 28 33  1  0  0  0  0
 29 30  1  0  0  0  0
 29 36  1  6  0  0  0
 30 31  1  0  0  0  0
 30 37  1  1  0  0  0
 31 32  1  0  0  0  0
 31 34  1  1  0  0  0
 32 33  1  0  0  0  0
 33 35  1  6  0  0  0
M  END
>  <CHROM.1>
173.12680717,-53.78929151,-110.72495768,-147.13286290,60.97926302,77.14123768
20.26158574,-2.41527144,50.85820294,-1.29048732,-0.11055242,-1.89505115

>  <Name>
2oe5_lig

>  <RI>
0

>  <Rbt.Current_Directory>
/home/itssahil/PROJECTS/Mol_Feturizer/New_Systems/rnas/2oe5

>  <Rbt.Executable>
rbdock ($Id: //depot/dev/client3/rdock/2013.1/src/exe/rbdock.cxx#4 $)

>  <Rbt.Library>
libRbt.so (2013.1, Build901 2013/11/27)

>  <Rbt.Parameter_File>
/export/apps/rDock/src/rDock_2013.1_src/data/scripts/dock_solv.prm

>  <Rbt.Receptor>
prm/pocket_docking_7.prm

>  <SCORE>
-22.0984

>  <SCORE.INTER>
-21.9136

>  <SCORE.INTER.CONST>
1

>  <SCORE.INTER.POLAR>
-2.52586

>  <SCORE.INTER.ROT>
6

>  <SCORE.INTER.SOLV>
15.6811

>  <SCORE.INTER.VDW>
-19.0166

>  <SCORE.INTER.norm>
-0.592259

>  <SCORE.INTRA>
-0.184829

>  <SCORE.INTRA.DIHEDRAL>
-3.63045

>  <SCORE.INTRA.DIHEDRAL.0>
16.2083

>  <SCORE.INTRA.POLAR>
0

>  <SCORE.INTRA.POLAR.0>
0

>  <SCORE.INTRA.REPUL>
0

>  <SCORE.INTRA.REPUL.0>
0

>  <SCORE.INTRA.SOLV>
-0.341946

>  <SCORE.INTRA.SOLV.lig_0>
-89.8095

>  <SCORE.INTRA.VDW>
1.80137

>  <SCORE.INTRA.VDW.0>
-3.19502

>  <SCORE.INTRA.norm>
-0.00499537

>  <SCORE.RESTR>
0

>  <SCORE.RESTR.CAVITY>
0

>  <SCORE.RESTR.norm>
0

>  <SCORE.SYSTEM>
0

>  <SCORE.SYSTEM.CONST>
0

>  <SCORE.SYSTEM.DIHEDRAL>
0

>  <SCORE.SYSTEM.SOLV>
0

>  <SCORE.SYSTEM.norm>
0

>  <SCORE.heavy>
37

>  <SCORE.norm>
-0.597255

>  <RMSD>
4.178

$$$$
2oe5_lig
 OpenBabel11021811463D
libRbt.so/2013.1/901 2013/11/27
 37 40  0  0  0  0  0  0  0  0999 V2000
   20.7933   -2.0093   52.3147 C   0  0  1  0  0  0  0  0  0  0  0  0
   21.4674   -1.3079   51.1143 C   0  0  1  0  0  0  0  0  0  0  0  0
   20.4351   -1.1958   49.9316 C   0  0  0  0  0  0  0  0  0  0  0  0
   20.0278   -2.6503   49.6063 C   0  0  1  0  0  0  0  0  0  0  0  0
   19.3395   -3.3589   50.8555 C   0  0  1  0  0  0  0  0  0  0  0  0
   18.9154   -4.8209   50.5472 C   0  0  1  0  0  0  0  0  0  0  0  0
   17.9197   -4.7595   49.3541 C   0  0  1  0  0  0  0  0  0  0  0  0
   18.6235   -4.0130   48.1580 C   0  0  2  0  0  0  0  0  0  0  0  0
   16.4007   -6.8650   49.7036 C   0  0  0  0  0  0  0  0  0  0  0  0
   21.9161    0.0477   51.5072 N   0  0  0  0  0  0  0  0  0  0  0  0
   17.4929   -6.1528   48.9528 N   0  0  0  0  0  0  0  0  0  0  0  0
   19.6854   -1.2513   52.8274 O   0  0  0  0  0  0  0  0  0  0  0  0
   20.2928   -3.3477   51.9670 O   0  0  0  0  0  0  0  0  0  0  0  0
   19.0697   -2.6522   48.5141 O   0  0  0  0  0  0  0  0  0  0  0  0
   20.0945   -5.5616   50.2170 O   0  0  0  0  0  0  0  0  0  0  0  0
   17.7249   -3.8819   47.0743 O   0  0  0  0  0  0  0  0  0  0  0  0
   18.4364   -3.8461   45.8514 C   0  0  2  0  0  0  0  0  0  0  0  0
   17.5068   -3.7693   44.6408 C   0  0  1  0  0  0  0  0  0  0  0  0
   16.6307   -5.0467   44.5243 C   0  0  2  0  0  0  0  0  0  0  0  0
   17.5924   -6.2691   44.4420 C   0  0  1  0  0  0  0  0  0  0  0  0
   18.4665   -6.2898   45.7389 C   0  0  1  0  0  0  0  0  0  0  0  0
   19.4798   -7.4126   45.7442 C   0  0  0  0  0  0  0  0  0  0  0  0
   16.7491   -7.5179   44.3254 N   0  0  0  0  0  0  0  0  0  0  0  0
   19.2569   -5.0534   45.7667 O   0  0  0  0  0  0  0  0  0  0  0  0
   16.6845   -2.5962   44.7997 O   0  0  0  0  0  0  0  0  0  0  0  0
   15.8650   -4.9531   43.3093 O   0  0  0  0  0  0  0  0  0  0  0  0
   20.1885   -7.4674   46.9348 O   0  0  0  0  0  0  0  0  0  0  0  0
   20.0611   -0.0512   53.5037 C   0  0  1  0  0  0  0  0  0  0  0  0
   18.8352    0.9282   53.5733 C   0  0  1  0  0  0  0  0  0  0  0  0
   19.2689    2.2337   54.3323 C   0  0  2  0  0  0  0  0  0  0  0  0
   19.7130    1.8692   55.7569 C   0  0  1  0  0  0  0  0  0  0  0  0
   20.9531    0.8969   55.6855 C   0  0  0  0  0  0  0  0  0  0  0  0
   20.5241   -0.4099   54.9092 C   0  0  2  0  0  0  0  0  0  0  0  0
   20.0935    3.0867   56.4540 N   0  0  0  0  0  0  0  0  0  0  0  0
   21.6742   -1.3455   54.8006 N   0  0  0  0  0  0  0  0  0  0  0  0
   18.4102    1.2762   52.2242 O   0  0  0  0  0  0  0  0  0  0  0  0
   18.1714    3.1039   54.4130 O   0  0  0  0  0  0  0  0  0  0  0  0
  1  2  1  0  0  0  0
  1 12  1  6  0  0  0
  1 13  1  0  0  0  0
  2  3  1  0  0  0  0
  2 10  1  1  0  0  0
  4  3  1  1  0  0  0
  4  5  1  0  0  0  0
  4 14  1  0  0  0  0
  5  6  1  0  0  0  0
  5 13  1  1  0  0  0
  6  7  1  0  0  0  0
  6 15  1  6  0  0  0
  7  8  1  0  0  0  0
  7 11  1  6  0  0  0
  8 14  1  0  0  0  0
  8 16  1  6  0  0  0
  9 11  1  0  0  0  0
 17 16  1  1  0  0  0
 17 18  1  0  0  0  0
 17 24  1  0  0  0  0
 18 19  1  0  0  0  0
 18 25  1  1  0  0  0
 19 20  1  0  0  0  0
 19 26  1  6  0  0  0
 20 21  1  0  0  0  0
 20 23  1  1  0  0  0
 21 22  1  6  0  0  0
 21 24  1  0  0  0  0
 22 27  1  0  0  0  0
 28 12  1  1  0  0  0
 28 29  1  0  0  0  0
 28 33  1  0  0  0  0
 29 30  1  0  0  0  0
 29 36  1  6  0  0  0
 30 31  1  0  0  0  0
 30 37  1  1  0  0  0
 31 32  1  0  0  0  0
 31 34  1  1  0  0  0
 32 33  1  0  0  0  0
 33 35  1  6  0  0  0
M  END
>  <CHROM.1>
-70.56076514,81.88417172,-151.39957352,177.38153012,-176.24658409,160.21511214
19.02643062,-2.78987483,49.80529357,-1.16695629,1.02805876,-2.56834491

>  <Name>
2oe5_lig

>  <RI>
0

>  <Rbt.Current_Directory>
/home/itssahil/PROJECTS/Mol_Feturizer/New_Systems/rnas/2oe5

>  <Rbt.Executable>
rbdock ($Id: //depot/dev/client3/rdock/2013.1/src/exe/rbdock.cxx#4 $)

>  <Rbt.Library>
libRbt.so (2013.1, Build901 2013/11/27)

>  <Rbt.Parameter_File>
/export/apps/rDock/src/rDock_2013.1_src/data/scripts/dock_solv.prm

>  <Rbt.Receptor>
prm/pocket_docking_8.prm

>  <SCORE>
-17.0906

>  <SCORE.INTER>
-14.208

>  <SCORE.INTER.CONST>
1

>  <SCORE.INTER.POLAR>
-0.947991

>  <SCORE.INTER.ROT>
6

>  <SCORE.INTER.SOLV>
10.5952

>  <SCORE.INTER.VDW>
-17.4438

>  <SCORE.INTER.norm>
-0.384001

>  <SCORE.INTRA>
-2.8826

>  <SCORE.INTRA.DIHEDRAL>
-10.0731

>  <SCORE.INTRA.DIHEDRAL.0>
16.2083

>  <SCORE.INTRA.POLAR>
0

>  <SCORE.INTRA.POLAR.0>
0

>  <SCORE.INTRA.REPUL>
0

>  <SCORE.INTRA.REPUL.0>
0

>  <SCORE.INTRA.SOLV>
2.56157

>  <SCORE.INTRA.SOLV.lig_0>
-89.8095

>  <SCORE.INTRA.VDW>
0.873154

>  <SCORE.INTRA.VDW.0>
-3.19502

>  <SCORE.INTRA.norm>
-0.077908

>  <SCORE.RESTR>
0

>  <SCORE.RESTR.CAVITY>
0

>  <SCORE.RESTR.norm>
0

>  <SCORE.SYSTEM>
0

>  <SCORE.SYSTEM.CONST>
0

>  <SCORE.SYSTEM.DIHEDRAL>
0

>  <SCORE.SYSTEM.SOLV>
0

>  <SCORE.SYSTEM.norm>
0

>  <SCORE.heavy>
37

>  <SCORE.norm>
-0.461909

>  <RMSD>
4.334

$$$$
2oe5_lig
 OpenBabel11021811463D
libRbt.so/2013.1/901 2013/11/27
 37 40  0  0  0  0  0  0  0  0999 V2000
   22.6825   -2.5284   52.7762 C   0  0  1  0  0  0  0  0  0  0  0  0
   23.7653   -2.6899   51.6858 C   0  0  1  0  0  0  0  0  0  0  0  0
   23.1340   -2.3824   50.2773 C   0  0  0  0  0  0  0  0  0  0  0  0
   21.9833   -3.4007   50.1149 C   0  0  1  0  0  0  0  0  0  0  0  0
   20.8797   -3.2231   51.2493 C   0  0  1  0  0  0  0  0  0  0  0  0
   19.7094   -4.2332   51.1000 C   0  0  1  0  0  0  0  0  0  0  0  0
   19.0784   -3.9886   49.6997 C   0  0  1  0  0  0  0  0  0  0  0  0
   20.2111   -4.1295   48.6133 C   0  0  2  0  0  0  0  0  0  0  0  0
   17.0256   -4.7872   48.2816 C   0  0  0  0  0  0  0  0  0  0  0  0
   24.8833   -1.7524   51.9402 N   0  0  0  0  0  0  0  0  0  0  0  0
   17.9566   -4.9701   49.4494 N   0  0  0  0  0  0  0  0  0  0  0  0
   22.1902   -1.1804   52.8494 O   0  0  0  0  0  0  0  0  0  0  0  0
   21.5285   -3.4111   52.5485 O   0  0  0  0  0  0  0  0  0  0  0  0
   21.3341   -3.1972   48.8312 O   0  0  0  0  0  0  0  0  0  0  0  0
   20.2493   -5.5536   51.2156 O   0  0  0  0  0  0  0  0  0  0  0  0
   19.6873   -3.8511   47.3299 O   0  0  0  0  0  0  0  0  0  0  0  0
   20.5493   -4.3601   46.3295 C   0  0  2  0  0  0  0  0  0  0  0  0
   20.0865   -3.9896   44.9209 C   0  0  1  0  0  0  0  0  0  0  0  0
   18.7130   -4.6371   44.5931 C   0  0  2  0  0  0  0  0  0  0  0  0
   18.8668   -6.1771   44.7683 C   0  0  1  0  0  0  0  0  0  0  0  0
   19.2956   -6.4593   46.2457 C   0  0  1  0  0  0  0  0  0  0  0  0
   19.5262   -7.9290   46.5180 C   0  0  0  0  0  0  0  0  0  0  0  0
   17.5356   -6.8172   44.4486 N   0  0  0  0  0  0  0  0  0  0  0  0
   20.5960   -5.8151   46.4661 O   0  0  0  0  0  0  0  0  0  0  0  0
   20.0043   -2.5520   44.8558 O   0  0  0  0  0  0  0  0  0  0  0  0
   18.3945   -4.3373   43.2221 O   0  0  0  0  0  0  0  0  0  0  0  0
   20.5272   -8.4555   45.7158 O   0  0  0  0  0  0  0  0  0  0  0  0
   21.1986   -0.9739   53.8558 C   0  0  1  0  0  0  0  0  0  0  0  0
   21.8775   -0.9232   55.2712 C   0  0  1  0  0  0  0  0  0  0  0  0
   20.7696   -0.6823   56.3589 C   0  0  2  0  0  0  0  0  0  0  0  0
   20.0674    0.6554   56.0810 C   0  0  1  0  0  0  0  0  0  0  0  0
   19.3741    0.5978   54.6653 C   0  0  0  0  0  0  0  0  0  0  0  0
   20.4838    0.3402   53.5714 C   0  0  2  0  0  0  0  0  0  0  0  0
   19.0585    0.8753   57.1042 N   0  0  0  0  0  0  0  0  0  0  0  0
   19.8669    0.2569   52.2215 N   0  0  0  0  0  0  0  0  0  0  0  0
   22.5453   -2.1897   55.5388 O   0  0  0  0  0  0  0  0  0  0  0  0
   21.3740   -0.6178   57.6234 O   0  0  0  0  0  0  0  0  0  0  0  0
  1  2  1  0  0  0  0
  1 12  1  6  0  0  0
  1 13  1  0  0  0  0
  2  3  1  0  0  0  0
  2 10  1  1  0  0  0
  4  3  1  1  0  0  0
  4  5  1  0  0  0  0
  4 14  1  0  0  0  0
  5  6  1  0  0  0  0
  5 13  1  1  0  0  0
  6  7  1  0  0  0  0
  6 15  1  6  0  0  0
  7  8  1  0  0  0  0
  7 11  1  6  0  0  0
  8 14  1  0  0  0  0
  8 16  1  6  0  0  0
  9 11  1  0  0  0  0
 17 16  1  1  0  0  0
 17 18  1  0  0  0  0
 17 24  1  0  0  0  0
 18 19  1  0  0  0  0
 18 25  1  1  0  0  0
 19 20  1  0  0  0  0
 19 26  1  6  0  0  0
 20 21  1  0  0  0  0
 20 23  1  1  0  0  0
 21 22  1  6  0  0  0
 21 24  1  0  0  0  0
 22 27  1  0  0  0  0
 28 12  1  6  0  0  0
 28 29  1  0  0  0  0
 28 33  1  0  0  0  0
 29 30  1  0  0  0  0
 29 36  1  1  0  0  0
 30 31  1  0  0  0  0
 30 37  1  1  0  0  0
 31 32  1  0  0  0  0
 31 34  1  1  0  0  0
 32 33  1  0  0  0  0
 33 35  1  6  0  0  0
M  END
>  <CHROM.1>
-179.19287856,168.86333930,-162.10584187,-175.45660228,60.17221116,75.76184383
20.46129807,-3.25998190,50.19127711,-1.38441701,0.27072006,-2.09927914

>  <Name>
2oe5_lig

>  <RI>
0

>  <Rbt.Current_Directory>
/home/itssahil/PROJECTS/Mol_Feturizer/New_Systems/rnas/2oe5

>  <Rbt.Executable>
rbdock ($Id: //depot/dev/client3/rdock/2013.1/src/exe/rbdock.cxx#4 $)

>  <Rbt.Library>
libRbt.so (2013.1, Build901 2013/11/27)

>  <Rbt.Parameter_File>
/export/apps/rDock/src/rDock_2013.1_src/data/scripts/dock_solv.prm

>  <Rbt.Receptor>
prm/pocket_docking_5.prm

>  <SCORE>
-21.5833

>  <SCORE.INTER>
-14.7596

>  <SCORE.INTER.CONST>
1

>  <SCORE.INTER.POLAR>
-1.52231

>  <SCORE.INTER.ROT>
6

>  <SCORE.INTER.SOLV>
12.6885

>  <SCORE.INTER.VDW>
-16.5949

>  <SCORE.INTER.norm>
-0.398908

>  <SCORE.INTRA>
-6.82364

>  <SCORE.INTRA.DIHEDRAL>
-13.2939

>  <SCORE.INTRA.DIHEDRAL.0>
16.2083

>  <SCORE.INTRA.POLAR>
0

>  <SCORE.INTRA.POLAR.0>
0

>  <SCORE.INTRA.REPUL>
0

>  <SCORE.INTRA.REPUL.0>
0

>  <SCORE.INTRA.SOLV>
-1.53284

>  <SCORE.INTRA.SOLV.lig_0>
-89.8095

>  <SCORE.INTRA.VDW>
0.589708

>  <SCORE.INTRA.VDW.0>
-3.19502

>  <SCORE.INTRA.norm>
-0.184423

>  <SCORE.RESTR>
0

>  <SCORE.RESTR.CAVITY>
0

>  <SCORE.RESTR.norm>
0

>  <SCORE.SYSTEM>
0

>  <SCORE.SYSTEM.CONST>
0

>  <SCORE.SYSTEM.DIHEDRAL>
0

>  <SCORE.SYSTEM.SOLV>
0

>  <SCORE.SYSTEM.norm>
0

>  <SCORE.heavy>
37

>  <SCORE.norm>
-0.583331

>  <RMSD>
4.353

$$$$
2oe5_lig
 OpenBabel11021811463D
libRbt.so/2013.1/901 2013/11/27
 37 40  0  0  0  0  0  0  0  0999 V2000
   20.4874   -1.6884   53.0505 C   0  0  1  0  0  0  0  0  0  0  0  0
   21.8267   -1.5588   52.2910 C   0  0  1  0  0  0  0  0  0  0  0  0
   21.5371   -1.3774   50.7546 C   0  0  0  0  0  0  0  0  0  0  0  0
   20.7470   -2.6377   50.3368 C   0  0  1  0  0  0  0  0  0  0  0  0
   19.3727   -2.7578   51.1326 C   0  0  1  0  0  0  0  0  0  0  0  0
   18.5588   -4.0152   50.7220 C   0  0  1  0  0  0  0  0  0  0  0  0
   18.2823   -3.8950   49.1963 C   0  0  1  0  0  0  0  0  0  0  0  0
   19.6623   -3.7335   48.4529 C   0  0  2  0  0  0  0  0  0  0  0  0
   16.4760   -4.9774   47.6380 C   0  0  0  0  0  0  0  0  0  0  0  0
   22.5812   -0.3870   52.7921 N   0  0  0  0  0  0  0  0  0  0  0  0
   17.5336   -5.1105   48.6999 N   0  0  0  0  0  0  0  0  0  0  0  0
   19.6876   -0.5001   52.9365 O   0  0  0  0  0  0  0  0  0  0  0  0
   19.6792   -2.8164   52.5634 O   0  0  0  0  0  0  0  0  0  0  0  0
   20.4323   -2.5646   48.9204 O   0  0  0  0  0  0  0  0  0  0  0  0
   19.3465   -5.1699   51.0294 O   0  0  0  0  0  0  0  0  0  0  0  0
   19.4469   -3.5576   47.0666 O   0  0  0  0  0  0  0  0  0  0  0  0
   20.4651   -4.2060   46.3279 C   0  0  2  0  0  0  0  0  0  0  0  0
   20.2930   -4.0258   44.8201 C   0  0  1  0  0  0  0  0  0  0  0  0
   18.9850   -4.6985   44.3204 C   0  0  2  0  0  0  0  0  0  0  0  0
   19.0474   -6.2018   44.7227 C   0  0  1  0  0  0  0  0  0  0  0  0
   19.1763   -6.2849   46.2793 C   0  0  1  0  0  0  0  0  0  0  0  0
   19.2980   -7.7062   46.7818 C   0  0  0  0  0  0  0  0  0  0  0  0
   17.7796   -6.8665   44.2381 N   0  0  0  0  0  0  0  0  0  0  0  0
   20.4329   -5.6294   46.6609 O   0  0  0  0  0  0  0  0  0  0  0  0
   20.2761   -2.6096   44.5521 O   0  0  0  0  0  0  0  0  0  0  0  0
   18.9446   -4.5845   42.8863 O   0  0  0  0  0  0  0  0  0  0  0  0
   20.4053   -8.3515   46.2526 O   0  0  0  0  0  0  0  0  0  0  0  0
   20.1791    0.6099   53.6882 C   0  0  1  0  0  0  0  0  0  0  0  0
   19.8642    1.9490   52.9303 C   0  0  1  0  0  0  0  0  0  0  0  0
   20.4019    3.1547   53.7821 C   0  0  2  0  0  0  0  0  0  0  0  0
   19.7003    3.1641   55.1486 C   0  0  1  0  0  0  0  0  0  0  0  0
   20.0291    1.8249   55.9144 C   0  0  0  0  0  0  0  0  0  0  0  0
   19.5034    0.6101   55.0528 C   0  0  2  0  0  0  0  0  0  0  0  0
   20.1924    4.2943   55.9191 N   0  0  0  0  0  0  0  0  0  0  0  0
   19.8143   -0.6755   55.7313 N   0  0  0  0  0  0  0  0  0  0  0  0
   20.5271    1.9442   51.6333 O   0  0  0  0  0  0  0  0  0  0  0  0
   20.1062    4.3543   53.1174 O   0  0  0  0  0  0  0  0  0  0  0  0
  1  2  1  0  0  0  0
  1 12  1  6  0  0  0
  1 13  1  0  0  0  0
  2  3  1  0  0  0  0
  2 10  1  1  0  0  0
  4  3  1  1  0  0  0
  4  5  1  0  0  0  0
  4 14  1  0  0  0  0
  5  6  1  0  0  0  0
  5 13  1  1  0  0  0
  6  7  1  0  0  0  0
  6 15  1  6  0  0  0
  7  8  1  0  0  0  0
  7 11  1  6  0  0  0
  8 14  1  0  0  0  0
  8 16  1  6  0  0  0
  9 11  1  0  0  0  0
 17 16  1  1  0  0  0
 17 18  1  0  0  0  0
 17 24  1  0  0  0  0
 18 19  1  0  0  0  0
 18 25  1  1  0  0  0
 19 20  1  0  0  0  0
 19 26  1  6  0  0  0
 20 21  1  0  0  0  0
 20 23  1  1  0  0  0
 21 22  1  6  0  0  0
 21 24  1  0  0  0  0
 22 27  1  0  0  0  0
 28 12  1  6  0  0  0
 28 29  1  0  0  0  0
 28 33  1  0  0  0  0
 29 30  1  0  0  0  0
 29 36  1  6  0  0  0
 30 31  1  0  0  0  0
 30 37  1  6  0  0  0
 31 32  1  0  0  0  0
 31 34  1  1  0  0  0
 32 33  1  0  0  0  0
 33 35  1  1  0  0  0
M  END
>  <CHROM.1>
-72.24342050,143.29854058,-143.75953055,-178.99519415,59.45322229,146.53788313
19.75864295,-2.36885222,49.89994899,1.00179294,1.39919673,1.42372464

>  <Name>
2oe5_lig

>  <RI>
0

>  <Rbt.Current_Directory>
/home/itssahil/PROJECTS/Mol_Feturizer/New_Systems/rnas/2oe5

>  <Rbt.Executable>
rbdock ($Id: //depot/dev/client3/rdock/2013.1/src/exe/rbdock.cxx#4 $)

>  <Rbt.Library>
libRbt.so (2013.1, Build901 2013/11/27)

>  <Rbt.Parameter_File>
/export/apps/rDock/src/rDock_2013.1_src/data/scripts/dock_solv.prm

>  <Rbt.Receptor>
prm/pocket_docking_7.prm

>  <SCORE>
-19.3195

>  <SCORE.INTER>
-17.7605

>  <SCORE.INTER.CONST>
1

>  <SCORE.INTER.POLAR>
-2.35078

>  <SCORE.INTER.ROT>
6

>  <SCORE.INTER.SOLV>
13.5374

>  <SCORE.INTER.VDW>
-16.1168

>  <SCORE.INTER.norm>
-0.480013

>  <SCORE.INTRA>
-1.55904

>  <SCORE.INTRA.DIHEDRAL>
-5.62621

>  <SCORE.INTRA.DIHEDRAL.0>
16.2083

>  <SCORE.INTRA.POLAR>
0

>  <SCORE.INTRA.POLAR.0>
0

>  <SCORE.INTRA.REPUL>
0

>  <SCORE.INTRA.REPUL.0>
0

>  <SCORE.INTRA.SOLV>
2.93739

>  <SCORE.INTRA.SOLV.lig_0>
-89.8095

>  <SCORE.INTRA.VDW>
-0.214635

>  <SCORE.INTRA.VDW.0>
-3.19502

>  <SCORE.INTRA.norm>
-0.0421363

>  <SCORE.RESTR>
0

>  <SCORE.RESTR.CAVITY>
0

>  <SCORE.RESTR.norm>
0

>  <SCORE.SYSTEM>
0

>  <SCORE.SYSTEM.CONST>
0

>  <SCORE.SYSTEM.DIHEDRAL>
0

>  <SCORE.SYSTEM.SOLV>
0

>  <SCORE.SYSTEM.norm>
0

>  <SCORE.heavy>
37

>  <SCORE.norm>
-0.522149

>  <RMSD>
4.389

$$$$
2oe5_lig
 OpenBabel11021811463D
libRbt.so/2013.1/901 2013/11/27
 37 40  0  0  0  0  0  0  0  0999 V2000
   20.4762   -1.6884   53.0592 C   0  0  1  0  0  0  0  0  0  0  0  0
   21.8165   -1.5437   52.3040 C   0  0  1  0  0  0  0  0  0  0  0  0
   21.5297   -1.3608   50.7673 C   0  0  0  0  0  0  0  0  0  0  0  0
   20.7529   -2.6275   50.3437 C   0  0  1  0  0  0  0  0  0  0  0  0
   19.3775   -2.7630   51.1350 C   0  0  1  0  0  0  0  0  0  0  0  0
   18.5770   -4.0271   50.7185 C   0  0  1  0  0  0  0  0  0  0  0  0
   18.3038   -3.9052   49.1923 C   0  0  1  0  0  0  0  0  0  0  0  0
   19.6844   -3.7283   48.4535 C   0  0  2  0  0  0  0  0  0  0  0  0
   16.4329   -4.9884   47.7128 C   0  0  0  0  0  0  0  0  0  0  0  0
   22.5581   -0.3661   52.8107 N   0  0  0  0  0  0  0  0  0  0  0  0
   17.5684   -5.1265   48.6902 N   0  0  0  0  0  0  0  0  0  0  0  0
   19.6653   -0.5075   52.9461 O   0  0  0  0  0  0  0  0  0  0  0  0
   19.6803   -2.8227   52.5665 O   0  0  0  0  0  0  0  0  0  0  0  0
   20.4418   -2.5534   48.9265 O   0  0  0  0  0  0  0  0  0  0  0  0
   19.3748   -5.1750   51.0249 O   0  0  0  0  0  0  0  0  0  0  0  0
   19.4714   -3.5506   47.0670 O   0  0  0  0  0  0  0  0  0  0  0  0
   20.4932   -4.1946   46.3293 C   0  0  2  0  0  0  0  0  0  0  0  0
   20.3243   -4.0114   44.8215 C   0  0  1  0  0  0  0  0  0  0  0  0
   19.0194   -4.6865   44.3171 C   0  0  2  0  0  0  0  0  0  0  0  0
   19.0849   -6.1906   44.7162 C   0  0  1  0  0  0  0  0  0  0  0  0
   19.2102   -6.2769   46.2728 C   0  0  1  0  0  0  0  0  0  0  0  0
   19.3346   -7.6990   46.7724 C   0  0  0  0  0  0  0  0  0  0  0  0
   17.8202   -6.8576   44.2269 N   0  0  0  0  0  0  0  0  0  0  0  0
   20.4641   -5.6188   46.6590 O   0  0  0  0  0  0  0  0  0  0  0  0
   20.3042   -2.5947   44.5567 O   0  0  0  0  0  0  0  0  0  0  0  0
   18.9822   -4.5694   42.8832 O   0  0  0  0  0  0  0  0  0  0  0  0
   20.4493   -8.3375   46.2505 O   0  0  0  0  0  0  0  0  0  0  0  0
   20.1492    0.6079   53.6946 C   0  0  1  0  0  0  0  0  0  0  0  0
   19.8480    1.9410   52.9207 C   0  0  1  0  0  0  0  0  0  0  0  0
   20.3769    3.1530   53.7690 C   0  0  2  0  0  0  0  0  0  0  0  0
   19.6567    3.1762   55.1257 C   0  0  1  0  0  0  0  0  0  0  0  0
   19.9718    1.8430   55.9078 C   0  0  0  0  0  0  0  0  0  0  0  0
   19.4549    0.6219   55.0498 C   0  0  2  0  0  0  0  0  0  0  0  0
   20.1410    4.3120   55.8928 N   0  0  0  0  0  0  0  0  0  0  0  0
   19.7534   -0.6584   55.7438 N   0  0  0  0  0  0  0  0  0  0  0  0
   20.5285    1.9232   51.6330 O   0  0  0  0  0  0  0  0  0  0  0  0
   20.0933    4.3473   53.0898 O   0  0  0  0  0  0  0  0  0  0  0  0
  1  2  1  0  0  0  0
  1 12  1  6  0  0  0
  1 13  1  0  0  0  0
  2  3  1  0  0  0  0
  2 10  1  1  0  0  0
  4  3  1  1  0  0  0
  4  5  1  0  0  0  0
  4 14  1  0  0  0  0
  5  6  1  0  0  0  0
  5 13  1  1  0  0  0
  6  7  1  0  0  0  0
  6 15  1  6  0  0  0
  7  8  1  0  0  0  0
  7 11  1  6  0  0  0
  8 14  1  0  0  0  0
  8 16  1  6  0  0  0
  9 11  1  0  0  0  0
 17 16  1  1  0  0  0
 17 18  1  0  0  0  0
 17 24  1  0  0  0  0
 18 19  1  0  0  0  0
 18 25  1  1  0  0  0
 19 20  1  0  0  0  0
 19 26  1  6  0  0  0
 20 21  1  0  0  0  0
 20 23  1  1  0  0  0
 21 22  1  6  0  0  0
 21 24  1  0  0  0  0
 22 27  1  0  0  0  0
 28 12  1  6  0  0  0
 28 29  1  0  0  0  0
 28 33  1  0  0  0  0
 29 30  1  0  0  0  0
 29 36  1  6  0  0  0
 30 31  1  0  0  0  0
 30 37  1  6  0  0  0
 31 32  1  0  0  0  0
 31 34  1  1  0  0  0
 32 33  1  0  0  0  0
 33 35  1  1  0  0  0
M  END
>  <CHROM.1>
-71.81066313,138.03995764,-143.37801402,-178.95670561,59.80345290,145.29169387
19.76158262,-2.36415152,49.90030910,1.04891039,1.39672054,1.37673781

>  <Name>
2oe5_lig

>  <RI>
0

>  <Rbt.Current_Directory>
/home/itssahil/PROJECTS/Mol_Feturizer/New_Systems/rnas/2oe5

>  <Rbt.Executable>
rbdock ($Id: //depot/dev/client3/rdock/2013.1/src/exe/rbdock.cxx#4 $)

>  <Rbt.Library>
libRbt.so (2013.1, Build901 2013/11/27)

>  <Rbt.Parameter_File>
/export/apps/rDock/src/rDock_2013.1_src/data/scripts/dock_solv.prm

>  <Rbt.Receptor>
prm/pocket_docking_6.prm

>  <SCORE>
-19.301

>  <SCORE.INTER>
-17.7977

>  <SCORE.INTER.CONST>
1

>  <SCORE.INTER.POLAR>
-2.31277

>  <SCORE.INTER.ROT>
6

>  <SCORE.INTER.SOLV>
13.8564

>  <SCORE.INTER.VDW>
-16.3747

>  <SCORE.INTER.norm>
-0.481018

>  <SCORE.INTRA>
-1.50334

>  <SCORE.INTRA.DIHEDRAL>
-5.23227

>  <SCORE.INTRA.DIHEDRAL.0>
16.2083

>  <SCORE.INTRA.POLAR>
0

>  <SCORE.INTRA.POLAR.0>
0

>  <SCORE.INTRA.REPUL>
0

>  <SCORE.INTRA.REPUL.0>
0

>  <SCORE.INTRA.SOLV>
2.87522

>  <SCORE.INTRA.SOLV.lig_0>
-89.8095

>  <SCORE.INTRA.VDW>
-0.32481

>  <SCORE.INTRA.VDW.0>
-3.19502

>  <SCORE.INTRA.norm>
-0.0406308

>  <SCORE.RESTR>
0

>  <SCORE.RESTR.CAVITY>
0

>  <SCORE.RESTR.norm>
0

>  <SCORE.SYSTEM>
0

>  <SCORE.SYSTEM.CONST>
0

>  <SCORE.SYSTEM.DIHEDRAL>
0

>  <SCORE.SYSTEM.SOLV>
0

>  <SCORE.SYSTEM.norm>
0

>  <SCORE.heavy>
37

>  <SCORE.norm>
-0.521649

>  <RMSD>
4.392

$$$$
2oe5_lig
 OpenBabel11021811463D
libRbt.so/2013.1/901 2013/11/27
 37 40  0  0  0  0  0  0  0  0999 V2000
   21.0486   -1.5100   52.9254 C   0  0  1  0  0  0  0  0  0  0  0  0
   22.1488   -1.3452   51.8530 C   0  0  1  0  0  0  0  0  0  0  0  0
   21.5119   -1.5203   50.4244 C   0  0  0  0  0  0  0  0  0  0  0  0
   20.8997   -2.9389   50.4217 C   0  0  1  0  0  0  0  0  0  0  0  0
   19.7719   -3.0921   51.5357 C   0  0  1  0  0  0  0  0  0  0  0  0
   19.1378   -4.5098   51.5451 C   0  0  1  0  0  0  0  0  0  0  0  0
   18.5271   -4.7401   50.1335 C   0  0  1  0  0  0  0  0  0  0  0  0
   19.6639   -4.5354   49.0615 C   0  0  2  0  0  0  0  0  0  0  0  0
   16.8444   -6.4238   49.0399 C   0  0  0  0  0  0  0  0  0  0  0  0
   22.7609   -0.0007   51.9586 N   0  0  0  0  0  0  0  0  0  0  0  0
   17.9297   -6.1252   50.0382 N   0  0  0  0  0  0  0  0  0  0  0  0
   20.0361   -0.4961   52.8169 O   0  0  0  0  0  0  0  0  0  0  0  0
   20.3797   -2.8169   52.8392 O   0  0  0  0  0  0  0  0  0  0  0  0
   20.2843   -3.1983   49.1315 O   0  0  0  0  0  0  0  0  0  0  0  0
   20.1733   -5.4539   51.8360 O   0  0  0  0  0  0  0  0  0  0  0  0
   19.1310   -4.6749   47.7593 O   0  0  0  0  0  0  0  0  0  0  0  0
   20.1772   -4.7650   46.8104 C   0  0  2  0  0  0  0  0  0  0  0  0
   20.2474   -3.5358   45.9051 C   0  0  1  0  0  0  0  0  0  0  0  0
   18.9668   -3.4055   45.0356 C   0  0  2  0  0  0  0  0  0  0  0  0
   18.8195   -4.7224   44.2172 C   0  0  1  0  0  0  0  0  0  0  0  0
   18.7092   -5.9131   45.2254 C   0  0  1  0  0  0  0  0  0  0  0  0
   18.6137   -7.2564   44.5370 C   0  0  0  0  0  0  0  0  0  0  0  0
   17.5770   -4.6045   43.3650 N   0  0  0  0  0  0  0  0  0  0  0  0
   19.9549   -5.9617   46.0001 O   0  0  0  0  0  0  0  0  0  0  0  0
   20.4111   -2.3819   46.7532 O   0  0  0  0  0  0  0  0  0  0  0  0
   19.1493   -2.2969   44.1363 O   0  0  0  0  0  0  0  0  0  0  0  0
   17.4700   -7.3623   43.7602 O   0  0  0  0  0  0  0  0  0  0  0  0
   20.2775    0.6595   53.6200 C   0  0  1  0  0  0  0  0  0  0  0  0
   19.8786    1.9543   52.8253 C   0  0  1  0  0  0  0  0  0  0  0  0
   20.1402    3.2097   53.7330 C   0  0  2  0  0  0  0  0  0  0  0  0
   19.2828    3.1056   55.0034 C   0  0  1  0  0  0  0  0  0  0  0  0
   19.6945    1.8125   55.8076 C   0  0  0  0  0  0  0  0  0  0  0  0
   19.4470    0.5499   54.8916 C   0  0  2  0  0  0  0  0  0  0  0  0
   19.5197    4.2811   55.8250 N   0  0  0  0  0  0  0  0  0  0  0  0
   19.8444   -0.6913   55.6067 N   0  0  0  0  0  0  0  0  0  0  0  0
   20.6889    2.0568   51.6193 O   0  0  0  0  0  0  0  0  0  0  0  0
   19.7678    4.3675   53.0337 O   0  0  0  0  0  0  0  0  0  0  0  0
  1  2  1  0  0  0  0
  1 12  1  6  0  0  0
  1 13  1  0  0  0  0
  2  3  1  0  0  0  0
  2 10  1  6  0  0  0
  4  3  1  6  0  0  0
  4  5  1  0  0  0  0
  4 14  1  0  0  0  0
  5  6  1  0  0  0  0
  5 13  1  1  0  0  0
  6  7  1  0  0  0  0
  6 15  1  6  0  0  0
  7  8  1  0  0  0  0
  7 11  1  1  0  0  0
  8 14  1  0  0  0  0
  8 16  1  6  0  0  0
  9 11  1  0  0  0  0
 17 16  1  1  0  0  0
 17 18  1  0  0  0  0
 17 24  1  0  0  0  0
 18 19  1  0  0  0  0
 18 25  1  1  0  0  0
 19 20  1  0  0  0  0
 19 26  1  6  0  0  0
 20 21  1  0  0  0  0
 20 23  1  1  0  0  0
 21 22  1  6  0  0  0
 21 24  1  0  0  0  0
 22 27  1  0  0  0  0
 28 12  1  6  0  0  0
 28 29  1  0  0  0  0
 28 33  1  0  0  0  0
 29 30  1  0  0  0  0
 29 36  1  6  0  0  0
 30 31  1  0  0  0  0
 30 37  1  6  0  0  0
 31 32  1  0  0  0  0
 31 34  1  1  0  0  0
 32 33  1  0  0  0  0
 33 35  1  1  0  0  0
M  END
>  <CHROM.1>
-92.06276261,156.08917426,-168.10797200,-111.46852161,-62.85986174,140.24082435
19.69267719,-2.30404117,49.97755369,0.55815204,1.42377898,1.88521328

>  <Name>
2oe5_lig

>  <RI>
0

>  <Rbt.Current_Directory>
/home/itssahil/PROJECTS/Mol_Feturizer/New_Systems/rnas/2oe5

>  <Rbt.Executable>
rbdock ($Id: //depot/dev/client3/rdock/2013.1/src/exe/rbdock.cxx#4 $)

>  <Rbt.Library>
libRbt.so (2013.1, Build901 2013/11/27)

>  <Rbt.Parameter_File>
/export/apps/rDock/src/rDock_2013.1_src/data/scripts/dock_solv.prm

>  <Rbt.Receptor>
prm/pocket_docking_7.prm

>  <SCORE>
-15.6983

>  <SCORE.INTER>
-16.8649

>  <SCORE.INTER.CONST>
1

>  <SCORE.INTER.POLAR>
-1.26395

>  <SCORE.INTER.ROT>
6

>  <SCORE.INTER.SOLV>
15.1617

>  <SCORE.INTER.VDW>
-19.684

>  <SCORE.INTER.norm>
-0.455808

>  <SCORE.INTRA>
1.16656

>  <SCORE.INTRA.DIHEDRAL>
1.13734

>  <SCORE.INTRA.DIHEDRAL.0>
16.2083

>  <SCORE.INTRA.POLAR>
0

>  <SCORE.INTRA.POLAR.0>
0

>  <SCORE.INTRA.REPUL>
0

>  <SCORE.INTRA.REPUL.0>
0

>  <SCORE.INTRA.SOLV>
1.20272

>  <SCORE.INTRA.SOLV.lig_0>
-89.8095

>  <SCORE.INTRA.VDW>
-0.00347179

>  <SCORE.INTRA.VDW.0>
-3.19502

>  <SCORE.INTRA.norm>
0.0315286

>  <SCORE.RESTR>
0

>  <SCORE.RESTR.CAVITY>
0

>  <SCORE.RESTR.norm>
0

>  <SCORE.SYSTEM>
0

>  <SCORE.SYSTEM.CONST>
0

>  <SCORE.SYSTEM.DIHEDRAL>
0

>  <SCORE.SYSTEM.SOLV>
0

>  <SCORE.SYSTEM.norm>
0

>  <SCORE.heavy>
37

>  <SCORE.norm>
-0.424279

>  <RMSD>
4.414

$$$$
2oe5_lig
 OpenBabel11021811463D
libRbt.so/2013.1/901 2013/11/27
 37 40  0  0  0  0  0  0  0  0999 V2000
   20.4929   -1.7055   53.0338 C   0  0  1  0  0  0  0  0  0  0  0  0
   21.8339   -1.5950   52.2743 C   0  0  1  0  0  0  0  0  0  0  0  0
   21.5471   -1.4212   50.7366 C   0  0  0  0  0  0  0  0  0  0  0  0
   20.7442   -2.6761   50.3270 C   0  0  1  0  0  0  0  0  0  0  0  0
   19.3683   -2.7765   51.1227 C   0  0  1  0  0  0  0  0  0  0  0  0
   18.5416   -4.0282   50.7202 C   0  0  1  0  0  0  0  0  0  0  0  0
   18.2672   -3.9156   49.1935 C   0  0  1  0  0  0  0  0  0  0  0  0
   19.6492   -3.7735   48.4499 C   0  0  2  0  0  0  0  0  0  0  0  0
   16.4442   -4.9886   47.6482 C   0  0  0  0  0  0  0  0  0  0  0  0
   22.6002   -0.4276   52.7679 N   0  0  0  0  0  0  0  0  0  0  0  0
   17.5063   -5.1267   48.7050 N   0  0  0  0  0  0  0  0  0  0  0  0
   19.7055   -0.5098   52.9112 O   0  0  0  0  0  0  0  0  0  0  0  0
   19.6733   -2.8283   52.5540 O   0  0  0  0  0  0  0  0  0  0  0  0
   20.4311   -2.6094   48.9098 O   0  0  0  0  0  0  0  0  0  0  0  0
   19.3171   -5.1888   51.0360 O   0  0  0  0  0  0  0  0  0  0  0  0
   19.4364   -3.6050   47.0623 O   0  0  0  0  0  0  0  0  0  0  0  0
   20.4633   -4.2461   46.3292 C   0  0  2  0  0  0  0  0  0  0  0  0
   20.3193   -4.0355   44.8224 C   0  0  1  0  0  0  0  0  0  0  0  0
   19.0159   -4.6892   44.2866 C   0  0  2  0  0  0  0  0  0  0  0  0
   19.0611   -6.2004   44.6607 C   0  0  1  0  0  0  0  0  0  0  0  0
   19.1617   -6.3146   46.2173 C   0  0  1  0  0  0  0  0  0  0  0  0
   19.2650   -7.7462   46.6941 C   0  0  0  0  0  0  0  0  0  0  0  0
   17.7977   -6.8467   44.1409 N   0  0  0  0  0  0  0  0  0  0  0  0
   20.4157   -5.6754   46.6338 O   0  0  0  0  0  0  0  0  0  0  0  0
   20.3166   -2.6144   44.5818 O   0  0  0  0  0  0  0  0  0  0  0  0
   19.0018   -4.5472   42.8546 O   0  0  0  0  0  0  0  0  0  0  0  0
   19.4341   -7.8254   48.0681 O   0  0  0  0  0  0  0  0  0  0  0  0
   20.1952    0.5936   53.6738 C   0  0  1  0  0  0  0  0  0  0  0  0
   19.8871    1.9389   52.9241 C   0  0  1  0  0  0  0  0  0  0  0  0
   20.4227    3.1372   53.7877 C   0  0  2  0  0  0  0  0  0  0  0  0
   19.7136    3.1379   55.1504 C   0  0  1  0  0  0  0  0  0  0  0  0
   20.0355    1.7923   55.9081 C   0  0  0  0  0  0  0  0  0  0  0  0
   19.5120    0.5851   55.0346 C   0  0  2  0  0  0  0  0  0  0  0  0
   20.2038    4.2613   55.9319 N   0  0  0  0  0  0  0  0  0  0  0  0
   19.8166   -0.7062   55.7052 N   0  0  0  0  0  0  0  0  0  0  0  0
   20.5571    1.9424   51.6308 O   0  0  0  0  0  0  0  0  0  0  0  0
   20.1331    4.3423   53.1304 O   0  0  0  0  0  0  0  0  0  0  0  0
  1  2  1  0  0  0  0
  1 12  1  6  0  0  0
  1 13  1  0  0  0  0
  2  3  1  0  0  0  0
  2 10  1  1  0  0  0
  4  3  1  1  0  0  0
  4  5  1  0  0  0  0
  4 14  1  0  0  0  0
  5  6  1  0  0  0  0
  5 13  1  1  0  0  0
  6  7  1  0  0  0  0
  6 15  1  6  0  0  0
  7  8  1  0  0  0  0
  7 11  1  6  0  0  0
  8 14  1  0  0  0  0
  8 16  1  6  0  0  0
  9 11  1  0  0  0  0
 17 16  1  1  0  0  0
 17 18  1  0  0  0  0
 17 24  1  0  0  0  0
 18 19  1  0  0  0  0
 18 25  1  1  0  0  0
 19 20  1  0  0  0  0
 19 26  1  6  0  0  0
 20 21  1  0  0  0  0
 20 23  1  1  0  0  0
 21 22  1  6  0  0  0
 21 24  1  0  0  0  0
 22 27  1  0  0  0  0
 28 12  1  6  0  0  0
 28 29  1  0  0  0  0
 28 33  1  0  0  0  0
 29 30  1  0  0  0  0
 29 36  1  6  0  0  0
 30 31  1  0  0  0  0
 30 37  1  6  0  0  0
 31 32  1  0  0  0  0
 31 34  1  1  0  0  0
 32 33  1  0  0  0  0
 33 35  1  1  0  0  0
M  END
>  <CHROM.1>
-73.26812925,142.88404071,-144.94015102,-177.15650633,176.37656610,147.27572074
19.73398411,-2.37243658,49.94117319,1.04631454,1.36281363,1.37761619

>  <Name>
2oe5_lig

>  <RI>
0

>  <Rbt.Current_Directory>
/home/itssahil/PROJECTS/Mol_Feturizer/New_Systems/rnas/2oe5

>  <Rbt.Executable>
rbdock ($Id: //depot/dev/client3/rdock/2013.1/src/exe/rbdock.cxx#4 $)

>  <Rbt.Library>
libRbt.so (2013.1, Build901 2013/11/27)

>  <Rbt.Parameter_File>
/export/apps/rDock/src/rDock_2013.1_src/data/scripts/dock_solv.prm

>  <Rbt.Receptor>
prm/pocket_docking_5.prm

>  <SCORE>
-19.5111

>  <SCORE.INTER>
-17.3442

>  <SCORE.INTER.CONST>
1

>  <SCORE.INTER.POLAR>
-2.37111

>  <SCORE.INTER.ROT>
6

>  <SCORE.INTER.SOLV>
13.4133

>  <SCORE.INTER.VDW>
-15.7302

>  <SCORE.INTER.norm>
-0.468763

>  <SCORE.INTRA>
-2.16686

>  <SCORE.INTRA.DIHEDRAL>
-5.76089

>  <SCORE.INTRA.DIHEDRAL.0>
16.2083

>  <SCORE.INTRA.POLAR>
0

>  <SCORE.INTRA.POLAR.0>
0

>  <SCORE.INTRA.REPUL>
0

>  <SCORE.INTRA.REPUL.0>
0

>  <SCORE.INTRA.SOLV>
2.70241

>  <SCORE.INTRA.SOLV.lig_0>
-89.8095

>  <SCORE.INTRA.VDW>
-0.637624

>  <SCORE.INTRA.VDW.0>
-3.19502

>  <SCORE.INTRA.norm>
-0.0585638

>  <SCORE.RESTR>
0

>  <SCORE.RESTR.CAVITY>
0

>  <SCORE.RESTR.norm>
0

>  <SCORE.SYSTEM>
0

>  <SCORE.SYSTEM.CONST>
0

>  <SCORE.SYSTEM.DIHEDRAL>
0

>  <SCORE.SYSTEM.SOLV>
0

>  <SCORE.SYSTEM.norm>
0

>  <SCORE.heavy>
37

>  <SCORE.norm>
-0.527326

>  <RMSD>
4.428

$$$$
2oe5_lig
 OpenBabel11021811463D
libRbt.so/2013.1/901 2013/11/27
 37 40  0  0  0  0  0  0  0  0999 V2000
   22.4514   -2.5353   52.5703 C   0  0  1  0  0  0  0  0  0  0  0  0
   23.4922   -2.7344   51.4459 C   0  0  1  0  0  0  0  0  0  0  0  0
   22.8420   -2.3565   50.0633 C   0  0  0  0  0  0  0  0  0  0  0  0
   21.6284   -3.3008   49.9115 C   0  0  1  0  0  0  0  0  0  0  0  0
   20.5690   -3.0854   51.0809 C   0  0  1  0  0  0  0  0  0  0  0  0
   19.3367   -4.0206   50.9429 C   0  0  1  0  0  0  0  0  0  0  0  0
   18.6833   -3.7057   49.5672 C   0  0  1  0  0  0  0  0  0  0  0  0
   19.7753   -3.8873   48.4458 C   0  0  2  0  0  0  0  0  0  0  0  0
   17.6940   -6.0913   49.1282 C   0  0  0  0  0  0  0  0  0  0  0  0
   24.6708   -1.8711   51.6887 N   0  0  0  0  0  0  0  0  0  0  0  0
   17.4983   -4.6128   49.3276 N   0  0  0  0  0  0  0  0  0  0  0  0
   22.0427   -1.1627   52.6876 O   0  0  0  0  0  0  0  0  0  0  0  0
   21.2408   -3.3425   52.3564 O   0  0  0  0  0  0  0  0  0  0  0  0
   20.9576   -3.0285   48.6519 O   0  0  0  0  0  0  0  0  0  0  0  0
   19.7997   -5.3730   51.0135 O   0  0  0  0  0  0  0  0  0  0  0  0
   19.2340   -3.5478   47.1845 O   0  0  0  0  0  0  0  0  0  0  0  0
   20.0476   -4.0652   46.1484 C   0  0  2  0  0  0  0  0  0  0  0  0
   19.7516   -3.4142   44.7978 C   0  0  1  0  0  0  0  0  0  0  0  0
   18.3051   -3.7299   44.3278 C   0  0  2  0  0  0  0  0  0  0  0  0
   18.1581   -5.2794   44.2709 C   0  0  1  0  0  0  0  0  0  0  0  0
   18.4329   -5.8480   45.7018 C   0  0  1  0  0  0  0  0  0  0  0  0
   18.3681   -7.3582   45.7542 C   0  0  0  0  0  0  0  0  0  0  0  0
   16.7539   -5.5973   43.8114 N   0  0  0  0  0  0  0  0  0  0  0  0
   19.8139   -5.5060   46.0627 O   0  0  0  0  0  0  0  0  0  0  0  0
   19.9428   -1.9937   44.9503 O   0  0  0  0  0  0  0  0  0  0  0  0
   18.1350   -3.1807   43.0085 O   0  0  0  0  0  0  0  0  0  0  0  0
   19.3620   -7.9479   44.9881 O   0  0  0  0  0  0  0  0  0  0  0  0
   21.0578   -0.9299   53.6948 C   0  0  1  0  0  0  0  0  0  0  0  0
   21.7272   -0.9695   55.1151 C   0  0  1  0  0  0  0  0  0  0  0  0
   20.6277   -0.6979   56.2040 C   0  0  2  0  0  0  0  0  0  0  0  0
   20.0112    0.6892   55.9684 C   0  0  1  0  0  0  0  0  0  0  0  0
   19.3269    0.7229   54.5476 C   0  0  0  0  0  0  0  0  0  0  0  0
   20.4273    0.4347   53.4519 C   0  0  2  0  0  0  0  0  0  0  0  0
   19.0097    0.9359   56.9927 N   0  0  0  0  0  0  0  0  0  0  0  0
   19.8172    0.4358   52.0963 N   0  0  0  0  0  0  0  0  0  0  0  0
   22.3138   -2.2832   55.3426 O   0  0  0  0  0  0  0  0  0  0  0  0
   21.2249   -0.7141   57.4734 O   0  0  0  0  0  0  0  0  0  0  0  0
  1  2  1  0  0  0  0
  1 12  1  6  0  0  0
  1 13  1  0  0  0  0
  2  3  1  0  0  0  0
  2 10  1  1  0  0  0
  4  3  1  1  0  0  0
  4  5  1  0  0  0  0
  4 14  1  0  0  0  0
  5  6  1  0  0  0  0
  5 13  1  1  0  0  0
  6  7  1  0  0  0  0
  6 15  1  6  0  0  0
  7  8  1  0  0  0  0
  7 11  1  6  0  0  0
  8 14  1  0  0  0  0
  8 16  1  6  0  0  0
  9 11  1  0  0  0  0
 17 16  1  1  0  0  0
 17 18  1  0  0  0  0
 17 24  1  0  0  0  0
 18 19  1  0  0  0  0
 18 25  1  1  0  0  0
 19 20  1  0  0  0  0
 19 26  1  6  0  0  0
 20 21  1  0  0  0  0
 20 23  1  1  0  0  0
 21 22  1  6  0  0  0
 21 24  1  0  0  0  0
 22 27  1  0  0  0  0
 28 12  1  6  0  0  0
 28 29  1  0  0  0  0
 28 33  1  0  0  0  0
 29 30  1  0  0  0  0
 29 36  1  1  0  0  0
 30 31  1  0  0  0  0
 30 37  1  1  0  0  0
 31 32  1  0  0  0  0
 31 34  1  1  0  0  0
 32 33  1  0  0  0  0
 33 35  1  6  0  0  0
M  END
>  <CHROM.1>
178.68397239,-67.13831943,-163.00696836,-163.79359415,64.34430589,75.79204018
20.12351222,-3.03146807,49.98825863,-1.34711015,-0.15208506,-1.95897070

>  <Name>
2oe5_lig

>  <RI>
0

>  <Rbt.Current_Directory>
/home/itssahil/PROJECTS/Mol_Feturizer/New_Systems/rnas/2oe5

>  <Rbt.Executable>
rbdock ($Id: //depot/dev/client3/rdock/2013.1/src/exe/rbdock.cxx#4 $)

>  <Rbt.Library>
libRbt.so (2013.1, Build901 2013/11/27)

>  <Rbt.Parameter_File>
/export/apps/rDock/src/rDock_2013.1_src/data/scripts/dock_solv.prm

>  <Rbt.Receptor>
prm/pocket_docking_8.prm

>  <SCORE>
-24.7261

>  <SCORE.INTER>
-19.1442

>  <SCORE.INTER.CONST>
1

>  <SCORE.INTER.POLAR>
-2.51394

>  <SCORE.INTER.ROT>
6

>  <SCORE.INTER.SOLV>
13.711

>  <SCORE.INTER.VDW>
-16.5533

>  <SCORE.INTER.norm>
-0.517411

>  <SCORE.INTRA>
-5.58188

>  <SCORE.INTRA.DIHEDRAL>
-12.2944

>  <SCORE.INTRA.DIHEDRAL.0>
16.2083

>  <SCORE.INTRA.POLAR>
0

>  <SCORE.INTRA.POLAR.0>
0

>  <SCORE.INTRA.REPUL>
0

>  <SCORE.INTRA.REPUL.0>
0

>  <SCORE.INTRA.SOLV>
-1.77629

>  <SCORE.INTRA.SOLV.lig_0>
-89.8095

>  <SCORE.INTRA.VDW>
1.45348

>  <SCORE.INTRA.VDW.0>
-3.19502

>  <SCORE.INTRA.norm>
-0.150862

>  <SCORE.RESTR>
0

>  <SCORE.RESTR.CAVITY>
0

>  <SCORE.RESTR.norm>
0

>  <SCORE.SYSTEM>
0

>  <SCORE.SYSTEM.CONST>
0

>  <SCORE.SYSTEM.DIHEDRAL>
0

>  <SCORE.SYSTEM.SOLV>
0

>  <SCORE.SYSTEM.norm>
0

>  <SCORE.heavy>
37

>  <SCORE.norm>
-0.668272

>  <RMSD>
4.452

$$$$
2oe5_lig
 OpenBabel11021811463D
libRbt.so/2013.1/901 2013/11/27
 37 40  0  0  0  0  0  0  0  0999 V2000
   21.0292   -1.6911   52.9398 C   0  0  1  0  0  0  0  0  0  0  0  0
   22.1081   -1.4356   51.8637 C   0  0  1  0  0  0  0  0  0  0  0  0
   21.4520   -1.5347   50.4365 C   0  0  0  0  0  0  0  0  0  0  0  0
   20.8696   -2.9635   50.3536 C   0  0  1  0  0  0  0  0  0  0  0  0
   19.7635   -3.2107   51.4724 C   0  0  1  0  0  0  0  0  0  0  0  0
   19.1594   -4.6399   51.4021 C   0  0  1  0  0  0  0  0  0  0  0  0
   18.5309   -4.7946   49.9880 C   0  0  1  0  0  0  0  0  0  0  0  0
   19.6456   -4.4985   48.9142 C   0  0  2  0  0  0  0  0  0  0  0  0
   16.8147   -6.4289   48.8716 C   0  0  0  0  0  0  0  0  0  0  0  0
   22.6936   -0.0872   52.0444 N   0  0  0  0  0  0  0  0  0  0  0  0
   17.9611   -6.1838   49.8147 N   0  0  0  0  0  0  0  0  0  0  0  0
   19.9940   -0.6949   52.9104 O   0  0  0  0  0  0  0  0  0  0  0  0
   20.3865   -3.0044   52.7815 O   0  0  0  0  0  0  0  0  0  0  0  0
   20.2389   -3.1550   49.0589 O   0  0  0  0  0  0  0  0  0  0  0  0
   20.2191   -5.5774   51.6176 O   0  0  0  0  0  0  0  0  0  0  0  0
   19.0946   -4.5679   47.6139 O   0  0  0  0  0  0  0  0  0  0  0  0
   20.1270   -4.6608   46.6503 C   0  0  2  0  0  0  0  0  0  0  0  0
   20.2101   -3.4168   45.7665 C   0  0  1  0  0  0  0  0  0  0  0  0
   18.9216   -3.2458   44.9159 C   0  0  2  0  0  0  0  0  0  0  0  0
   18.7385   -4.5445   44.0758 C   0  0  1  0  0  0  0  0  0  0  0  0
   18.6174   -5.7511   45.0636 C   0  0  1  0  0  0  0  0  0  0  0  0
   18.4872   -7.0795   44.3524 C   0  0  0  0  0  0  0  0  0  0  0  0
   17.4880   -4.3871   43.2418 N   0  0  0  0  0  0  0  0  0  0  0  0
   19.8714   -5.8379   45.8214 O   0  0  0  0  0  0  0  0  0  0  0  0
   20.4068   -2.2819   46.6332 O   0  0  0  0  0  0  0  0  0  0  0  0
   19.1145   -2.1247   44.0345 O   0  0  0  0  0  0  0  0  0  0  0  0
   18.3694   -8.1362   45.2424 O   0  0  0  0  0  0  0  0  0  0  0  0
   20.3088    0.4967   53.6312 C   0  0  1  0  0  0  0  0  0  0  0  0
   19.9370    1.7558   52.7690 C   0  0  1  0  0  0  0  0  0  0  0  0
   20.2795    3.0525   53.5874 C   0  0  2  0  0  0  0  0  0  0  0  0
   19.4610    3.0638   54.8873 C   0  0  1  0  0  0  0  0  0  0  0  0
   19.8458    1.8064   55.7585 C   0  0  0  0  0  0  0  0  0  0  0  0
   19.5169    0.5014   54.9319 C   0  0  2  0  0  0  0  0  0  0  0  0
   19.7726    4.2766   55.6256 N   0  0  0  0  0  0  0  0  0  0  0  0
   19.8868   -0.7091   55.7114 N   0  0  0  0  0  0  0  0  0  0  0  0
   20.7106    1.7489   51.5349 O   0  0  0  0  0  0  0  0  0  0  0  0
   19.9318    4.1798   52.8281 O   0  0  0  0  0  0  0  0  0  0  0  0
  1  2  1  0  0  0  0
  1 12  1  6  0  0  0
  1 13  1  0  0  0  0
  2  3  1  0  0  0  0
  2 10  1  1  0  0  0
  4  3  1  6  0  0  0
  4  5  1  0  0  0  0
  4 14  1  0  0  0  0
  5  6  1  0  0  0  0
  5 13  1  1  0  0  0
  6  7  1  0  0  0  0
  6 15  1  6  0  0  0
  7  8  1  0  0  0  0
  7 11  1  6  0  0  0
  8 14  1  0  0  0  0
  8 16  1  6  0  0  0
  9 11  1  0  0  0  0
 17 16  1  1  0  0  0
 17 18  1  0  0  0  0
 17 24  1  0  0  0  0
 18 19  1  0  0  0  0
 18 25  1  1  0  0  0
 19 20  1  0  0  0  0
 19 26  1  6  0  0  0
 20 21  1  0  0  0  0
 20 23  1  1  0  0  0
 21 22  1  6  0  0  0
 21 24  1  0  0  0  0
 22 27  1  0  0  0  0
 28 12  1  6  0  0  0
 28 29  1  0  0  0  0
 28 33  1  0  0  0  0
 29 30  1  0  0  0  0
 29 36  1  6  0  0  0
 30 31  1  0  0  0  0
 30 37  1  6  0  0  0
 31 32  1  0  0  0  0
 31 34  1  1  0  0  0
 32 33  1  0  0  0  0
 33 35  1  1  0  0  0
M  END
>  <CHROM.1>
-83.65237069,152.67096695,-164.42280980,-113.02506289,-179.48338509,134.21533520
19.72461674,-2.34740596,49.93125295,0.48771010,1.42354021,1.95875675

>  <Name>
2oe5_lig

>  <RI>
0

>  <Rbt.Current_Directory>
/home/itssahil/PROJECTS/Mol_Feturizer/New_Systems/rnas/2oe5

>  <Rbt.Executable>
rbdock ($Id: //depot/dev/client3/rdock/2013.1/src/exe/rbdock.cxx#4 $)

>  <Rbt.Library>
libRbt.so (2013.1, Build901 2013/11/27)

>  <Rbt.Parameter_File>
/export/apps/rDock/src/rDock_2013.1_src/data/scripts/dock_solv.prm

>  <Rbt.Receptor>
prm/pocket_docking_5.prm

>  <SCORE>
-16.1593

>  <SCORE.INTER>
-16.5792

>  <SCORE.INTER.CONST>
1

>  <SCORE.INTER.POLAR>
-1.29771

>  <SCORE.INTER.ROT>
6

>  <SCORE.INTER.SOLV>
14.7593

>  <SCORE.INTER.VDW>
-19.2468

>  <SCORE.INTER.norm>
-0.448085

>  <SCORE.INTRA>
0.419899

>  <SCORE.INTRA.DIHEDRAL>
1.1239

>  <SCORE.INTRA.DIHEDRAL.0>
16.2083

>  <SCORE.INTRA.POLAR>
0

>  <SCORE.INTRA.POLAR.0>
0

>  <SCORE.INTRA.REPUL>
0

>  <SCORE.INTRA.REPUL.0>
0

>  <SCORE.INTRA.SOLV>
0.555539

>  <SCORE.INTRA.SOLV.lig_0>
-89.8095

>  <SCORE.INTRA.VDW>
-0.419819

>  <SCORE.INTRA.VDW.0>
-3.19502

>  <SCORE.INTRA.norm>
0.0113486

>  <SCORE.RESTR>
0

>  <SCORE.RESTR.CAVITY>
0

>  <SCORE.RESTR.norm>
0

>  <SCORE.SYSTEM>
0

>  <SCORE.SYSTEM.CONST>
0

>  <SCORE.SYSTEM.DIHEDRAL>
0

>  <SCORE.SYSTEM.SOLV>
0

>  <SCORE.SYSTEM.norm>
0

>  <SCORE.heavy>
37

>  <SCORE.norm>
-0.436737

>  <RMSD>
4.468

$$$$
2oe5_lig
 OpenBabel11021811463D
libRbt.so/2013.1/901 2013/11/27
 37 40  0  0  0  0  0  0  0  0999 V2000
   21.4065   -1.4767   52.6127 C   0  0  1  0  0  0  0  0  0  0  0  0
   20.4307   -2.3722   51.8170 C   0  0  1  0  0  0  0  0  0  0  0  0
   21.0689   -3.7989   51.6314 C   0  0  0  0  0  0  0  0  0  0  0  0
   22.3931   -3.5577   50.8725 C   0  0  1  0  0  0  0  0  0  0  0  0
   23.3841   -2.6293   51.7045 C   0  0  1  0  0  0  0  0  0  0  0  0
   24.7253   -2.3802   50.9621 C   0  0  1  0  0  0  0  0  0  0  0  0
   25.3743   -3.7733   50.7237 C   0  0  1  0  0  0  0  0  0  0  0  0
   24.3454   -4.6724   49.9386 C   0  0  2  0  0  0  0  0  0  0  0  0
   27.8336   -2.8867   50.5545 C   0  0  0  0  0  0  0  0  0  0  0  0
   19.1485   -2.4971   52.5477 N   0  0  0  0  0  0  0  0  0  0  0  0
   26.6681   -3.6266   49.9561 N   0  0  0  0  0  0  0  0  0  0  0  0
   21.6400   -1.9809   53.9379 O   0  0  0  0  0  0  0  0  0  0  0  0
   22.7127   -1.3511   51.9486 O   0  0  0  0  0  0  0  0  0  0  0  0
   23.0612   -4.8283   50.6487 O   0  0  0  0  0  0  0  0  0  0  0  0
   24.4302   -1.7142   49.7302 O   0  0  0  0  0  0  0  0  0  0  0  0
   24.8769   -5.9701   49.7582 O   0  0  0  0  0  0  0  0  0  0  0  0
   25.0715   -6.2312   48.3808 C   0  0  2  0  0  0  0  0  0  0  0  0
   23.7604   -6.5349   47.6566 C   0  0  1  0  0  0  0  0  0  0  0  0
   23.1116   -7.8398   48.1945 C   0  0  2  0  0  0  0  0  0  0  0  0
   24.1510   -8.9866   48.0206 C   0  0  1  0  0  0  0  0  0  0  0  0
   25.4344   -8.6084   48.8307 C   0  0  1  0  0  0  0  0  0  0  0  0
   26.5381   -9.6330   48.6911 C   0  0  0  0  0  0  0  0  0  0  0  0
   23.5278  -10.2623   48.5388 N   0  0  0  0  0  0  0  0  0  0  0  0
   25.9783   -7.3715   48.2574 O   0  0  0  0  0  0  0  0  0  0  0  0
   22.8847   -5.4073   47.8546 O   0  0  0  0  0  0  0  0  0  0  0  0
   21.9466   -8.1200   47.3974 O   0  0  0  0  0  0  0  0  0  0  0  0
   27.6091   -9.3604   49.5285 O   0  0  0  0  0  0  0  0  0  0  0  0
   21.7053   -0.9706   54.9447 C   0  0  1  0  0  0  0  0  0  0  0  0
   20.2563   -0.6020   55.4256 C   0  0  1  0  0  0  0  0  0  0  0  0
   20.3549    0.5001   56.5410 C   0  0  2  0  0  0  0  0  0  0  0  0
   21.1626   -0.0484   57.7270 C   0  0  1  0  0  0  0  0  0  0  0  0
   22.6219   -0.4048   57.2457 C   0  0  0  0  0  0  0  0  0  0  0  0
   22.5248   -1.5014   56.1133 C   0  0  2  0  0  0  0  0  0  0  0  0
   21.2304    0.9732   58.7589 N   0  0  0  0  0  0  0  0  0  0  0  0
   23.8816   -1.8498   55.6158 N   0  0  0  0  0  0  0  0  0  0  0  0
   19.4864   -0.0819   54.3039 O   0  0  0  0  0  0  0  0  0  0  0  0
   19.0634    0.8191   56.9866 O   0  0  0  0  0  0  0  0  0  0  0  0
  1  2  1  0  0  0  0
  1 12  1  1  0  0  0
  1 13  1  0  0  0  0
  2  3  1  0  0  0  0
  2 10  1  1  0  0  0
  4  3  1  1  0  0  0
  4  5  1  0  0  0  0
  4 14  1  0  0  0  0
  5  6  1  0  0  0  0
  5 13  1  6  0  0  0
  6  7  1  0  0  0  0
  6 15  1  6  0  0  0
  7  8  1  0  0  0  0
  7 11  1  6  0  0  0
  8 14  1  0  0  0  0
  8 16  1  1  0  0  0
  9 11  1  0  0  0  0
 17 16  1  1  0  0  0
 17 18  1  0  0  0  0
 17 24  1  0  0  0  0
 18 19  1  0  0  0  0
 18 25  1  1  0  0  0
 19 20  1  0  0  0  0
 19 26  1  6  0  0  0
 20 21  1  0  0  0  0
 20 23  1  1  0  0  0
 21 22  1  6  0  0  0
 21 24  1  0  0  0  0
 22 27  1  0  0  0  0
 28 12  1  6  0  0  0
 28 29  1  0  0  0  0
 28 33  1  0  0  0  0
 29 30  1  0  0  0  0
 29 36  1  6  0  0  0
 30 31  1  0  0  0  0
 30 37  1  1  0  0  0
 31 32  1  0  0  0  0
 31 34  1  1  0  0  0
 32 33  1  0  0  0  0
 33 35  1  6  0  0  0
M  END
>  <CHROM.1>
-140.08681755,63.87767441,-115.68894074,-75.95611058,-173.32856605,84.04519305
23.14300084,-3.82904042,51.70211610,1.93545659,-0.01300883,0.79121501

>  <Name>
2oe5_lig

>  <RI>
0

>  <Rbt.Current_Directory>
/home/itssahil/PROJECTS/Mol_Feturizer/New_Systems/rnas/2oe5

>  <Rbt.Executable>
rbdock ($Id: //depot/dev/client3/rdock/2013.1/src/exe/rbdock.cxx#4 $)

>  <Rbt.Library>
libRbt.so (2013.1, Build901 2013/11/27)

>  <Rbt.Parameter_File>
/export/apps/rDock/src/rDock_2013.1_src/data/scripts/dock_solv.prm

>  <Rbt.Receptor>
prm/pocket_docking_7.prm

>  <SCORE>
-15.5373

>  <SCORE.INTER>
-16.1502

>  <SCORE.INTER.CONST>
1

>  <SCORE.INTER.POLAR>
-1.42778

>  <SCORE.INTER.ROT>
6

>  <SCORE.INTER.SOLV>
15.4008

>  <SCORE.INTER.VDW>
-18.7412

>  <SCORE.INTER.norm>
-0.436493

>  <SCORE.INTRA>
0.557691

>  <SCORE.INTRA.DIHEDRAL>
0.103265

>  <SCORE.INTRA.DIHEDRAL.0>
16.2083

>  <SCORE.INTRA.POLAR>
0

>  <SCORE.INTRA.POLAR.0>
0

>  <SCORE.INTRA.REPUL>
0

>  <SCORE.INTRA.REPUL.0>
0

>  <SCORE.INTRA.SOLV>
-0.617517

>  <SCORE.INTRA.SOLV.lig_0>
-89.8095

>  <SCORE.INTRA.VDW>
0.814817

>  <SCORE.INTRA.VDW.0>
-3.19502

>  <SCORE.INTRA.norm>
0.0150727

>  <SCORE.RESTR>
0.055301

>  <SCORE.RESTR.CAVITY>
0.055301

>  <SCORE.RESTR.norm>
0.00149462

>  <SCORE.SYSTEM>
0

>  <SCORE.SYSTEM.CONST>
0

>  <SCORE.SYSTEM.DIHEDRAL>
0

>  <SCORE.SYSTEM.SOLV>
0

>  <SCORE.SYSTEM.norm>
0

>  <SCORE.heavy>
37

>  <SCORE.norm>
-0.419926

>  <RMSD>
4.484

$$$$
2oe5_lig
 OpenBabel11021811463D
libRbt.so/2013.1/901 2013/11/27
 37 40  0  0  0  0  0  0  0  0999 V2000
   20.4926   -1.7061   52.9662 C   0  0  1  0  0  0  0  0  0  0  0  0
   21.8150   -1.5875   52.1760 C   0  0  1  0  0  0  0  0  0  0  0  0
   21.4923   -1.4381   50.6428 C   0  0  0  0  0  0  0  0  0  0  0  0
   20.6981   -2.7091   50.2673 C   0  0  1  0  0  0  0  0  0  0  0  0
   19.3414   -2.8174   51.0943 C   0  0  1  0  0  0  0  0  0  0  0  0
   18.5235   -4.0855   50.7264 C   0  0  1  0  0  0  0  0  0  0  0  0
   18.2143   -3.9969   49.2048 C   0  0  1  0  0  0  0  0  0  0  0  0
   19.5777   -3.8461   48.4292 C   0  0  2  0  0  0  0  0  0  0  0  0
   16.3674   -5.1137   47.7200 C   0  0  0  0  0  0  0  0  0  0  0  0
   22.5757   -0.4035   52.6373 N   0  0  0  0  0  0  0  0  0  0  0  0
   17.4597   -5.2246   48.7489 N   0  0  0  0  0  0  0  0  0  0  0  0
   19.6862   -0.5228   52.8453 O   0  0  0  0  0  0  0  0  0  0  0  0
   19.6782   -2.8461   52.5191 O   0  0  0  0  0  0  0  0  0  0  0  0
   20.3533   -2.6655   48.8566 O   0  0  0  0  0  0  0  0  0  0  0  0
   19.3216   -5.2312   51.0401 O   0  0  0  0  0  0  0  0  0  0  0  0
   19.3324   -3.6989   47.0445 O   0  0  0  0  0  0  0  0  0  0  0  0
   20.3759   -4.2955   46.2974 C   0  0  2  0  0  0  0  0  0  0  0  0
   20.2699   -3.9882   44.8041 C   0  0  1  0  0  0  0  0  0  0  0  0
   18.9789   -4.6014   44.1954 C   0  0  2  0  0  0  0  0  0  0  0  0
   19.0116   -6.1336   44.4727 C   0  0  1  0  0  0  0  0  0  0  0  0
   19.0731   -6.3477   46.0208 C   0  0  1  0  0  0  0  0  0  0  0  0
   19.1614   -7.8073   46.4072 C   0  0  0  0  0  0  0  0  0  0  0  0
   17.7602   -6.7406   43.8814 N   0  0  0  0  0  0  0  0  0  0  0  0
   20.3176   -5.7412   46.5084 O   0  0  0  0  0  0  0  0  0  0  0  0
   20.2763   -2.5546   44.6552 O   0  0  0  0  0  0  0  0  0  0  0  0
   19.0009   -4.3678   42.7755 O   0  0  0  0  0  0  0  0  0  0  0  0
   19.1408   -7.9830   47.7824 O   0  0  0  0  0  0  0  0  0  0  0  0
   20.1654    0.5908   53.5995 C   0  0  1  0  0  0  0  0  0  0  0  0
   19.8806    1.9248   52.8208 C   0  0  1  0  0  0  0  0  0  0  0  0
   20.4040    3.1349   53.6753 C   0  0  2  0  0  0  0  0  0  0  0  0
   19.6662    3.1623   55.0224 C   0  0  1  0  0  0  0  0  0  0  0  0
   19.9647    1.8282   55.8093 C   0  0  0  0  0  0  0  0  0  0  0  0
   19.4535    0.6089   54.9454 C   0  0  2  0  0  0  0  0  0  0  0  0
   20.1456    4.2964   55.7951 N   0  0  0  0  0  0  0  0  0  0  0  0
   19.7369   -0.6723   55.6440 N   0  0  0  0  0  0  0  0  0  0  0  0
   20.5779    1.9030   51.5422 O   0  0  0  0  0  0  0  0  0  0  0  0
   20.1349    4.3301   52.9917 O   0  0  0  0  0  0  0  0  0  0  0  0
  1  2  1  0  0  0  0
  1 12  1  6  0  0  0
  1 13  1  0  0  0  0
  2  3  1  0  0  0  0
  2 10  1  1  0  0  0
  4  3  1  1  0  0  0
  4  5  1  0  0  0  0
  4 14  1  0  0  0  0
  5  6  1  0  0  0  0
  5 13  1  1  0  0  0
  6  7  1  0  0  0  0
  6 15  1  6  0  0  0
  7  8  1  0  0  0  0
  7 11  1  6  0  0  0
  8 14  1  0  0  0  0
  8 16  1  6  0  0  0
  9 11  1  0  0  0  0
 17 16  1  1  0  0  0
 17 18  1  0  0  0  0
 17 24  1  0  0  0  0
 18 19  1  0  0  0  0
 18 25  1  1  0  0  0
 19 20  1  0  0  0  0
 19 26  1  6  0  0  0
 20 21  1  0  0  0  0
 20 23  1  1  0  0  0
 21 22  1  6  0  0  0
 21 24  1  0  0  0  0
 22 27  1  0  0  0  0
 28 12  1  6  0  0  0
 28 29  1  0  0  0  0
 28 33  1  0  0  0  0
 29 30  1  0  0  0  0
 29 36  1  6  0  0  0
 30 31  1  0  0  0  0
 30 37  1  6  0  0  0
 31 32  1  0  0  0  0
 31 34  1  1  0  0  0
 32 33  1  0  0  0  0
 33 35  1  1  0  0  0
M  END
>  <CHROM.1>
-74.21206859,142.51613641,-146.96381781,-171.54702793,-176.68740712,145.09430203
19.68316005,-2.38557107,49.85907613,1.06752657,1.34664277,1.35278777

>  <Name>
2oe5_lig

>  <RI>
0

>  <Rbt.Current_Directory>
/home/itssahil/PROJECTS/Mol_Feturizer/New_Systems/rnas/2oe5

>  <Rbt.Executable>
rbdock ($Id: //depot/dev/client3/rdock/2013.1/src/exe/rbdock.cxx#4 $)

>  <Rbt.Library>
libRbt.so (2013.1, Build901 2013/11/27)

>  <Rbt.Parameter_File>
/export/apps/rDock/src/rDock_2013.1_src/data/scripts/dock_solv.prm

>  <Rbt.Receptor>
prm/pocket_docking_5.prm

>  <SCORE>
-19.5428

>  <SCORE.INTER>
-17.1504

>  <SCORE.INTER.CONST>
1

>  <SCORE.INTER.POLAR>
-2.28442

>  <SCORE.INTER.ROT>
6

>  <SCORE.INTER.SOLV>
13.9695

>  <SCORE.INTER.VDW>
-16.0754

>  <SCORE.INTER.norm>
-0.463524

>  <SCORE.INTRA>
-2.3924

>  <SCORE.INTRA.DIHEDRAL>
-5.30871

>  <SCORE.INTRA.DIHEDRAL.0>
16.2083

>  <SCORE.INTRA.POLAR>
0

>  <SCORE.INTRA.POLAR.0>
0

>  <SCORE.INTRA.REPUL>
0

>  <SCORE.INTRA.REPUL.0>
0

>  <SCORE.INTRA.SOLV>
2.18559

>  <SCORE.INTRA.SOLV.lig_0>
-89.8095

>  <SCORE.INTRA.VDW>
-0.830842

>  <SCORE.INTRA.VDW.0>
-3.19502

>  <SCORE.INTRA.norm>
-0.0646595

>  <SCORE.RESTR>
0

>  <SCORE.RESTR.CAVITY>
0

>  <SCORE.RESTR.norm>
0

>  <SCORE.SYSTEM>
0

>  <SCORE.SYSTEM.CONST>
0

>  <SCORE.SYSTEM.DIHEDRAL>
0

>  <SCORE.SYSTEM.SOLV>
0

>  <SCORE.SYSTEM.norm>
0

>  <SCORE.heavy>
37

>  <SCORE.norm>
-0.528183

>  <RMSD>
4.496

$$$$
2oe5_lig
 OpenBabel11021811463D
libRbt.so/2013.1/901 2013/11/27
 37 40  0  0  0  0  0  0  0  0999 V2000
   20.4695   -1.7869   52.9257 C   0  0  1  0  0  0  0  0  0  0  0  0
   21.7859   -1.6542   52.1276 C   0  0  1  0  0  0  0  0  0  0  0  0
   21.4521   -1.4990   50.5973 C   0  0  0  0  0  0  0  0  0  0  0  0
   20.6649   -2.7739   50.2201 C   0  0  1  0  0  0  0  0  0  0  0  0
   19.3145   -2.8969   51.0554 C   0  0  1  0  0  0  0  0  0  0  0  0
   18.5037   -4.1690   50.6859 C   0  0  1  0  0  0  0  0  0  0  0  0
   18.1840   -4.0746   49.1669 C   0  0  1  0  0  0  0  0  0  0  0  0
   19.5411   -3.9094   48.3833 C   0  0  2  0  0  0  0  0  0  0  0  0
   16.3216   -5.1946   47.7040 C   0  0  0  0  0  0  0  0  0  0  0  0
   22.5406   -0.4669   52.5904 N   0  0  0  0  0  0  0  0  0  0  0  0
   17.4356   -5.3055   48.7093 N   0  0  0  0  0  0  0  0  0  0  0  0
   19.6536   -0.6091   52.8165 O   0  0  0  0  0  0  0  0  0  0  0  0
   19.6609   -2.9307   52.4777 O   0  0  0  0  0  0  0  0  0  0  0  0
   20.3105   -2.7253   48.8120 O   0  0  0  0  0  0  0  0  0  0  0  0
   19.3124   -5.3104   50.9883 O   0  0  0  0  0  0  0  0  0  0  0  0
   19.2856   -3.7566   47.0010 O   0  0  0  0  0  0  0  0  0  0  0  0
   20.3269   -4.3444   46.2439 C   0  0  2  0  0  0  0  0  0  0  0  0
   20.2384   -3.9883   44.7604 C   0  0  1  0  0  0  0  0  0  0  0  0
   18.9442   -4.5629   44.1217 C   0  0  2  0  0  0  0  0  0  0  0  0
   18.9525   -6.1035   44.3503 C   0  0  1  0  0  0  0  0  0  0  0  0
   18.9974   -6.3675   45.8912 C   0  0  1  0  0  0  0  0  0  0  0  0
   19.0615   -7.8398   46.2315 C   0  0  0  0  0  0  0  0  0  0  0  0
   17.6978   -6.6730   43.7295 N   0  0  0  0  0  0  0  0  0  0  0  0
   20.2462   -5.7950   46.4081 O   0  0  0  0  0  0  0  0  0  0  0  0
   20.2666   -2.5508   44.6574 O   0  0  0  0  0  0  0  0  0  0  0  0
   18.9819   -4.2846   42.7103 O   0  0  0  0  0  0  0  0  0  0  0  0
   20.1990   -8.4431   45.7171 O   0  0  0  0  0  0  0  0  0  0  0  0
   20.1476    0.5142   53.5463 C   0  0  1  0  0  0  0  0  0  0  0  0
   19.8787    1.8348   52.7397 C   0  0  1  0  0  0  0  0  0  0  0  0
   20.4183    3.0561   53.5678 C   0  0  2  0  0  0  0  0  0  0  0  0
   19.6825    3.1214   54.9146 C   0  0  1  0  0  0  0  0  0  0  0  0
   19.9652    1.8007   55.7295 C   0  0  0  0  0  0  0  0  0  0  0  0
   19.4376    0.5699   54.8922 C   0  0  2  0  0  0  0  0  0  0  0  0
   20.1771    4.2655   55.6626 N   0  0  0  0  0  0  0  0  0  0  0  0
   19.7057   -0.6996   55.6177 N   0  0  0  0  0  0  0  0  0  0  0  0
   20.5741    1.7770   51.4612 O   0  0  0  0  0  0  0  0  0  0  0  0
   20.1634    4.2397   52.8591 O   0  0  0  0  0  0  0  0  0  0  0  0
  1  2  1  0  0  0  0
  1 12  1  6  0  0  0
  1 13  1  0  0  0  0
  2  3  1  0  0  0  0
  2 10  1  1  0  0  0
  4  3  1  1  0  0  0
  4  5  1  0  0  0  0
  4 14  1  0  0  0  0
  5  6  1  0  0  0  0
  5 13  1  1  0  0  0
  6  7  1  0  0  0  0
  6 15  1  6  0  0  0
  7  8  1  0  0  0  0
  7 11  1  6  0  0  0
  8 14  1  0  0  0  0
  8 16  1  6  0  0  0
  9 11  1  0  0  0  0
 17 16  1  1  0  0  0
 17 18  1  0  0  0  0
 17 24  1  0  0  0  0
 18 19  1  0  0  0  0
 18 25  1  1  0  0  0
 19 20  1  0  0  0  0
 19 26  1  6  0  0  0
 20 21  1  0  0  0  0
 20 23  1  1  0  0  0
 21 22  1  6  0  0  0
 21 24  1  0  0  0  0
 22 27  1  0  0  0  0
 28 12  1  6  0  0  0
 28 29  1  0  0  0  0
 28 33  1  0  0  0  0
 29 30  1  0  0  0  0
 29 36  1  6  0  0  0
 30 31  1  0  0  0  0
 30 37  1  6  0  0  0
 31 32  1  0  0  0  0
 31 34  1  1  0  0  0
 32 33  1  0  0  0  0
 33 35  1  1  0  0  0
M  END
>  <CHROM.1>
-72.70235865,141.56429276,-146.81651362,-169.45238403,61.05592868,143.11159942
19.68903774,-2.44646237,49.73111912,1.05666805,1.36670727,1.37234869

>  <Name>
2oe5_lig

>  <RI>
0

>  <Rbt.Current_Directory>
/home/itssahil/PROJECTS/Mol_Feturizer/New_Systems/rnas/2oe5

>  <Rbt.Executable>
rbdock ($Id: //depot/dev/client3/rdock/2013.1/src/exe/rbdock.cxx#4 $)

>  <Rbt.Library>
libRbt.so (2013.1, Build901 2013/11/27)

>  <Rbt.Parameter_File>
/export/apps/rDock/src/rDock_2013.1_src/data/scripts/dock_solv.prm

>  <Rbt.Receptor>
prm/pocket_docking_5.prm

>  <SCORE>
-19.222

>  <SCORE.INTER>
-17.3987

>  <SCORE.INTER.CONST>
1

>  <SCORE.INTER.POLAR>
-2.23113

>  <SCORE.INTER.ROT>
6

>  <SCORE.INTER.SOLV>
14.4803

>  <SCORE.INTER.VDW>
-16.5888

>  <SCORE.INTER.norm>
-0.470234

>  <SCORE.INTRA>
-1.82332

>  <SCORE.INTRA.DIHEDRAL>
-4.92559

>  <SCORE.INTRA.DIHEDRAL.0>
16.2083

>  <SCORE.INTRA.POLAR>
0

>  <SCORE.INTRA.POLAR.0>
0

>  <SCORE.INTRA.REPUL>
0

>  <SCORE.INTRA.REPUL.0>
0

>  <SCORE.INTRA.SOLV>
2.303

>  <SCORE.INTRA.SOLV.lig_0>
-89.8095

>  <SCORE.INTRA.VDW>
-0.512027

>  <SCORE.INTRA.VDW.0>
-3.19502

>  <SCORE.INTRA.norm>
-0.049279

>  <SCORE.RESTR>
0

>  <SCORE.RESTR.CAVITY>
0

>  <SCORE.RESTR.norm>
0

>  <SCORE.SYSTEM>
0

>  <SCORE.SYSTEM.CONST>
0

>  <SCORE.SYSTEM.DIHEDRAL>
0

>  <SCORE.SYSTEM.SOLV>
0

>  <SCORE.SYSTEM.norm>
0

>  <SCORE.heavy>
37

>  <SCORE.norm>
-0.519513

>  <RMSD>
4.529

$$$$
2oe5_lig
 OpenBabel11021811463D
libRbt.so/2013.1/901 2013/11/27
 37 40  0  0  0  0  0  0  0  0999 V2000
   22.2632   -2.1514   52.4484 C   0  0  1  0  0  0  0  0  0  0  0  0
   23.3762   -2.6697   51.5105 C   0  0  1  0  0  0  0  0  0  0  0  0
   22.9288   -2.4719   50.0145 C   0  0  0  0  0  0  0  0  0  0  0  0
   21.6190   -3.2789   49.8704 C   0  0  1  0  0  0  0  0  0  0  0  0
   20.4853   -2.7344   50.8474 C   0  0  1  0  0  0  0  0  0  0  0  0
   19.1569   -3.5279   50.7130 C   0  0  1  0  0  0  0  0  0  0  0  0
   18.6969   -3.3899   49.2338 C   0  0  1  0  0  0  0  0  0  0  0  0
   19.8625   -3.8966   48.3022 C   0  0  2  0  0  0  0  0  0  0  0  0
   16.8438   -4.2982   47.6202 C   0  0  0  0  0  0  0  0  0  0  0  0
   24.6312   -1.9214   51.7527 N   0  0  0  0  0  0  0  0  0  0  0  0
   17.4294   -4.1797   49.0011 N   0  0  0  0  0  0  0  0  0  0  0  0
   22.0370   -0.7416   52.2866 O   0  0  0  0  0  0  0  0  0  0  0  0
   20.9815   -2.8359   52.2213 O   0  0  0  0  0  0  0  0  0  0  0  0
   21.1242   -3.1598   48.5096 O   0  0  0  0  0  0  0  0  0  0  0  0
   19.4201   -4.8906   51.0622 O   0  0  0  0  0  0  0  0  0  0  0  0
   19.5047   -3.7274   46.9448 O   0  0  0  0  0  0  0  0  0  0  0  0
   20.4518   -4.3630   46.1070 C   0  0  2  0  0  0  0  0  0  0  0  0
   20.1965   -4.0844   44.6262 C   0  0  1  0  0  0  0  0  0  0  0  0
   18.8367   -4.6805   44.1695 C   0  0  2  0  0  0  0  0  0  0  0  0
   18.8668   -6.2070   44.4771 C   0  0  1  0  0  0  0  0  0  0  0  0
   19.0855   -6.3903   46.0149 C   0  0  1  0  0  0  0  0  0  0  0  0
   19.1838   -7.8431   46.4234 C   0  0  0  0  0  0  0  0  0  0  0  0
   17.5482   -6.7975   44.0334 N   0  0  0  0  0  0  0  0  0  0  0  0
   20.3864   -5.8023   46.3561 O   0  0  0  0  0  0  0  0  0  0  0  0
   20.2167   -2.6547   44.4445 O   0  0  0  0  0  0  0  0  0  0  0  0
   18.7147   -4.4770   42.7501 O   0  0  0  0  0  0  0  0  0  0  0  0
   19.3191   -7.9891   47.7957 O   0  0  0  0  0  0  0  0  0  0  0  0
   20.8671   -0.2575   52.9467 C   0  0  1  0  0  0  0  0  0  0  0  0
   21.2384    0.2513   54.3855 C   0  0  1  0  0  0  0  0  0  0  0  0
   19.9394    0.7904   55.0858 C   0  0  2  0  0  0  0  0  0  0  0  0
   19.3655    1.9548   54.2645 C   0  0  1  0  0  0  0  0  0  0  0  0
   18.9799    1.4390   52.8246 C   0  0  0  0  0  0  0  0  0  0  0  0
   20.2813    0.8821   52.1241 C   0  0  2  0  0  0  0  0  0  0  0  0
   18.1758    2.4564   54.9325 N   0  0  0  0  0  0  0  0  0  0  0  0
   19.9558    0.3645   50.7691 N   0  0  0  0  0  0  0  0  0  0  0  0
   21.7836   -0.8497   55.1679 O   0  0  0  0  0  0  0  0  0  0  0  0
   20.2698    1.2630   56.3648 O   0  0  0  0  0  0  0  0  0  0  0  0
  1  2  1  0  0  0  0
  1 12  1  6  0  0  0
  1 13  1  0  0  0  0
  2  3  1  0  0  0  0
  2 10  1  6  0  0  0
  4  3  1  6  0  0  0
  4  5  1  0  0  0  0
  4 14  1  0  0  0  0
  5  6  1  0  0  0  0
  5 13  1  1  0  0  0
  6  7  1  0  0  0  0
  6 15  1  6  0  0  0
  7  8  1  0  0  0  0
  7 11  1  1  0  0  0
  8 14  1  0  0  0  0
  8 16  1  6  0  0  0
  9 11  1  0  0  0  0
 17 16  1  1  0  0  0
 17 18  1  0  0  0  0
 17 24  1  0  0  0  0
 18 19  1  0  0  0  0
 18 25  1  1  0  0  0
 19 20  1  0  0  0  0
 19 26  1  6  0  0  0
 20 21  1  0  0  0  0
 20 23  1  1  0  0  0
 21 22  1  6  0  0  0
 21 24  1  0  0  0  0
 22 27  1  0  0  0  0
 28 12  1  6  0  0  0
 28 29  1  0  0  0  0
 28 33  1  0  0  0  0
 29 30  1  0  0  0  0
 29 36  1  1  0  0  0
 30 31  1  0  0  0  0
 30 37  1  1  0  0  0
 31 32  1  0  0  0  0
 31 34  1  1  0  0  0
 32 33  1  0  0  0  0
 33 35  1  6  0  0  0
M  END
>  <CHROM.1>
169.32869124,-174.98182058,-171.10527081,-173.84876398,-177.37797465,92.55803653
20.10694325,-2.80994628,49.66780217,-1.39702514,0.53063038,-2.25475686

>  <Name>
2oe5_lig

>  <RI>
0

>  <Rbt.Current_Directory>
/home/itssahil/PROJECTS/Mol_Feturizer/New_Systems/rnas/2oe5

>  <Rbt.Executable>
rbdock ($Id: //depot/dev/client3/rdock/2013.1/src/exe/rbdock.cxx#4 $)

>  <Rbt.Library>
libRbt.so (2013.1, Build901 2013/11/27)

>  <Rbt.Parameter_File>
/export/apps/rDock/src/rDock_2013.1_src/data/scripts/dock_solv.prm

>  <Rbt.Receptor>
prm/pocket_docking_4.prm

>  <SCORE>
-26.1314

>  <SCORE.INTER>
-21.6627

>  <SCORE.INTER.CONST>
1

>  <SCORE.INTER.POLAR>
-2.99837

>  <SCORE.INTER.ROT>
6

>  <SCORE.INTER.SOLV>
15.2979

>  <SCORE.INTER.VDW>
-17.1465

>  <SCORE.INTER.norm>
-0.585479

>  <SCORE.INTRA>
-4.61368

>  <SCORE.INTRA.DIHEDRAL>
-10.8829

>  <SCORE.INTRA.DIHEDRAL.0>
16.2083

>  <SCORE.INTRA.POLAR>
0

>  <SCORE.INTRA.POLAR.0>
0

>  <SCORE.INTRA.REPUL>
0

>  <SCORE.INTRA.REPUL.0>
0

>  <SCORE.INTRA.SOLV>
-0.650215

>  <SCORE.INTRA.SOLV.lig_0>
-89.8095

>  <SCORE.INTRA.VDW>
1.15288

>  <SCORE.INTRA.VDW.0>
-3.19502

>  <SCORE.INTRA.norm>
-0.124694

>  <SCORE.RESTR>
0.144994

>  <SCORE.RESTR.CAVITY>
0.144994

>  <SCORE.RESTR.norm>
0.00391877

>  <SCORE.SYSTEM>
0

>  <SCORE.SYSTEM.CONST>
0

>  <SCORE.SYSTEM.DIHEDRAL>
0

>  <SCORE.SYSTEM.SOLV>
0

>  <SCORE.SYSTEM.norm>
0

>  <SCORE.heavy>
37

>  <SCORE.norm>
-0.706255

>  <RMSD>
4.728

$$$$
2oe5_lig
 OpenBabel11021811463D
libRbt.so/2013.1/901 2013/11/27
 37 40  0  0  0  0  0  0  0  0999 V2000
   18.8403    3.8165   56.7055 C   0  0  1  0  0  0  0  0  0  0  0  0
   18.4292    4.0609   55.2363 C   0  0  1  0  0  0  0  0  0  0  0  0
   18.2974    2.6777   54.4969 C   0  0  0  0  0  0  0  0  0  0  0  0
   19.6902    2.0188   54.6131 C   0  0  1  0  0  0  0  0  0  0  0  0
   20.0995    1.7790   56.1334 C   0  0  1  0  0  0  0  0  0  0  0  0
   21.4943    1.1102   56.2725 C   0  0  1  0  0  0  0  0  0  0  0  0
   21.4197   -0.2489   55.5201 C   0  0  1  0  0  0  0  0  0  0  0  0
   20.9692    0.0295   54.0359 C   0  0  2  0  0  0  0  0  0  0  0  0
   23.3825   -1.3298   56.8772 C   0  0  0  0  0  0  0  0  0  0  0  0
   17.1313    4.7725   55.1858 N   0  0  0  0  0  0  0  0  0  0  0  0
   22.7593   -0.9477   55.5621 N   0  0  0  0  0  0  0  0  0  0  0  0
   17.8423    3.0760   57.4270 O   0  0  0  0  0  0  0  0  0  0  0  0
   20.1065    3.0763   56.8126 O   0  0  0  0  0  0  0  0  0  0  0  0
   19.6706    0.7254   53.9516 O   0  0  0  0  0  0  0  0  0  0  0  0
   22.4637    1.9871   55.6899 O   0  0  0  0  0  0  0  0  0  0  0  0
   20.8289   -1.1912   53.3363 O   0  0  0  0  0  0  0  0  0  0  0  0
   20.7033   -0.9469   51.9480 C   0  0  2  0  0  0  0  0  0  0  0  0
   19.4616   -1.6090   51.3520 C   0  0  1  0  0  0  0  0  0  0  0  0
   19.5489   -3.1568   51.4510 C   0  0  2  0  0  0  0  0  0  0  0  0
   20.8513   -3.6007   50.7212 C   0  0  1  0  0  0  0  0  0  0  0  0
   22.0648   -2.9118   51.4275 C   0  0  1  0  0  0  0  0  0  0  0  0
   23.3866   -3.2321   50.7659 C   0  0  0  0  0  0  0  0  0  0  0  0
   20.9442   -5.1066   50.8094 N   0  0  0  0  0  0  0  0  0  0  0  0
   21.9014   -1.4600   51.2854 O   0  0  0  0  0  0  0  0  0  0  0  0
   18.3171   -1.1127   52.0740 O   0  0  0  0  0  0  0  0  0  0  0  0
   18.4052   -3.7120   50.7766 O   0  0  0  0  0  0  0  0  0  0  0  0
   23.7097   -4.5762   50.8741 O   0  0  0  0  0  0  0  0  0  0  0  0
   18.1466    2.8763   58.8076 C   0  0  1  0  0  0  0  0  0  0  0  0
   17.9225    4.2126   59.6020 C   0  0  1  0  0  0  0  0  0  0  0  0
   18.2505    3.9645   61.1184 C   0  0  2  0  0  0  0  0  0  0  0  0
   17.3135    2.8793   61.6698 C   0  0  1  0  0  0  0  0  0  0  0  0
   17.5498    1.5341   60.8806 C   0  0  0  0  0  0  0  0  0  0  0  0
   17.2357    1.7848   59.3532 C   0  0  2  0  0  0  0  0  0  0  0  0
   17.6142    2.6728   63.0769 N   0  0  0  0  0  0  0  0  0  0  0  0
   17.4682    0.5435   58.5689 N   0  0  0  0  0  0  0  0  0  0  0  0
   18.8087    5.2449   59.0820 O   0  0  0  0  0  0  0  0  0  0  0  0
   18.0338    5.1511   61.8350 O   0  0  0  0  0  0  0  0  0  0  0  0
  1  2  1  0  0  0  0
  1 12  1  6  0  0  0
  1 13  1  0  0  0  0
  2  3  1  0  0  0  0
  2 10  1  1  0  0  0
  4  3  1  1  0  0  0
  4  5  1  0  0  0  0
  4 14  1  0  0  0  0
  5  6  1  0  0  0  0
  5 13  1  1  0  0  0
  6  7  1  0  0  0  0
  6 15  1  6  0  0  0
  7  8  1  0  0  0  0
  7 11  1  6  0  0  0
  8 14  1  0  0  0  0
  8 16  1  6  0  0  0
  9 11  1  0  0  0  0
 17 16  1  1  0  0  0
 17 18  1  0  0  0  0
 17 24  1  0  0  0  0
 18 19  1  0  0  0  0
 18 25  1  1  0  0  0
 19 20  1  0  0  0  0
 19 26  1  6  0  0  0
 20 21  1  0  0  0  0
 20 23  1  1  0  0  0
 21 22  1  6  0  0  0
 21 24  1  0  0  0  0
 22 27  1  0  0  0  0
 28 12  1  6  0  0  0
 28 29  1  0  0  0  0
 28 33  1  0  0  0  0
 29 30  1  0  0  0  0
 29 36  1  6  0  0  0
 30 31  1  0  0  0  0
 30 37  1  1  0  0  0
 31 32  1  0  0  0  0
 31 34  1  1  0  0  0
 32 33  1  0  0  0  0
 33 35  1  6  0  0  0
M  END
>  <CHROM.1>
-177.27148537,60.45910226,-167.71407221,-126.50770960,-65.38615023,74.82714922
19.78248503,0.65826358,55.51911006,1.96673081,-0.70664538,1.18198744

>  <Name>
2oe5_lig

>  <RI>
0

>  <Rbt.Current_Directory>
/home/itssahil/PROJECTS/Mol_Feturizer/New_Systems/rnas/2oe5

>  <Rbt.Executable>
rbdock ($Id: //depot/dev/client3/rdock/2013.1/src/exe/rbdock.cxx#4 $)

>  <Rbt.Library>
libRbt.so (2013.1, Build901 2013/11/27)

>  <Rbt.Parameter_File>
/export/apps/rDock/src/rDock_2013.1_src/data/scripts/dock_solv.prm

>  <Rbt.Receptor>
prm/pocket_docking_6.prm

>  <SCORE>
-15.8144

>  <SCORE.INTER>
-12.1966

>  <SCORE.INTER.CONST>
1

>  <SCORE.INTER.POLAR>
-1.76831

>  <SCORE.INTER.ROT>
6

>  <SCORE.INTER.SOLV>
18.1908

>  <SCORE.INTER.VDW>
-15.9003

>  <SCORE.INTER.norm>
-0.329637

>  <SCORE.INTRA>
-3.61788

>  <SCORE.INTRA.DIHEDRAL>
-7.2378

>  <SCORE.INTRA.DIHEDRAL.0>
16.2083

>  <SCORE.INTRA.POLAR>
0

>  <SCORE.INTRA.POLAR.0>
0

>  <SCORE.INTRA.REPUL>
0

>  <SCORE.INTRA.REPUL.0>
0

>  <SCORE.INTRA.SOLV>
-1.74415

>  <SCORE.INTRA.SOLV.lig_0>
-89.8095

>  <SCORE.INTRA.VDW>
0.87309

>  <SCORE.INTRA.VDW.0>
-3.19502

>  <SCORE.INTRA.norm>
-0.0977806

>  <SCORE.RESTR>
0

>  <SCORE.RESTR.CAVITY>
0

>  <SCORE.RESTR.norm>
0

>  <SCORE.SYSTEM>
0

>  <SCORE.SYSTEM.CONST>
0

>  <SCORE.SYSTEM.DIHEDRAL>
0

>  <SCORE.SYSTEM.SOLV>
0

>  <SCORE.SYSTEM.norm>
0

>  <SCORE.heavy>
37

>  <SCORE.norm>
-0.427418

>  <RMSD>
4.743

$$$$
2oe5_lig
 OpenBabel11021811463D
libRbt.so/2013.1/901 2013/11/27
 37 40  0  0  0  0  0  0  0  0999 V2000
   22.4933   -2.7512   52.1660 C   0  0  1  0  0  0  0  0  0  0  0  0
   23.5407   -2.9047   51.0405 C   0  0  1  0  0  0  0  0  0  0  0  0
   22.8733   -2.5546   49.6587 C   0  0  0  0  0  0  0  0  0  0  0  0
   21.7016   -3.5505   49.5077 C   0  0  1  0  0  0  0  0  0  0  0  0
   20.6350   -3.3816   50.6782 C   0  0  1  0  0  0  0  0  0  0  0  0
   19.4442   -4.3692   50.5411 C   0  0  1  0  0  0  0  0  0  0  0  0
   18.7764   -4.0822   49.1662 C   0  0  1  0  0  0  0  0  0  0  0  0
   19.8741   -4.2161   48.0435 C   0  0  2  0  0  0  0  0  0  0  0  0
   16.5995   -4.7508   47.8712 C   0  0  0  0  0  0  0  0  0  0  0  0
   24.6811   -1.9912   51.2826 N   0  0  0  0  0  0  0  0  0  0  0  0
   17.6315   -5.0397   48.9272 N   0  0  0  0  0  0  0  0  0  0  0  0
   22.0257   -1.3976   52.2844 O   0  0  0  0  0  0  0  0  0  0  0  0
   21.3185   -3.6099   51.9529 O   0  0  0  0  0  0  0  0  0  0  0  0
   21.0184   -3.3070   48.2489 O   0  0  0  0  0  0  0  0  0  0  0  0
   19.9653   -5.7003   50.6106 O   0  0  0  0  0  0  0  0  0  0  0  0
   19.3174   -3.8997   46.7829 O   0  0  0  0  0  0  0  0  0  0  0  0
   20.1409   -4.3993   45.7460 C   0  0  2  0  0  0  0  0  0  0  0  0
   19.9244   -3.6606   44.4257 C   0  0  1  0  0  0  0  0  0  0  0  0
   18.4817   -3.8768   43.8919 C   0  0  2  0  0  0  0  0  0  0  0  0
   18.2622   -5.4115   43.7422 C   0  0  1  0  0  0  0  0  0  0  0  0
   18.4587   -6.0714   45.1465 C   0  0  1  0  0  0  0  0  0  0  0  0
   18.3193   -7.5770   45.1108 C   0  0  0  0  0  0  0  0  0  0  0  0
   16.8613   -5.6326   43.2201 N   0  0  0  0  0  0  0  0  0  0  0  0
   19.8411   -5.8196   45.5709 O   0  0  0  0  0  0  0  0  0  0  0  0
   20.1785   -2.2621   44.6650 O   0  0  0  0  0  0  0  0  0  0  0  0
   18.3848   -3.2477   42.6012 O   0  0  0  0  0  0  0  0  0  0  0  0
   19.2301   -8.1628   44.2448 O   0  0  0  0  0  0  0  0  0  0  0  0
   21.1103   -1.1871   53.3597 C   0  0  1  0  0  0  0  0  0  0  0  0
   21.8976   -1.0522   54.7120 C   0  0  1  0  0  0  0  0  0  0  0  0
   20.8714   -0.8083   55.8765 C   0  0  2  0  0  0  0  0  0  0  0  0
   20.0950    0.4893   55.6058 C   0  0  1  0  0  0  0  0  0  0  0  0
   19.2936    0.3470   54.2546 C   0  0  0  0  0  0  0  0  0  0  0  0
   20.3218    0.0862   53.0845 C   0  0  2  0  0  0  0  0  0  0  0  0
   19.1631    0.7132   56.6988 N   0  0  0  0  0  0  0  0  0  0  0  0
   19.6029   -0.0761   51.7936 N   0  0  0  0  0  0  0  0  0  0  0  0
   22.6359   -2.2805   54.9725 O   0  0  0  0  0  0  0  0  0  0  0  0
   21.5719   -0.6688   57.0840 O   0  0  0  0  0  0  0  0  0  0  0  0
  1  2  1  0  0  0  0
  1 12  1  6  0  0  0
  1 13  1  0  0  0  0
  2  3  1  0  0  0  0
  2 10  1  1  0  0  0
  4  3  1  1  0  0  0
  4  5  1  0  0  0  0
  4 14  1  0  0  0  0
  5  6  1  0  0  0  0
  5 13  1  1  0  0  0
  6  7  1  0  0  0  0
  6 15  1  6  0  0  0
  7  8  1  0  0  0  0
  7 11  1  6  0  0  0
  8 14  1  0  0  0  0
  8 16  1  6  0  0  0
  9 11  1  0  0  0  0
 17 16  1  1  0  0  0
 17 18  1  0  0  0  0
 17 24  1  0  0  0  0
 18 19  1  0  0  0  0
 18 25  1  1  0  0  0
 19 20  1  0  0  0  0
 19 26  1  6  0  0  0
 20 21  1  0  0  0  0
 20 23  1  1  0  0  0
 21 22  1  6  0  0  0
 21 24  1  0  0  0  0
 22 27  1  0  0  0  0
 28 12  1  6  0  0  0
 28 29  1  0  0  0  0
 28 33  1  0  0  0  0
 29 30  1  0  0  0  0
 29 36  1  1  0  0  0
 30 31  1  0  0  0  0
 30 37  1  1  0  0  0
 31 32  1  0  0  0  0
 31 34  1  1  0  0  0
 32 33  1  0  0  0  0
 33 35  1  6  0  0  0
M  END
>  <CHROM.1>
-176.70971666,163.39126276,-162.09801028,-157.65972548,58.61891355,79.90272904
20.17757621,-3.21982011,49.54811525,-1.34273789,0.08782347,-2.00711993

>  <Name>
2oe5_lig

>  <RI>
0

>  <Rbt.Current_Directory>
/home/itssahil/PROJECTS/Mol_Feturizer/New_Systems/rnas/2oe5

>  <Rbt.Executable>
rbdock ($Id: //depot/dev/client3/rdock/2013.1/src/exe/rbdock.cxx#4 $)

>  <Rbt.Library>
libRbt.so (2013.1, Build901 2013/11/27)

>  <Rbt.Parameter_File>
/export/apps/rDock/src/rDock_2013.1_src/data/scripts/dock_solv.prm

>  <Rbt.Receptor>
prm/pocket_docking_7.prm

>  <SCORE>
-20.1372

>  <SCORE.INTER>
-14.1882

>  <SCORE.INTER.CONST>
1

>  <SCORE.INTER.POLAR>
-1.46207

>  <SCORE.INTER.ROT>
6

>  <SCORE.INTER.SOLV>
13.1137

>  <SCORE.INTER.VDW>
-16.5565

>  <SCORE.INTER.norm>
-0.383466

>  <SCORE.INTRA>
-5.94901

>  <SCORE.INTRA.DIHEDRAL>
-10.4048

>  <SCORE.INTRA.DIHEDRAL.0>
16.2083

>  <SCORE.INTRA.POLAR>
0

>  <SCORE.INTRA.POLAR.0>
0

>  <SCORE.INTRA.REPUL>
0

>  <SCORE.INTRA.REPUL.0>
0

>  <SCORE.INTRA.SOLV>
-1.58289

>  <SCORE.INTRA.SOLV.lig_0>
-89.8095

>  <SCORE.INTRA.VDW>
0.0448371

>  <SCORE.INTRA.VDW.0>
-3.19502

>  <SCORE.INTRA.norm>
-0.160784

>  <SCORE.RESTR>
0

>  <SCORE.RESTR.CAVITY>
0

>  <SCORE.RESTR.norm>
0

>  <SCORE.SYSTEM>
0

>  <SCORE.SYSTEM.CONST>
0

>  <SCORE.SYSTEM.DIHEDRAL>
0

>  <SCORE.SYSTEM.SOLV>
0

>  <SCORE.SYSTEM.norm>
0

>  <SCORE.heavy>
37

>  <SCORE.norm>
-0.54425

>  <RMSD>
4.765

$$$$
2oe5_lig
 OpenBabel11021811463D
libRbt.so/2013.1/901 2013/11/27
 37 40  0  0  0  0  0  0  0  0999 V2000
   20.1310    1.7587   55.1603 C   0  0  1  0  0  0  0  0  0  0  0  0
   20.8763    0.6575   55.9472 C   0  0  1  0  0  0  0  0  0  0  0  0
   21.9416   -0.0213   55.0082 C   0  0  0  0  0  0  0  0  0  0  0  0
   21.1338   -0.5943   53.8222 C   0  0  1  0  0  0  0  0  0  0  0  0
   20.3687    0.5534   53.0260 C   0  0  1  0  0  0  0  0  0  0  0  0
   19.5557   -0.0008   51.8243 C   0  0  1  0  0  0  0  0  0  0  0  0
   20.5690   -0.7158   50.8858 C   0  0  1  0  0  0  0  0  0  0  0  0
   21.3338   -1.8102   51.7227 C   0  0  2  0  0  0  0  0  0  0  0  0
   19.2029   -2.6855   49.8290 C   0  0  0  0  0  0  0  0  0  0  0  0
   21.5592    1.2485   57.1210 N   0  0  0  0  0  0  0  0  0  0  0  0
   19.8502   -1.3327   49.7079 N   0  0  0  0  0  0  0  0  0  0  0  0
   21.0149    2.8107   54.7398 O   0  0  0  0  0  0  0  0  0  0  0  0
   19.4663    1.2305   53.9595 O   0  0  0  0  0  0  0  0  0  0  0  0
   22.0376   -1.2498   52.8925 O   0  0  0  0  0  0  0  0  0  0  0  0
   18.5750   -0.9085   52.3367 O   0  0  0  0  0  0  0  0  0  0  0  0
   22.3103   -2.4400   50.9170 O   0  0  0  0  0  0  0  0  0  0  0  0
   22.9333   -3.4887   51.6346 C   0  0  2  0  0  0  0  0  0  0  0  0
   24.0985   -4.1077   50.8633 C   0  0  1  0  0  0  0  0  0  0  0  0
   23.6071   -4.7909   49.5576 C   0  0  2  0  0  0  0  0  0  0  0  0
   22.5434   -5.8561   49.9573 C   0  0  1  0  0  0  0  0  0  0  0  0
   21.3750   -5.1248   50.6963 C   0  0  1  0  0  0  0  0  0  0  0  0
   20.3019   -6.0748   51.1794 C   0  0  0  0  0  0  0  0  0  0  0  0
   22.0607   -6.5292   48.6932 N   0  0  0  0  0  0  0  0  0  0  0  0
   21.9263   -4.5121   51.9109 O   0  0  0  0  0  0  0  0  0  0  0  0
   25.0332   -3.0508   50.5686 O   0  0  0  0  0  0  0  0  0  0  0  0
   24.7342   -5.4419   48.9436 O   0  0  0  0  0  0  0  0  0  0  0  0
   19.2806   -5.4115   51.8425 O   0  0  0  0  0  0  0  0  0  0  0  0
   21.3634    3.7303   55.7750 C   0  0  1  0  0  0  0  0  0  0  0  0
   22.6410    4.5435   55.3586 C   0  0  1  0  0  0  0  0  0  0  0  0
   22.9962    5.5563   56.5060 C   0  0  2  0  0  0  0  0  0  0  0  0
   21.8203    6.5230   56.7123 C   0  0  1  0  0  0  0  0  0  0  0  0
   20.5417    5.7064   57.1443 C   0  0  0  0  0  0  0  0  0  0  0  0
   20.1915    4.6765   55.9993 C   0  0  2  0  0  0  0  0  0  0  0  0
   22.1688    7.4657   57.7625 N   0  0  0  0  0  0  0  0  0  0  0  0
   19.0020    3.8695   56.3783 N   0  0  0  0  0  0  0  0  0  0  0  0
   23.7587    3.6306   55.1613 O   0  0  0  0  0  0  0  0  0  0  0  0
   24.1263    6.2979   56.1301 O   0  0  0  0  0  0  0  0  0  0  0  0
  1  2  1  0  0  0  0
  1 12  1  6  0  0  0
  1 13  1  0  0  0  0
  2  3  1  0  0  0  0
  2 10  1  1  0  0  0
  4  3  1  1  0  0  0
  4  5  1  0  0  0  0
  4 14  1  0  0  0  0
  5  6  1  0  0  0  0
  5 13  1  1  0  0  0
  6  7  1  0  0  0  0
  6 15  1  1  0  0  0
  7  8  1  0  0  0  0
  7 11  1  6  0  0  0
  8 14  1  0  0  0  0
  8 16  1  6  0  0  0
  9 11  1  0  0  0  0
 17 16  1  6  0  0  0
 17 18  1  0  0  0  0
 17 24  1  0  0  0  0
 18 19  1  0  0  0  0
 18 25  1  6  0  0  0
 19 20  1  0  0  0  0
 19 26  1  1  0  0  0
 20 21  1  0  0  0  0
 20 23  1  6  0  0  0
 21 22  1  1  0  0  0
 21 24  1  0  0  0  0
 22 27  1  0  0  0  0
 28 12  1  6  0  0  0
 28 29  1  0  0  0  0
 28 33  1  0  0  0  0
 29 30  1  0  0  0  0
 29 36  1  1  0  0  0
 30 31  1  0  0  0  0
 30 37  1  6  0  0  0
 31 32  1  0  0  0  0
 31 34  1  1  0  0  0
 32 33  1  0  0  0  0
 33 35  1  1  0  0  0
M  END
>  <CHROM.1>
-77.63956021,-83.41052721,-175.78744131,-173.95726117,179.44675314,162.39291992
21.53834555,-0.19975451,53.15017425,1.60419417,0.09168331,0.56101945

>  <Name>
2oe5_lig

>  <RI>
0

>  <Rbt.Current_Directory>
/home/itssahil/PROJECTS/Mol_Feturizer/New_Systems/rnas/2oe5

>  <Rbt.Executable>
rbdock ($Id: //depot/dev/client3/rdock/2013.1/src/exe/rbdock.cxx#4 $)

>  <Rbt.Library>
libRbt.so (2013.1, Build901 2013/11/27)

>  <Rbt.Parameter_File>
/export/apps/rDock/src/rDock_2013.1_src/data/scripts/dock_solv.prm

>  <Rbt.Receptor>
prm/pocket_docking_7.prm

>  <SCORE>
-18.1074

>  <SCORE.INTER>
-14.8332

>  <SCORE.INTER.CONST>
1

>  <SCORE.INTER.POLAR>
-0.966375

>  <SCORE.INTER.ROT>
6

>  <SCORE.INTER.SOLV>
8.14272

>  <SCORE.INTER.VDW>
-16.9818

>  <SCORE.INTER.norm>
-0.400898

>  <SCORE.INTRA>
-3.27419

>  <SCORE.INTRA.DIHEDRAL>
-12.6126

>  <SCORE.INTRA.DIHEDRAL.0>
16.2083

>  <SCORE.INTRA.POLAR>
0

>  <SCORE.INTRA.POLAR.0>
0

>  <SCORE.INTRA.REPUL>
0

>  <SCORE.INTRA.REPUL.0>
0

>  <SCORE.INTRA.SOLV>
1.32239

>  <SCORE.INTRA.SOLV.lig_0>
-89.8095

>  <SCORE.INTRA.VDW>
2.3709

>  <SCORE.INTRA.VDW.0>
-3.19502

>  <SCORE.INTRA.norm>
-0.0884917

>  <SCORE.RESTR>
0

>  <SCORE.RESTR.CAVITY>
0

>  <SCORE.RESTR.norm>
0

>  <SCORE.SYSTEM>
0

>  <SCORE.SYSTEM.CONST>
0

>  <SCORE.SYSTEM.DIHEDRAL>
0

>  <SCORE.SYSTEM.SOLV>
0

>  <SCORE.SYSTEM.norm>
0

>  <SCORE.heavy>
37

>  <SCORE.norm>
-0.48939

>  <RMSD>
4.869

$$$$
2oe5_lig
 OpenBabel11021811463D
libRbt.so/2013.1/901 2013/11/27
 37 40  0  0  0  0  0  0  0  0999 V2000
   19.9529    2.2626   58.3331 C   0  0  1  0  0  0  0  0  0  0  0  0
   19.1229    2.9055   57.1995 C   0  0  1  0  0  0  0  0  0  0  0  0
   18.7160    1.7958   56.1602 C   0  0  0  0  0  0  0  0  0  0  0  0
   20.0499    1.2078   55.6479 C   0  0  1  0  0  0  0  0  0  0  0  0
   20.8939    0.5542   56.8298 C   0  0  1  0  0  0  0  0  0  0  0  0
   22.2364   -0.0498   56.3347 C   0  0  1  0  0  0  0  0  0  0  0  0
   21.8809   -1.1296   55.2734 C   0  0  1  0  0  0  0  0  0  0  0  0
   21.0102   -0.4520   54.1482 C   0  0  2  0  0  0  0  0  0  0  0  0
   23.0885   -3.0414   53.9508 C   0  0  0  0  0  0  0  0  0  0  0  0
   17.9014    3.5294   57.7581 N   0  0  0  0  0  0  0  0  0  0  0  0
   23.1400   -1.7366   54.6982 N   0  0  0  0  0  0  0  0  0  0  0  0
   19.1939    1.2900   59.0700 O   0  0  0  0  0  0  0  0  0  0  0  0
   21.1604    1.5929   57.8269 O   0  0  0  0  0  0  0  0  0  0  0  0
   19.7771    0.1669   54.6718 O   0  0  0  0  0  0  0  0  0  0  0  0
   23.0161    1.0105   55.7726 O   0  0  0  0  0  0  0  0  0  0  0  0
   20.6139   -1.4189   53.1957 O   0  0  0  0  0  0  0  0  0  0  0  0
   19.8803   -0.8049   52.1526 C   0  0  2  0  0  0  0  0  0  0  0  0
   19.4940   -1.7946   51.0541 C   0  0  1  0  0  0  0  0  0  0  0  0
   20.7526   -2.3603   50.3407 C   0  0  2  0  0  0  0  0  0  0  0  0
   21.5558   -1.1507   49.7772 C   0  0  1  0  0  0  0  0  0  0  0  0
   21.9442   -0.2230   50.9750 C   0  0  1  0  0  0  0  0  0  0  0  0
   22.6877    1.0190   50.5366 C   0  0  0  0  0  0  0  0  0  0  0  0
   22.7819   -1.6910   49.0781 N   0  0  0  0  0  0  0  0  0  0  0  0
   20.7018    0.2639   51.5864 O   0  0  0  0  0  0  0  0  0  0  0  0
   18.7352   -2.8531   51.6717 O   0  0  0  0  0  0  0  0  0  0  0  0
   20.3120   -3.1947   49.2540 O   0  0  0  0  0  0  0  0  0  0  0  0
   23.0292    1.8266   51.6108 O   0  0  0  0  0  0  0  0  0  0  0  0
   19.6645    1.0659   60.3992 C   0  0  1  0  0  0  0  0  0  0  0  0
   21.1881    0.6855   60.3688 C   0  0  1  0  0  0  0  0  0  0  0  0
   21.6854    0.4572   61.8416 C   0  0  2  0  0  0  0  0  0  0  0  0
   21.4981    1.7516   62.6473 C   0  0  1  0  0  0  0  0  0  0  0  0
   19.9660    2.1245   62.6891 C   0  0  0  0  0  0  0  0  0  0  0  0
   19.4597    2.3393   61.2086 C   0  0  2  0  0  0  0  0  0  0  0  0
   21.9790    1.5330   64.0016 N   0  0  0  0  0  0  0  0  0  0  0  0
   18.0107    2.6717   61.2028 N   0  0  0  0  0  0  0  0  0  0  0  0
   21.3706   -0.5412   59.6051 O   0  0  0  0  0  0  0  0  0  0  0  0
   23.0508    0.1352   61.8203 O   0  0  0  0  0  0  0  0  0  0  0  0
  1  2  1  0  0  0  0
  1 12  1  6  0  0  0
  1 13  1  0  0  0  0
  2  3  1  0  0  0  0
  2 10  1  1  0  0  0
  4  3  1  1  0  0  0
  4  5  1  0  0  0  0
  4 14  1  0  0  0  0
  5  6  1  0  0  0  0
  5 13  1  1  0  0  0
  6  7  1  0  0  0  0
  6 15  1  6  0  0  0
  7  8  1  0  0  0  0
  7 11  1  6  0  0  0
  8 14  1  0  0  0  0
  8 16  1  6  0  0  0
  9 11  1  0  0  0  0
 17 16  1  1  0  0  0
 17 18  1  0  0  0  0
 17 24  1  0  0  0  0
 18 19  1  0  0  0  0
 18 25  1  1  0  0  0
 19 20  1  0  0  0  0
 19 26  1  6  0  0  0
 20 21  1  0  0  0  0
 20 23  1  1  0  0  0
 21 22  1  6  0  0  0
 21 24  1  0  0  0  0
 22 27  1  0  0  0  0
 28 12  1  6  0  0  0
 28 29  1  0  0  0  0
 28 33  1  0  0  0  0
 29 30  1  0  0  0  0
 29 36  1  6  0  0  0
 30 31  1  0  0  0  0
 30 37  1  6  0  0  0
 31 32  1  0  0  0  0
 31 34  1  1  0  0  0
 32 33  1  0  0  0  0
 33 35  1  1  0  0  0
M  END
>  <CHROM.1>
-155.88820236,163.01059180,-177.48616801,176.79000625,-179.73444409,-54.56060201
20.86595267,0.23807975,55.91866580,1.64748809,-0.58737642,1.33986505

>  <Name>
2oe5_lig

>  <RI>
0

>  <Rbt.Current_Directory>
/home/itssahil/PROJECTS/Mol_Feturizer/New_Systems/rnas/2oe5

>  <Rbt.Executable>
rbdock ($Id: //depot/dev/client3/rdock/2013.1/src/exe/rbdock.cxx#4 $)

>  <Rbt.Library>
libRbt.so (2013.1, Build901 2013/11/27)

>  <Rbt.Parameter_File>
/export/apps/rDock/src/rDock_2013.1_src/data/scripts/dock_solv.prm

>  <Rbt.Receptor>
prm/pocket_docking_6.prm

>  <SCORE>
-16.3499

>  <SCORE.INTER>
-11.5116

>  <SCORE.INTER.CONST>
1

>  <SCORE.INTER.POLAR>
-0.864564

>  <SCORE.INTER.ROT>
6

>  <SCORE.INTER.SOLV>
9.67271

>  <SCORE.INTER.VDW>
-15.6167

>  <SCORE.INTER.norm>
-0.311124

>  <SCORE.INTRA>
-4.83837

>  <SCORE.INTRA.DIHEDRAL>
-13.1872

>  <SCORE.INTRA.DIHEDRAL.0>
16.2083

>  <SCORE.INTRA.POLAR>
0

>  <SCORE.INTRA.POLAR.0>
0

>  <SCORE.INTRA.REPUL>
0.00426075

>  <SCORE.INTRA.REPUL.0>
0

>  <SCORE.INTRA.SOLV>
-0.822301

>  <SCORE.INTRA.SOLV.lig_0>
-89.8095

>  <SCORE.INTRA.VDW>
2.14508

>  <SCORE.INTRA.VDW.0>
-3.19502

>  <SCORE.INTRA.norm>
-0.130767

>  <SCORE.RESTR>
0

>  <SCORE.RESTR.CAVITY>
0

>  <SCORE.RESTR.norm>
0

>  <SCORE.SYSTEM>
0

>  <SCORE.SYSTEM.CONST>
0

>  <SCORE.SYSTEM.DIHEDRAL>
0

>  <SCORE.SYSTEM.SOLV>
0

>  <SCORE.SYSTEM.norm>
0

>  <SCORE.heavy>
37

>  <SCORE.norm>
-0.44189

>  <RMSD>
4.891

$$$$
2oe5_lig
 OpenBabel11021811463D
libRbt.so/2013.1/901 2013/11/27
 37 40  0  0  0  0  0  0  0  0999 V2000
   22.7669   -1.9148   51.5849 C   0  0  1  0  0  0  0  0  0  0  0  0
   23.7633   -2.5776   50.6076 C   0  0  1  0  0  0  0  0  0  0  0  0
   23.1881   -2.4960   49.1448 C   0  0  0  0  0  0  0  0  0  0  0  0
   21.8354   -3.2409   49.1962 C   0  0  1  0  0  0  0  0  0  0  0  0
   20.8232   -2.5474   50.2115 C   0  0  1  0  0  0  0  0  0  0  0  0
   19.4535   -3.2769   50.2729 C   0  0  1  0  0  0  0  0  0  0  0  0
   18.8648   -3.2527   48.8336 C   0  0  1  0  0  0  0  0  0  0  0  0
   19.9145   -3.9062   47.8568 C   0  0  2  0  0  0  0  0  0  0  0  0
   17.5003   -5.4852   48.9626 C   0  0  0  0  0  0  0  0  0  0  0  0
   25.0679   -1.8789   50.6640 N   0  0  0  0  0  0  0  0  0  0  0  0
   17.5466   -3.9910   48.7918 N   0  0  0  0  0  0  0  0  0  0  0  0
   22.5908   -0.5160   51.3067 O   0  0  0  0  0  0  0  0  0  0  0  0
   21.4399   -2.5472   51.5396 O   0  0  0  0  0  0  0  0  0  0  0  0
   21.2222   -3.2225   47.8793 O   0  0  0  0  0  0  0  0  0  0  0  0
   19.6860   -4.6134   50.7289 O   0  0  0  0  0  0  0  0  0  0  0  0
   19.4401   -3.8450   46.5262 O   0  0  0  0  0  0  0  0  0  0  0  0
   20.3468   -4.4933   45.6541 C   0  0  2  0  0  0  0  0  0  0  0  0
   20.0971   -4.1386   44.1887 C   0  0  1  0  0  0  0  0  0  0  0  0
   18.7046   -4.6420   43.7190 C   0  0  2  0  0  0  0  0  0  0  0  0
   18.6555   -6.1798   43.9614 C   0  0  1  0  0  0  0  0  0  0  0  0
   18.8741   -6.4399   45.4881 C   0  0  1  0  0  0  0  0  0  0  0  0
   18.8978   -7.9120   45.8339 C   0  0  0  0  0  0  0  0  0  0  0  0
   17.3046   -6.6802   43.5046 N   0  0  0  0  0  0  0  0  0  0  0  0
   20.2066   -5.9365   45.8425 O   0  0  0  0  0  0  0  0  0  0  0  0
   20.1920   -2.7055   44.0675 O   0  0  0  0  0  0  0  0  0  0  0  0
   18.5845   -4.3719   42.3106 O   0  0  0  0  0  0  0  0  0  0  0  0
   19.9539   -8.5722   45.2244 O   0  0  0  0  0  0  0  0  0  0  0  0
   21.8143    0.1808   52.2815 C   0  0  1  0  0  0  0  0  0  0  0  0
   20.3252   -0.3164   52.2322 C   0  0  1  0  0  0  0  0  0  0  0  0
   19.4949    0.4541   53.3210 C   0  0  2  0  0  0  0  0  0  0  0  0
   20.0847    0.1635   54.7093 C   0  0  1  0  0  0  0  0  0  0  0  0
   21.5755    0.6762   54.7619 C   0  0  0  0  0  0  0  0  0  0  0  0
   22.4091   -0.0856   53.6577 C   0  0  2  0  0  0  0  0  0  0  0  0
   19.2968    0.8664   55.7085 N   0  0  0  0  0  0  0  0  0  0  0  0
   23.8188    0.3862   53.6595 N   0  0  0  0  0  0  0  0  0  0  0  0
   19.7619   -0.0434   50.9170 O   0  0  0  0  0  0  0  0  0  0  0  0
   18.1679   -0.0003   53.2930 O   0  0  0  0  0  0  0  0  0  0  0  0
  1  2  1  0  0  0  0
  1 12  1  6  0  0  0
  1 13  1  0  0  0  0
  2  3  1  0  0  0  0
  2 10  1  6  0  0  0
  4  3  1  6  0  0  0
  4  5  1  0  0  0  0
  4 14  1  0  0  0  0
  5  6  1  0  0  0  0
  5 13  1  1  0  0  0
  6  7  1  0  0  0  0
  6 15  1  6  0  0  0
  7  8  1  0  0  0  0
  7 11  1  1  0  0  0
  8 14  1  0  0  0  0
  8 16  1  6  0  0  0
  9 11  1  0  0  0  0
 17 16  1  1  0  0  0
 17 18  1  0  0  0  0
 17 24  1  0  0  0  0
 18 19  1  0  0  0  0
 18 25  1  1  0  0  0
 19 20  1  0  0  0  0
 19 26  1  6  0  0  0
 20 21  1  0  0  0  0
 20 23  1  1  0  0  0
 21 22  1  6  0  0  0
 21 24  1  0  0  0  0
 22 27  1  0  0  0  0
 28 12  1  6  0  0  0
 28 29  1  0  0  0  0
 28 33  1  0  0  0  0
 29 30  1  0  0  0  0
 29 36  1  6  0  0  0
 30 31  1  0  0  0  0
 30 37  1  1  0  0  0
 31 32  1  0  0  0  0
 31 34  1  1  0  0  0
 32 33  1  0  0  0  0
 33 35  1  6  0  0  0
M  END
>  <CHROM.1>
-172.43554681,-69.24153682,-176.92797523,-164.37200038,62.96071051,-67.74395968
20.34955337,-2.97604977,49.10082469,-1.35000303,-0.18060200,-2.10714720

>  <Name>
2oe5_lig

>  <RI>
0

>  <Rbt.Current_Directory>
/home/itssahil/PROJECTS/Mol_Feturizer/New_Systems/rnas/2oe5

>  <Rbt.Executable>
rbdock ($Id: //depot/dev/client3/rdock/2013.1/src/exe/rbdock.cxx#4 $)

>  <Rbt.Library>
libRbt.so (2013.1, Build901 2013/11/27)

>  <Rbt.Parameter_File>
/export/apps/rDock/src/rDock_2013.1_src/data/scripts/dock_solv.prm

>  <Rbt.Receptor>
prm/pocket_docking_6.prm

>  <SCORE>
-26.2141

>  <SCORE.INTER>
-22.6556

>  <SCORE.INTER.CONST>
1

>  <SCORE.INTER.POLAR>
-3.26564

>  <SCORE.INTER.ROT>
6

>  <SCORE.INTER.SOLV>
12.7083

>  <SCORE.INTER.VDW>
-16.0543

>  <SCORE.INTER.norm>
-0.612313

>  <SCORE.INTRA>
-3.55855

>  <SCORE.INTRA.DIHEDRAL>
-14.2629

>  <SCORE.INTRA.DIHEDRAL.0>
16.2083

>  <SCORE.INTRA.POLAR>
0

>  <SCORE.INTRA.POLAR.0>
0

>  <SCORE.INTRA.REPUL>
0

>  <SCORE.INTRA.REPUL.0>
0

>  <SCORE.INTRA.SOLV>
-0.724015

>  <SCORE.INTRA.SOLV.lig_0>
-89.8095

>  <SCORE.INTRA.VDW>
3.93488

>  <SCORE.INTRA.VDW.0>
-3.19502

>  <SCORE.INTRA.norm>
-0.0961771

>  <SCORE.RESTR>
0

>  <SCORE.RESTR.CAVITY>
0

>  <SCORE.RESTR.norm>
0

>  <SCORE.SYSTEM>
0

>  <SCORE.SYSTEM.CONST>
0

>  <SCORE.SYSTEM.DIHEDRAL>
0

>  <SCORE.SYSTEM.SOLV>
0

>  <SCORE.SYSTEM.norm>
0

>  <SCORE.heavy>
37

>  <SCORE.norm>
-0.70849

>  <RMSD>
4.895

$$$$
2oe5_lig
 OpenBabel11021811463D
libRbt.so/2013.1/901 2013/11/27
 37 40  0  0  0  0  0  0  0  0999 V2000
   20.5781   -2.8304   52.5254 C   0  0  1  0  0  0  0  0  0  0  0  0
   21.6789   -2.4532   51.5089 C   0  0  1  0  0  0  0  0  0  0  0  0
   21.0317   -2.2721   50.0857 C   0  0  0  0  0  0  0  0  0  0  0  0
   20.3754   -3.6325   49.7599 C   0  0  1  0  0  0  0  0  0  0  0  0
   19.2475   -4.0072   50.8200 C   0  0  1  0  0  0  0  0  0  0  0  0
   18.5694   -5.3689   50.5064 C   0  0  1  0  0  0  0  0  0  0  0  0
   17.9467   -5.2462   49.0866 C   0  0  1  0  0  0  0  0  0  0  0  0
   19.0853   -4.8314   48.0793 C   0  0  2  0  0  0  0  0  0  0  0  0
   18.0943   -7.5897   47.9252 C   0  0  0  0  0  0  0  0  0  0  0  0
   22.3331   -1.1889   51.9175 N   0  0  0  0  0  0  0  0  0  0  0  0
   17.3059   -6.5529   48.6784 N   0  0  0  0  0  0  0  0  0  0  0  0
   19.5974   -1.7897   52.6667 O   0  0  0  0  0  0  0  0  0  0  0  0
   19.8684   -4.0610   52.1451 O   0  0  0  0  0  0  0  0  0  0  0  0
   19.7475   -3.5661   48.4515 O   0  0  0  0  0  0  0  0  0  0  0  0
   19.5760   -6.3849   50.5586 O   0  0  0  0  0  0  0  0  0  0  0  0
   18.5435   -4.6482   46.7862 O   0  0  0  0  0  0  0  0  0  0  0  0
   19.5728   -4.6862   45.8155 C   0  0  2  0  0  0  0  0  0  0  0  0
   19.7273   -3.3551   45.0807 C   0  0  1  0  0  0  0  0  0  0  0  0
   18.4532   -3.0167   44.2590 C   0  0  2  0  0  0  0  0  0  0  0  0
   18.2020   -4.1979   43.2754 C   0  0  1  0  0  0  0  0  0  0  0  0
   18.0112   -5.5017   44.1179 C   0  0  1  0  0  0  0  0  0  0  0  0
   17.8107   -6.7301   43.2587 C   0  0  0  0  0  0  0  0  0  0  0  0
   16.9652   -3.8768   42.4685 N   0  0  0  0  0  0  0  0  0  0  0  0
   19.2558   -5.7441   44.8572 O   0  0  0  0  0  0  0  0  0  0  0  0
   19.9830   -2.3403   46.0719 O   0  0  0  0  0  0  0  0  0  0  0  0
   18.7108   -1.8138   43.5122 O   0  0  0  0  0  0  0  0  0  0  0  0
   16.6481   -6.6543   42.5068 O   0  0  0  0  0  0  0  0  0  0  0  0
   20.1396   -0.5215   53.0360 C   0  0  1  0  0  0  0  0  0  0  0  0
   19.0758    0.6068   52.7866 C   0  0  1  0  0  0  0  0  0  0  0  0
   19.6899    1.9888   53.2123 C   0  0  2  0  0  0  0  0  0  0  0  0
   20.0493    1.9467   54.7052 C   0  0  1  0  0  0  0  0  0  0  0  0
   21.1283    0.8227   54.9518 C   0  0  0  0  0  0  0  0  0  0  0  0
   20.5189   -0.5658   54.5100 C   0  0  2  0  0  0  0  0  0  0  0  0
   20.5986    3.2362   55.0905 N   0  0  0  0  0  0  0  0  0  0  0  0
   21.5152   -1.6515   54.7064 N   0  0  0  0  0  0  0  0  0  0  0  0
   18.7314    0.6499   51.3720 O   0  0  0  0  0  0  0  0  0  0  0  0
   18.7362    2.9973   53.0084 O   0  0  0  0  0  0  0  0  0  0  0  0
  1  2  1  0  0  0  0
  1 12  1  6  0  0  0
  1 13  1  0  0  0  0
  2  3  1  0  0  0  0
  2 10  1  1  0  0  0
  4  3  1  1  0  0  0
  4  5  1  0  0  0  0
  4 14  1  0  0  0  0
  5  6  1  0  0  0  0
  5 13  1  1  0  0  0
  6  7  1  0  0  0  0
  6 15  1  6  0  0  0
  7  8  1  0  0  0  0
  7 11  1  6  0  0  0
  8 14  1  0  0  0  0
  8 16  1  6  0  0  0
  9 11  1  0  0  0  0
 17 16  1  1  0  0  0
 17 18  1  0  0  0  0
 17 24  1  0  0  0  0
 18 19  1  0  0  0  0
 18 25  1  1  0  0  0
 19 20  1  0  0  0  0
 19 26  1  6  0  0  0
 20 21  1  0  0  0  0
 20 23  1  1  0  0  0
 21 22  1  6  0  0  0
 21 24  1  0  0  0  0
 22 27  1  0  0  0  0
 28 12  1  1  0  0  0
 28 29  1  0  0  0  0
 28 33  1  0  0  0  0
 29 30  1  0  0  0  0
 29 36  1  6  0  0  0
 30 31  1  0  0  0  0
 30 37  1  1  0  0  0
 31 32  1  0  0  0  0
 31 34  1  6  0  0  0
 32 33  1  0  0  0  0
 33 35  1  6  0  0  0
M  END
>  <CHROM.1>
-56.22257026,-91.11619134,-162.00108412,-116.15074468,-63.56642287,164.74331539
19.36156216,-2.85558434,49.24866584,-0.36992582,1.35979912,2.97232434

>  <Name>
2oe5_lig

>  <RI>
0

>  <Rbt.Current_Directory>
/home/itssahil/PROJECTS/Mol_Feturizer/New_Systems/rnas/2oe5

>  <Rbt.Executable>
rbdock ($Id: //depot/dev/client3/rdock/2013.1/src/exe/rbdock.cxx#4 $)

>  <Rbt.Library>
libRbt.so (2013.1, Build901 2013/11/27)

>  <Rbt.Parameter_File>
/export/apps/rDock/src/rDock_2013.1_src/data/scripts/dock_solv.prm

>  <Rbt.Receptor>
prm/pocket_docking_6.prm

>  <SCORE>
-13.1858

>  <SCORE.INTER>
-16.5158

>  <SCORE.INTER.CONST>
1

>  <SCORE.INTER.POLAR>
-1.55476

>  <SCORE.INTER.ROT>
6

>  <SCORE.INTER.SOLV>
12.5708

>  <SCORE.INTER.VDW>
-17.6183

>  <SCORE.INTER.norm>
-0.446373

>  <SCORE.INTRA>
3.32996

>  <SCORE.INTRA.DIHEDRAL>
-5.67977

>  <SCORE.INTRA.DIHEDRAL.0>
16.2083

>  <SCORE.INTRA.POLAR>
0

>  <SCORE.INTRA.POLAR.0>
0

>  <SCORE.INTRA.REPUL>
0

>  <SCORE.INTRA.REPUL.0>
0

>  <SCORE.INTRA.SOLV>
4.25996

>  <SCORE.INTRA.SOLV.lig_0>
-89.8095

>  <SCORE.INTRA.VDW>
4.03986

>  <SCORE.INTRA.VDW.0>
-3.19502

>  <SCORE.INTRA.norm>
0.0899988

>  <SCORE.RESTR>
0

>  <SCORE.RESTR.CAVITY>
0

>  <SCORE.RESTR.norm>
0

>  <SCORE.SYSTEM>
0

>  <SCORE.SYSTEM.CONST>
0

>  <SCORE.SYSTEM.DIHEDRAL>
0

>  <SCORE.SYSTEM.SOLV>
0

>  <SCORE.SYSTEM.norm>
0

>  <SCORE.heavy>
37

>  <SCORE.norm>
-0.356374

>  <RMSD>
4.934

$$$$
2oe5_lig
 OpenBabel11021811463D
libRbt.so/2013.1/901 2013/11/27
 37 40  0  0  0  0  0  0  0  0999 V2000
   22.9391   -3.2318   52.6909 C   0  0  1  0  0  0  0  0  0  0  0  0
   23.9013   -3.7023   51.5773 C   0  0  1  0  0  0  0  0  0  0  0  0
   23.3425   -3.2426   50.1796 C   0  0  0  0  0  0  0  0  0  0  0  0
   21.9475   -3.8967   50.0628 C   0  0  1  0  0  0  0  0  0  0  0  0
   20.9712   -3.4044   51.2206 C   0  0  1  0  0  0  0  0  0  0  0  0
   19.5601   -4.0449   51.1173 C   0  0  1  0  0  0  0  0  0  0  0  0
   18.9842   -3.6455   49.7290 C   0  0  1  0  0  0  0  0  0  0  0  0
   20.0001   -4.1104   48.6177 C   0  0  2  0  0  0  0  0  0  0  0  0
   17.4866   -5.7618   49.3525 C   0  0  0  0  0  0  0  0  0  0  0  0
   25.2448   -3.1157   51.7882 N   0  0  0  0  0  0  0  0  0  0  0  0
   17.6247   -4.2732   49.5230 N   0  0  0  0  0  0  0  0  0  0  0  0
   22.8486   -1.7990   52.7531 O   0  0  0  0  0  0  0  0  0  0  0  0
   21.5773   -3.7554   52.5066 O   0  0  0  0  0  0  0  0  0  0  0  0
   21.3459   -3.5305   48.7921 O   0  0  0  0  0  0  0  0  0  0  0  0
   19.7094   -5.4628   51.2422 O   0  0  0  0  0  0  0  0  0  0  0  0
   19.5397   -3.7077   47.3429 O   0  0  0  0  0  0  0  0  0  0  0  0
   20.4200   -4.1718   46.3366 C   0  0  2  0  0  0  0  0  0  0  0  0
   20.0344   -3.6631   44.9481 C   0  0  1  0  0  0  0  0  0  0  0  0
   18.6487   -4.2144   44.5134 C   0  0  2  0  0  0  0  0  0  0  0  0
   18.7263   -5.7692   44.5620 C   0  0  1  0  0  0  0  0  0  0  0  0
   19.0790   -6.1943   46.0253 C   0  0  1  0  0  0  0  0  0  0  0  0
   19.2323   -7.6910   46.1795 C   0  0  0  0  0  0  0  0  0  0  0  0
   17.3828   -6.3159   44.1377 N   0  0  0  0  0  0  0  0  0  0  0  0
   20.3962   -5.6337   46.3499 O   0  0  0  0  0  0  0  0  0  0  0  0
   20.0190   -2.2228   45.0032 O   0  0  0  0  0  0  0  0  0  0  0  0
   18.4022   -3.7860   43.1618 O   0  0  0  0  0  0  0  0  0  0  0  0
   18.0395   -8.3614   45.9551 O   0  0  0  0  0  0  0  0  0  0  0  0
   23.9411   -1.1728   53.4261 C   0  0  1  0  0  0  0  0  0  0  0  0
   24.0554    0.3278   52.9763 C   0  0  1  0  0  0  0  0  0  0  0  0
   25.2543    0.9980   53.7392 C   0  0  2  0  0  0  0  0  0  0  0  0
   24.9920    0.9367   55.2515 C   0  0  1  0  0  0  0  0  0  0  0  0
   24.8917   -0.5711   55.7041 C   0  0  0  0  0  0  0  0  0  0  0  0
   23.6968   -1.2515   54.9271 C   0  0  2  0  0  0  0  0  0  0  0  0
   26.0984    1.5762   55.9442 N   0  0  0  0  0  0  0  0  0  0  0  0
   23.5822   -2.6833   55.3099 N   0  0  0  0  0  0  0  0  0  0  0  0
   24.3036    0.3908   51.5425 O   0  0  0  0  0  0  0  0  0  0  0  0
   25.3485    2.3438   53.3541 O   0  0  0  0  0  0  0  0  0  0  0  0
  1  2  1  0  0  0  0
  1 12  1  6  0  0  0
  1 13  1  0  0  0  0
  2  3  1  0  0  0  0
  2 10  1  1  0  0  0
  4  3  1  1  0  0  0
  4  5  1  0  0  0  0
  4 14  1  0  0  0  0
  5  6  1  0  0  0  0
  5 13  1  1  0  0  0
  6  7  1  0  0  0  0
  6 15  1  6  0  0  0
  7  8  1  0  0  0  0
  7 11  1  6  0  0  0
  8 14  1  0  0  0  0
  8 16  1  6  0  0  0
  9 11  1  0  0  0  0
 17 16  1  1  0  0  0
 17 18  1  0  0  0  0
 17 24  1  0  0  0  0
 18 19  1  0  0  0  0
 18 25  1  1  0  0  0
 19 20  1  0  0  0  0
 19 26  1  6  0  0  0
 20 21  1  0  0  0  0
 20 23  1  1  0  0  0
 21 22  1  6  0  0  0
 21 24  1  0  0  0  0
 22 27  1  0  0  0  0
 28 12  1  6  0  0  0
 28 29  1  0  0  0  0
 28 33  1  0  0  0  0
 29 30  1  0  0  0  0
 29 36  1  6  0  0  0
 30 31  1  0  0  0  0
 30 37  1  6  0  0  0
 31 32  1  0  0  0  0
 31 34  1  1  0  0  0
 32 33  1  0  0  0  0
 33 35  1  1  0  0  0
M  END
>  <CHROM.1>
-79.34781096,-68.47653878,-177.54105917,-175.10293615,-65.15274472,158.15641191
21.41862983,-3.19855928,49.89237828,0.55538035,0.92808960,1.93256810

>  <Name>
2oe5_lig

>  <RI>
0

>  <Rbt.Current_Directory>
/home/itssahil/PROJECTS/Mol_Feturizer/New_Systems/rnas/2oe5

>  <Rbt.Executable>
rbdock ($Id: //depot/dev/client3/rdock/2013.1/src/exe/rbdock.cxx#4 $)

>  <Rbt.Library>
libRbt.so (2013.1, Build901 2013/11/27)

>  <Rbt.Parameter_File>
/export/apps/rDock/src/rDock_2013.1_src/data/scripts/dock_solv.prm

>  <Rbt.Receptor>
prm/pocket_docking_6.prm

>  <SCORE>
-21.5692

>  <SCORE.INTER>
-18.6506

>  <SCORE.INTER.CONST>
1

>  <SCORE.INTER.POLAR>
-2.32587

>  <SCORE.INTER.ROT>
6

>  <SCORE.INTER.SOLV>
13.9256

>  <SCORE.INTER.VDW>
-16.9227

>  <SCORE.INTER.norm>
-0.504069

>  <SCORE.INTRA>
-2.91863

>  <SCORE.INTRA.DIHEDRAL>
-12.0255

>  <SCORE.INTRA.DIHEDRAL.0>
16.2083

>  <SCORE.INTRA.POLAR>
0

>  <SCORE.INTRA.POLAR.0>
0

>  <SCORE.INTRA.REPUL>
0

>  <SCORE.INTRA.REPUL.0>
0

>  <SCORE.INTRA.SOLV>
1.82835

>  <SCORE.INTRA.SOLV.lig_0>
-89.8095

>  <SCORE.INTRA.VDW>
2.17996

>  <SCORE.INTRA.VDW.0>
-3.19502

>  <SCORE.INTRA.norm>
-0.078882

>  <SCORE.RESTR>
0

>  <SCORE.RESTR.CAVITY>
0

>  <SCORE.RESTR.norm>
0

>  <SCORE.SYSTEM>
0

>  <SCORE.SYSTEM.CONST>
0

>  <SCORE.SYSTEM.DIHEDRAL>
0

>  <SCORE.SYSTEM.SOLV>
0

>  <SCORE.SYSTEM.norm>
0

>  <SCORE.heavy>
37

>  <SCORE.norm>
-0.582951

>  <RMSD>
4.942

$$$$
2oe5_lig
 OpenBabel11021811463D
libRbt.so/2013.1/901 2013/11/27
 37 40  0  0  0  0  0  0  0  0999 V2000
   22.7936   -1.9339   51.5836 C   0  0  1  0  0  0  0  0  0  0  0  0
   23.7852   -2.5900   50.5969 C   0  0  1  0  0  0  0  0  0  0  0  0
   23.1877   -2.5285   49.1421 C   0  0  0  0  0  0  0  0  0  0  0  0
   21.8468   -3.2924   49.2192 C   0  0  1  0  0  0  0  0  0  0  0  0
   20.8396   -2.6055   50.2438 C   0  0  1  0  0  0  0  0  0  0  0  0
   19.4816   -3.3543   50.3310 C   0  0  1  0  0  0  0  0  0  0  0  0
   18.8717   -3.3500   48.9004 C   0  0  1  0  0  0  0  0  0  0  0  0
   19.9165   -3.9961   47.9134 C   0  0  2  0  0  0  0  0  0  0  0  0
   16.8036   -4.2943   47.5989 C   0  0  0  0  0  0  0  0  0  0  0  0
   25.0802   -1.8721   50.6287 N   0  0  0  0  0  0  0  0  0  0  0  0
   17.5640   -4.1077   48.8838 N   0  0  0  0  0  0  0  0  0  0  0  0
   22.5931   -0.5401   51.2971 O   0  0  0  0  0  0  0  0  0  0  0  0
   21.4755   -2.5857   51.5627 O   0  0  0  0  0  0  0  0  0  0  0  0
   21.2142   -3.2934   47.9113 O   0  0  0  0  0  0  0  0  0  0  0  0
   19.7402   -4.6836   50.7940 O   0  0  0  0  0  0  0  0  0  0  0  0
   19.4219   -3.9524   46.5895 O   0  0  0  0  0  0  0  0  0  0  0  0
   20.3325   -4.5807   45.7069 C   0  0  2  0  0  0  0  0  0  0  0  0
   20.1586   -4.1120   44.2628 C   0  0  1  0  0  0  0  0  0  0  0  0
   18.7646   -4.5131   43.7068 C   0  0  2  0  0  0  0  0  0  0  0  0
   18.6358   -6.0599   43.8353 C   0  0  1  0  0  0  0  0  0  0  0  0
   18.7806   -6.4372   45.3463 C   0  0  1  0  0  0  0  0  0  0  0  0
   18.7231   -7.9296   45.5854 C   0  0  0  0  0  0  0  0  0  0  0  0
   17.2831   -6.4611   43.2940 N   0  0  0  0  0  0  0  0  0  0  0  0
   20.1192   -6.0251   45.7852 O   0  0  0  0  0  0  0  0  0  0  0  0
   20.3235   -2.6801   44.2491 O   0  0  0  0  0  0  0  0  0  0  0  0
   18.7139   -4.1389   42.3181 O   0  0  0  0  0  0  0  0  0  0  0  0
   19.7623   -8.5972   44.9552 O   0  0  0  0  0  0  0  0  0  0  0  0
   21.8304    0.1557   52.2834 C   0  0  1  0  0  0  0  0  0  0  0  0
   20.3372   -0.3299   52.2437 C   0  0  1  0  0  0  0  0  0  0  0  0
   19.5223    0.4392   53.3451 C   0  0  2  0  0  0  0  0  0  0  0  0
   20.1219    0.1346   54.7261 C   0  0  1  0  0  0  0  0  0  0  0  0
   21.6170    0.6357   54.7692 C   0  0  0  0  0  0  0  0  0  0  0  0
   22.4351   -0.1247   53.6525 C   0  0  2  0  0  0  0  0  0  0  0  0
   19.3481    0.8364   55.7370 N   0  0  0  0  0  0  0  0  0  0  0  0
   23.8484    0.3365   53.6453 N   0  0  0  0  0  0  0  0  0  0  0  0
   19.7646   -0.0435   50.9354 O   0  0  0  0  0  0  0  0  0  0  0  0
   18.1917   -0.0050   53.3255 O   0  0  0  0  0  0  0  0  0  0  0  0
  1  2  1  0  0  0  0
  1 12  1  6  0  0  0
  1 13  1  0  0  0  0
  2  3  1  0  0  0  0
  2 10  1  6  0  0  0
  4  3  1  6  0  0  0
  4  5  1  0  0  0  0
  4 14  1  0  0  0  0
  5  6  1  0  0  0  0
  5 13  1  1  0  0  0
  6  7  1  0  0  0  0
  6 15  1  6  0  0  0
  7  8  1  0  0  0  0
  7 11  1  1  0  0  0
  8 14  1  0  0  0  0
  8 16  1  6  0  0  0
  9 11  1  0  0  0  0
 17 16  1  1  0  0  0
 17 18  1  0  0  0  0
 17 24  1  0  0  0  0
 18 19  1  0  0  0  0
 18 25  1  1  0  0  0
 19 20  1  0  0  0  0
 19 26  1  6  0  0  0
 20 21  1  0  0  0  0
 20 23  1  1  0  0  0
 21 22  1  6  0  0  0
 21 24  1  0  0  0  0
 22 27  1  0  0  0  0
 28 12  1  6  0  0  0
 28 29  1  0  0  0  0
 28 33  1  0  0  0  0
 29 30  1  0  0  0  0
 29 36  1  6  0  0  0
 30 31  1  0  0  0  0
 30 37  1  1  0  0  0
 31 32  1  0  0  0  0
 31 34  1  1  0  0  0
 32 33  1  0  0  0  0
 33 35  1  6  0  0  0
M  END
>  <CHROM.1>
-171.93348993,-177.51371409,-177.61153869,-157.65127849,62.20219508,-69.44113118
20.33627399,-2.95712204,49.05715893,-1.34346418,-0.09767682,-2.11246296

>  <Name>
2oe5_lig

>  <RI>
0

>  <Rbt.Current_Directory>
/home/itssahil/PROJECTS/Mol_Feturizer/New_Systems/rnas/2oe5

>  <Rbt.Executable>
rbdock ($Id: //depot/dev/client3/rdock/2013.1/src/exe/rbdock.cxx#4 $)

>  <Rbt.Library>
libRbt.so (2013.1, Build901 2013/11/27)

>  <Rbt.Parameter_File>
/export/apps/rDock/src/rDock_2013.1_src/data/scripts/dock_solv.prm

>  <Rbt.Receptor>
prm/pocket_docking_7.prm

>  <SCORE>
-25.3415

>  <SCORE.INTER>
-21.9278

>  <SCORE.INTER.CONST>
1

>  <SCORE.INTER.POLAR>
-3.29542

>  <SCORE.INTER.ROT>
6

>  <SCORE.INTER.SOLV>
12.7331

>  <SCORE.INTER.VDW>
-15.4782

>  <SCORE.INTER.norm>
-0.592644

>  <SCORE.INTRA>
-3.41367

>  <SCORE.INTRA.DIHEDRAL>
-13.1268

>  <SCORE.INTRA.DIHEDRAL.0>
16.2083

>  <SCORE.INTRA.POLAR>
0

>  <SCORE.INTRA.POLAR.0>
0

>  <SCORE.INTRA.REPUL>
0

>  <SCORE.INTRA.REPUL.0>
0

>  <SCORE.INTRA.SOLV>
-0.821102

>  <SCORE.INTRA.SOLV.lig_0>
-89.8095

>  <SCORE.INTRA.VDW>
3.56029

>  <SCORE.INTRA.VDW.0>
-3.19502

>  <SCORE.INTRA.norm>
-0.0922613

>  <SCORE.RESTR>
0

>  <SCORE.RESTR.CAVITY>
0

>  <SCORE.RESTR.norm>
0

>  <SCORE.SYSTEM>
0

>  <SCORE.SYSTEM.CONST>
0

>  <SCORE.SYSTEM.DIHEDRAL>
0

>  <SCORE.SYSTEM.SOLV>
0

>  <SCORE.SYSTEM.norm>
0

>  <SCORE.heavy>
37

>  <SCORE.norm>
-0.684905

>  <RMSD>
4.946

$$$$
2oe5_lig
 OpenBabel11021811463D
libRbt.so/2013.1/901 2013/11/27
 37 40  0  0  0  0  0  0  0  0999 V2000
   23.1552   -3.6370   52.3010 C   0  0  1  0  0  0  0  0  0  0  0  0
   24.0316   -3.8947   51.0549 C   0  0  1  0  0  0  0  0  0  0  0  0
   23.1632   -3.6914   49.7581 C   0  0  0  0  0  0  0  0  0  0  0  0
   22.0050   -4.7069   49.8793 C   0  0  1  0  0  0  0  0  0  0  0  0
   21.1158   -4.4294   51.1710 C   0  0  1  0  0  0  0  0  0  0  0  0
   19.9405   -5.4355   51.3080 C   0  0  1  0  0  0  0  0  0  0  0  0
   19.0741   -5.2942   50.0242 C   0  0  1  0  0  0  0  0  0  0  0  0
   20.0003   -5.5317   48.7716 C   0  0  2  0  0  0  0  0  0  0  0  0
   16.7973   -6.1666   49.0661 C   0  0  0  0  0  0  0  0  0  0  0  0
   25.1739   -2.9522   51.0360 N   0  0  0  0  0  0  0  0  0  0  0  0
   17.9289   -6.2803   50.0512 N   0  0  0  0  0  0  0  0  0  0  0  0
   22.6790   -2.2821   52.3524 O   0  0  0  0  0  0  0  0  0  0  0  0
   21.9819   -4.5223   52.3481 O   0  0  0  0  0  0  0  0  0  0  0  0
   21.1412   -4.5973   48.7164 O   0  0  0  0  0  0  0  0  0  0  0  0
   20.4964   -6.7485   51.4314 O   0  0  0  0  0  0  0  0  0  0  0  0
   19.2596   -5.3488   47.5811 O   0  0  0  0  0  0  0  0  0  0  0  0
   20.0821   -5.5822   46.4533 C   0  0  2  0  0  0  0  0  0  0  0  0
   19.3603   -5.2912   45.1381 C   0  0  1  0  0  0  0  0  0  0  0  0
   18.1615   -6.2570   44.9305 C   0  0  2  0  0  0  0  0  0  0  0  0
   18.7169   -7.7113   44.9794 C   0  0  1  0  0  0  0  0  0  0  0  0
   19.3932   -7.9283   46.3729 C   0  0  1  0  0  0  0  0  0  0  0  0
   20.0175   -9.2986   46.5139 C   0  0  0  0  0  0  0  0  0  0  0  0
   17.5579   -8.6595   44.7753 N   0  0  0  0  0  0  0  0  0  0  0  0
   20.5086   -6.9805   46.4825 O   0  0  0  0  0  0  0  0  0  0  0  0
   18.9136   -3.9215   45.1828 O   0  0  0  0  0  0  0  0  0  0  0  0
   17.6006   -5.9987   43.6306 O   0  0  0  0  0  0  0  0  0  0  0  0
   20.9693   -9.5393   45.5347 O   0  0  0  0  0  0  0  0  0  0  0  0
   21.9071   -1.9774   53.5143 C   0  0  1  0  0  0  0  0  0  0  0  0
   22.8383   -1.9393   54.7786 C   0  0  1  0  0  0  0  0  0  0  0  0
   21.9697   -1.5895   56.0403 C   0  0  2  0  0  0  0  0  0  0  0  0
   21.3194   -0.2119   55.8432 C   0  0  1  0  0  0  0  0  0  0  0  0
   20.3735   -0.2558   54.5816 C   0  0  0  0  0  0  0  0  0  0  0  0
   21.2416   -0.6225   53.3141 C   0  0  2  0  0  0  0  0  0  0  0  0
   20.5345    0.1079   57.0242 N   0  0  0  0  0  0  0  0  0  0  0  0
   20.3812   -0.6960   52.1041 N   0  0  0  0  0  0  0  0  0  0  0  0
   23.4578   -3.2437   54.9691 O   0  0  0  0  0  0  0  0  0  0  0  0
   22.8009   -1.5362   57.1693 O   0  0  0  0  0  0  0  0  0  0  0  0
  1  2  1  0  0  0  0
  1 12  1  6  0  0  0
  1 13  1  0  0  0  0
  2  3  1  0  0  0  0
  2 10  1  6  0  0  0
  4  3  1  6  0  0  0
  4  5  1  0  0  0  0
  4 14  1  0  0  0  0
  5  6  1  0  0  0  0
  5 13  1  1  0  0  0
  6  7  1  0  0  0  0
  6 15  1  6  0  0  0
  7  8  1  0  0  0  0
  7 11  1  1  0  0  0
  8 14  1  0  0  0  0
  8 16  1  6  0  0  0
  9 11  1  0  0  0  0
 17 16  1  1  0  0  0
 17 18  1  0  0  0  0
 17 24  1  0  0  0  0
 18 19  1  0  0  0  0
 18 25  1  1  0  0  0
 19 20  1  0  0  0  0
 19 26  1  6  0  0  0
 20 21  1  0  0  0  0
 20 23  1  1  0  0  0
 21 22  1  6  0  0  0
 21 24  1  0  0  0  0
 22 27  1  0  0  0  0
 28 12  1  6  0  0  0
 28 29  1  0  0  0  0
 28 33  1  0  0  0  0
 29 30  1  0  0  0  0
 29 36  1  1  0  0  0
 30 31  1  0  0  0  0
 30 37  1  1  0  0  0
 31 32  1  0  0  0  0
 31 34  1  1  0  0  0
 32 33  1  0  0  0  0
 33 35  1  6  0  0  0
M  END
>  <CHROM.1>
-177.62520394,167.93026429,-179.06149276,-175.50901027,57.96090240,70.68017721
20.69987201,-4.48212129,50.13479530,-1.26495300,0.33812365,-2.22142796

>  <Name>
2oe5_lig

>  <RI>
0

>  <Rbt.Current_Directory>
/home/itssahil/PROJECTS/Mol_Feturizer/New_Systems/rnas/2oe5

>  <Rbt.Executable>
rbdock ($Id: //depot/dev/client3/rdock/2013.1/src/exe/rbdock.cxx#4 $)

>  <Rbt.Library>
libRbt.so (2013.1, Build901 2013/11/27)

>  <Rbt.Parameter_File>
/export/apps/rDock/src/rDock_2013.1_src/data/scripts/dock_solv.prm

>  <Rbt.Receptor>
prm/pocket_docking_6.prm

>  <SCORE>
-19.3711

>  <SCORE.INTER>
-12.2559

>  <SCORE.INTER.CONST>
1

>  <SCORE.INTER.POLAR>
0

>  <SCORE.INTER.ROT>
6

>  <SCORE.INTER.SOLV>
11.9052

>  <SCORE.INTER.VDW>
-19.739

>  <SCORE.INTER.norm>
-0.33124

>  <SCORE.INTRA>
-7.11527

>  <SCORE.INTRA.DIHEDRAL>
-15.3001

>  <SCORE.INTRA.DIHEDRAL.0>
16.2083

>  <SCORE.INTRA.POLAR>
0

>  <SCORE.INTRA.POLAR.0>
0

>  <SCORE.INTRA.REPUL>
0

>  <SCORE.INTRA.REPUL.0>
0

>  <SCORE.INTRA.SOLV>
-2.34074

>  <SCORE.INTRA.SOLV.lig_0>
-89.8095

>  <SCORE.INTRA.VDW>
1.70517

>  <SCORE.INTRA.VDW.0>
-3.19502

>  <SCORE.INTRA.norm>
-0.192304

>  <SCORE.RESTR>
0

>  <SCORE.RESTR.CAVITY>
0

>  <SCORE.RESTR.norm>
0

>  <SCORE.SYSTEM>
0

>  <SCORE.SYSTEM.CONST>
0

>  <SCORE.SYSTEM.DIHEDRAL>
0

>  <SCORE.SYSTEM.SOLV>
0

>  <SCORE.SYSTEM.norm>
0

>  <SCORE.heavy>
37

>  <SCORE.norm>
-0.523544

>  <RMSD>
4.985

$$$$
2oe5_lig
 OpenBabel11021811463D
libRbt.so/2013.1/901 2013/11/27
 37 40  0  0  0  0  0  0  0  0999 V2000
   20.0965    1.7228   57.9139 C   0  0  1  0  0  0  0  0  0  0  0  0
   20.0570    0.2330   58.3215 C   0  0  1  0  0  0  0  0  0  0  0  0
   21.0985   -0.5699   57.4566 C   0  0  0  0  0  0  0  0  0  0  0  0
   20.6643   -0.3526   55.9897 C   0  0  1  0  0  0  0  0  0  0  0  0
   20.7063    1.1881   55.5887 C   0  0  1  0  0  0  0  0  0  0  0  0
   20.2800    1.4279   54.1146 C   0  0  1  0  0  0  0  0  0  0  0  0
   21.2643    0.6183   53.2233 C   0  0  1  0  0  0  0  0  0  0  0  0
   21.2248   -0.8887   53.6822 C   0  0  2  0  0  0  0  0  0  0  0  0
   21.8070    1.4540   50.8005 C   0  0  0  0  0  0  0  0  0  0  0  0
   20.3949    0.0919   59.7565 N   0  0  0  0  0  0  0  0  0  0  0  0
   20.8883    0.7552   51.7657 N   0  0  0  0  0  0  0  0  0  0  0  0
   21.3760    2.3196   58.1813 O   0  0  0  0  0  0  0  0  0  0  0  0
   19.8060    1.9161   56.4853 O   0  0  0  0  0  0  0  0  0  0  0  0
   21.5717   -1.0641   55.1058 O   0  0  0  0  0  0  0  0  0  0  0  0
   18.9316    0.9720   53.9659 O   0  0  0  0  0  0  0  0  0  0  0  0
   22.1557   -1.6462   52.9347 O   0  0  0  0  0  0  0  0  0  0  0  0
   21.6878   -2.9718   52.7713 C   0  0  2  0  0  0  0  0  0  0  0  0
   22.7199   -3.8725   52.0937 C   0  0  1  0  0  0  0  0  0  0  0  0
   23.0112   -3.3993   50.6431 C   0  0  2  0  0  0  0  0  0  0  0  0
   21.6572   -3.3856   49.8735 C   0  0  1  0  0  0  0  0  0  0  0  0
   20.6867   -2.4063   50.6119 C   0  0  1  0  0  0  0  0  0  0  0  0
   19.3147   -2.3525   49.9777 C   0  0  0  0  0  0  0  0  0  0  0  0
   21.9303   -2.9290   48.4589 N   0  0  0  0  0  0  0  0  0  0  0  0
   20.4680   -2.9280   51.9663 O   0  0  0  0  0  0  0  0  0  0  0  0
   23.9178   -3.8377   52.8948 O   0  0  0  0  0  0  0  0  0  0  0  0
   23.9023   -4.3512   50.0340 O   0  0  0  0  0  0  0  0  0  0  0  0
   18.4879   -3.3646   50.4412 O   0  0  0  0  0  0  0  0  0  0  0  0
   21.4940    3.6723   57.7399 C   0  0  1  0  0  0  0  0  0  0  0  0
   20.5210    4.5894   58.5641 C   0  0  1  0  0  0  0  0  0  0  0  0
   20.6785    6.0725   58.0701 C   0  0  2  0  0  0  0  0  0  0  0  0
   22.1269    6.5319   58.2955 C   0  0  1  0  0  0  0  0  0  0  0  0
   23.1016    5.6190   57.4559 C   0  0  0  0  0  0  0  0  0  0  0  0
   22.9340    4.1250   57.9399 C   0  0  2  0  0  0  0  0  0  0  0  0
   22.2545    7.9104   57.8522 N   0  0  0  0  0  0  0  0  0  0  0  0
   23.8220    3.2269   57.1558 N   0  0  0  0  0  0  0  0  0  0  0  0
   19.1461    4.1569   58.3539 O   0  0  0  0  0  0  0  0  0  0  0  0
   19.8244    6.8981   58.8166 O   0  0  0  0  0  0  0  0  0  0  0  0
  1  2  1  0  0  0  0
  1 12  1  6  0  0  0
  1 13  1  0  0  0  0
  2  3  1  0  0  0  0
  2 10  1  1  0  0  0
  4  3  1  1  0  0  0
  4  5  1  0  0  0  0
  4 14  1  0  0  0  0
  5  6  1  0  0  0  0
  5 13  1  1  0  0  0
  6  7  1  0  0  0  0
  6 15  1  1  0  0  0
  7  8  1  0  0  0  0
  7 11  1  6  0  0  0
  8 14  1  0  0  0  0
  8 16  1  6  0  0  0
  9 11  1  0  0  0  0
 17 16  1  6  0  0  0
 17 18  1  0  0  0  0
 17 24  1  0  0  0  0
 18 19  1  0  0  0  0
 18 25  1  1  0  0  0
 19 20  1  0  0  0  0
 19 26  1  6  0  0  0
 20 21  1  0  0  0  0
 20 23  1  6  0  0  0
 21 22  1  6  0  0  0
 21 24  1  0  0  0  0
 22 27  1  0  0  0  0
 28 12  1  1  0  0  0
 28 29  1  0  0  0  0
 28 33  1  0  0  0  0
 29 30  1  0  0  0  0
 29 36  1  6  0  0  0
 30 31  1  0  0  0  0
 30 37  1  1  0  0  0
 31 32  1  0  0  0  0
 31 34  1  6  0  0  0
 32 33  1  0  0  0  0
 33 35  1  6  0  0  0
M  END
>  <CHROM.1>
176.00121880,114.54111820,-148.55191331,-174.15096957,85.01166216,65.88295215
21.22779474,0.64762389,54.70968309,1.87627209,1.42449300,0.45755514

>  <Name>
2oe5_lig

>  <RI>
0

>  <Rbt.Current_Directory>
/home/itssahil/PROJECTS/Mol_Feturizer/New_Systems/rnas/2oe5

>  <Rbt.Executable>
rbdock ($Id: //depot/dev/client3/rdock/2013.1/src/exe/rbdock.cxx#4 $)

>  <Rbt.Library>
libRbt.so (2013.1, Build901 2013/11/27)

>  <Rbt.Parameter_File>
/export/apps/rDock/src/rDock_2013.1_src/data/scripts/dock_solv.prm

>  <Rbt.Receptor>
prm/pocket_docking_7.prm

>  <SCORE>
-13.3527

>  <SCORE.INTER>
-9.09668

>  <SCORE.INTER.CONST>
1

>  <SCORE.INTER.POLAR>
-0.902774

>  <SCORE.INTER.ROT>
6

>  <SCORE.INTER.SOLV>
7.64173

>  <SCORE.INTER.VDW>
-13.2025

>  <SCORE.INTER.norm>
-0.245856

>  <SCORE.INTRA>
-4.25604

>  <SCORE.INTRA.DIHEDRAL>
-8.75016

>  <SCORE.INTRA.DIHEDRAL.0>
16.2083

>  <SCORE.INTRA.POLAR>
0

>  <SCORE.INTRA.POLAR.0>
0

>  <SCORE.INTRA.REPUL>
0

>  <SCORE.INTRA.REPUL.0>
0

>  <SCORE.INTRA.SOLV>
-2.07976

>  <SCORE.INTRA.SOLV.lig_0>
-89.8095

>  <SCORE.INTRA.VDW>
1.15892

>  <SCORE.INTRA.VDW.0>
-3.19502

>  <SCORE.INTRA.norm>
-0.115028

>  <SCORE.RESTR>
0

>  <SCORE.RESTR.CAVITY>
0

>  <SCORE.RESTR.norm>
0

>  <SCORE.SYSTEM>
0

>  <SCORE.SYSTEM.CONST>
0

>  <SCORE.SYSTEM.DIHEDRAL>
0

>  <SCORE.SYSTEM.SOLV>
0

>  <SCORE.SYSTEM.norm>
0

>  <SCORE.heavy>
37

>  <SCORE.norm>
-0.360884

>  <RMSD>
5.140

$$$$
2oe5_lig
 OpenBabel11021811463D
libRbt.so/2013.1/901 2013/11/27
 37 40  0  0  0  0  0  0  0  0999 V2000
   19.5042    0.8744   58.1154 C   0  0  1  0  0  0  0  0  0  0  0  0
   20.1995   -0.4425   58.5272 C   0  0  1  0  0  0  0  0  0  0  0  0
   21.4149   -0.7114   57.5640 C   0  0  0  0  0  0  0  0  0  0  0  0
   20.8031   -0.7906   56.1474 C   0  0  1  0  0  0  0  0  0  0  0  0
   20.0868    0.5727   55.7418 C   0  0  1  0  0  0  0  0  0  0  0  0
   19.4708    0.5168   54.3172 C   0  0  1  0  0  0  0  0  0  0  0  0
   20.6367    0.2141   53.3334 C   0  0  1  0  0  0  0  0  0  0  0  0
   21.3444   -1.1155   53.7963 C   0  0  2  0  0  0  0  0  0  0  0  0
   21.0087    0.3806   50.7456 C   0  0  0  0  0  0  0  0  0  0  0  0
   20.6884   -0.3420   59.9216 N   0  0  0  0  0  0  0  0  0  0  0  0
   20.1143    0.0912   51.9204 N   0  0  0  0  0  0  0  0  0  0  0  0
   20.3760    2.0084   58.2528 O   0  0  0  0  0  0  0  0  0  0  0  0
   19.0334    0.8424   56.7225 O   0  0  0  0  0  0  0  0  0  0  0  0
   21.8561   -1.0417   55.1785 O   0  0  0  0  0  0  0  0  0  0  0  0
   18.4831   -0.5188   54.3044 O   0  0  0  0  0  0  0  0  0  0  0  0
   22.4516   -1.3899   52.9609 O   0  0  0  0  0  0  0  0  0  0  0  0
   22.6877   -2.7842   52.9050 C   0  0  2  0  0  0  0  0  0  0  0  0
   23.6554   -3.1648   51.7850 C   0  0  1  0  0  0  0  0  0  0  0  0
   23.0579   -2.8325   50.3902 C   0  0  2  0  0  0  0  0  0  0  0  0
   21.7018   -3.5888   50.2687 C   0  0  1  0  0  0  0  0  0  0  0  0
   20.7666   -3.1015   51.4238 C   0  0  1  0  0  0  0  0  0  0  0  0
   19.4314   -3.8118   51.4354 C   0  0  0  0  0  0  0  0  0  0  0  0
   21.1131   -3.2742   48.9128 N   0  0  0  0  0  0  0  0  0  0  0  0
   21.4053   -3.4550   52.6972 O   0  0  0  0  0  0  0  0  0  0  0  0
   24.8802   -2.4373   52.0048 O   0  0  0  0  0  0  0  0  0  0  0  0
   23.9705   -3.3150   49.3876 O   0  0  0  0  0  0  0  0  0  0  0  0
   18.5391   -3.2558   50.5312 O   0  0  0  0  0  0  0  0  0  0  0  0
   19.8045    3.2417   57.8159 C   0  0  1  0  0  0  0  0  0  0  0  0
   18.6592    3.6769   58.7987 C   0  0  1  0  0  0  0  0  0  0  0  0
   18.0557    5.0410   58.3052 C   0  0  2  0  0  0  0  0  0  0  0  0
   19.1576    6.1113   58.2991 C   0  0  1  0  0  0  0  0  0  0  0  0
   20.3003    5.6797   57.3010 C   0  0  0  0  0  0  0  0  0  0  0  0
   20.8982    4.3007   57.7861 C   0  0  2  0  0  0  0  0  0  0  0  0
   18.5827    7.3718   57.8591 N   0  0  0  0  0  0  0  0  0  0  0  0
   21.9663    3.8470   56.8570 N   0  0  0  0  0  0  0  0  0  0  0  0
   17.6121    2.6644   58.8081 O   0  0  0  0  0  0  0  0  0  0  0  0
   17.0445    5.4428   59.1908 O   0  0  0  0  0  0  0  0  0  0  0  0
  1  2  1  0  0  0  0
  1 12  1  6  0  0  0
  1 13  1  0  0  0  0
  2  3  1  0  0  0  0
  2 10  1  1  0  0  0
  4  3  1  1  0  0  0
  4  5  1  0  0  0  0
  4 14  1  0  0  0  0
  5  6  1  0  0  0  0
  5 13  1  1  0  0  0
  6  7  1  0  0  0  0
  6 15  1  1  0  0  0
  7  8  1  0  0  0  0
  7 11  1  6  0  0  0
  8 14  1  0  0  0  0
  8 16  1  6  0  0  0
  9 11  1  0  0  0  0
 17 16  1  6  0  0  0
 17 18  1  0  0  0  0
 17 24  1  0  0  0  0
 18 19  1  0  0  0  0
 18 25  1  1  0  0  0
 19 20  1  0  0  0  0
 19 26  1  6  0  0  0
 20 21  1  0  0  0  0
 20 23  1  6  0  0  0
 21 22  1  6  0  0  0
 21 24  1  0  0  0  0
 22 27  1  0  0  0  0
 28 12  1  1  0  0  0
 28 29  1  0  0  0  0
 28 33  1  0  0  0  0
 29 30  1  0  0  0  0
 29 36  1  6  0  0  0
 30 31  1  0  0  0  0
 30 37  1  1  0  0  0
 31 32  1  0  0  0  0
 31 34  1  6  0  0  0
 32 33  1  0  0  0  0
 33 35  1  6  0  0  0
M  END
>  <CHROM.1>
176.77458395,153.94567331,-151.70898682,167.03494639,-82.12656400,69.32022556
20.55822671,0.27843067,54.84246148,-2.21495442,1.10599008,-1.74017654

>  <Name>
2oe5_lig

>  <RI>
0

>  <Rbt.Current_Directory>
/home/itssahil/PROJECTS/Mol_Feturizer/New_Systems/rnas/2oe5

>  <Rbt.Executable>
rbdock ($Id: //depot/dev/client3/rdock/2013.1/src/exe/rbdock.cxx#4 $)

>  <Rbt.Library>
libRbt.so (2013.1, Build901 2013/11/27)

>  <Rbt.Parameter_File>
/export/apps/rDock/src/rDock_2013.1_src/data/scripts/dock_solv.prm

>  <Rbt.Receptor>
prm/pocket_docking_6.prm

>  <SCORE>
-18.3581

>  <SCORE.INTER>
-14.2094

>  <SCORE.INTER.CONST>
1

>  <SCORE.INTER.POLAR>
-1.76811

>  <SCORE.INTER.ROT>
6

>  <SCORE.INTER.SOLV>
12.3648

>  <SCORE.INTER.VDW>
-15.3008

>  <SCORE.INTER.norm>
-0.384039

>  <SCORE.INTRA>
-4.14866

>  <SCORE.INTRA.DIHEDRAL>
-9.52697

>  <SCORE.INTRA.DIHEDRAL.0>
16.2083

>  <SCORE.INTRA.POLAR>
0

>  <SCORE.INTRA.POLAR.0>
0

>  <SCORE.INTRA.REPUL>
0

>  <SCORE.INTRA.REPUL.0>
0

>  <SCORE.INTRA.SOLV>
-0.659166

>  <SCORE.INTRA.SOLV.lig_0>
-89.8095

>  <SCORE.INTRA.VDW>
0.944404

>  <SCORE.INTRA.VDW.0>
-3.19502

>  <SCORE.INTRA.norm>
-0.112126

>  <SCORE.RESTR>
0

>  <SCORE.RESTR.CAVITY>
0

>  <SCORE.RESTR.norm>
0

>  <SCORE.SYSTEM>
0

>  <SCORE.SYSTEM.CONST>
0

>  <SCORE.SYSTEM.DIHEDRAL>
0

>  <SCORE.SYSTEM.SOLV>
0

>  <SCORE.SYSTEM.norm>
0

>  <SCORE.heavy>
37

>  <SCORE.norm>
-0.496165

>  <RMSD>
5.358

$$$$
2oe5_lig
 OpenBabel11021811463D
libRbt.so/2013.1/901 2013/11/27
 37 40  0  0  0  0  0  0  0  0999 V2000
   22.4564   -2.9251   50.4550 C   0  0  1  0  0  0  0  0  0  0  0  0
   23.3719   -2.9117   49.2104 C   0  0  1  0  0  0  0  0  0  0  0  0
   22.5251   -2.5069   47.9470 C   0  0  0  0  0  0  0  0  0  0  0  0
   21.4118   -3.5734   47.8433 C   0  0  1  0  0  0  0  0  0  0  0  0
   20.4815   -3.5763   49.1359 C   0  0  1  0  0  0  0  0  0  0  0  0
   19.3504   -4.6371   49.0488 C   0  0  1  0  0  0  0  0  0  0  0  0
   18.5081   -4.2955   47.7869 C   0  0  1  0  0  0  0  0  0  0  0  0
   19.4726   -4.2591   46.5412 C   0  0  2  0  0  0  0  0  0  0  0  0
   16.6208   -5.8205   48.7745 C   0  0  0  0  0  0  0  0  0  0  0  0
   24.4703   -1.9366   49.4007 N   0  0  0  0  0  0  0  0  0  0  0  0
   17.4086   -5.3150   47.5965 N   0  0  0  0  0  0  0  0  0  0  0  0
   21.9180   -1.6237   50.7403 O   0  0  0  0  0  0  0  0  0  0  0  0
   21.3238   -3.8506   50.3020 O   0  0  0  0  0  0  0  0  0  0  0  0
   20.5707   -3.2852   46.6943 O   0  0  0  0  0  0  0  0  0  0  0  0
   19.9625   -5.9266   48.9455 O   0  0  0  0  0  0  0  0  0  0  0  0
   18.7518   -3.8889   45.3825 O   0  0  0  0  0  0  0  0  0  0  0  0
   19.5160   -4.1635   44.2233 C   0  0  2  0  0  0  0  0  0  0  0  0
   19.0556   -3.3457   43.0172 C   0  0  1  0  0  0  0  0  0  0  0  0
   17.6059   -3.7216   42.6048 C   0  0  2  0  0  0  0  0  0  0  0  0
   17.5831   -5.2513   42.3128 C   0  0  1  0  0  0  0  0  0  0  0  0
   18.0223   -6.0023   43.6125 C   0  0  1  0  0  0  0  0  0  0  0  0
   18.0871   -7.5021   43.4288 C   0  0  0  0  0  0  0  0  0  0  0  0
   16.1765   -5.6271   41.9075 N   0  0  0  0  0  0  0  0  0  0  0  0
   19.3957   -5.5901   43.9263 O   0  0  0  0  0  0  0  0  0  0  0  0
   19.1409   -1.9532   43.3798 O   0  0  0  0  0  0  0  0  0  0  0  0
   17.2815   -2.9968   41.4046 O   0  0  0  0  0  0  0  0  0  0  0  0
   18.5063   -8.1493   44.5812 O   0  0  0  0  0  0  0  0  0  0  0  0
   21.2448   -1.5318   51.9961 C   0  0  1  0  0  0  0  0  0  0  0  0
   22.2959   -1.4491   53.1602 C   0  0  1  0  0  0  0  0  0  0  0  0
   21.5323   -1.3355   54.5286 C   0  0  2  0  0  0  0  0  0  0  0  0
   20.6719   -0.0630   54.5260 C   0  0  1  0  0  0  0  0  0  0  0  0
   19.6074   -0.1539   53.3654 C   0  0  0  0  0  0  0  0  0  0  0  0
   20.3724   -0.2838   51.9898 C   0  0  2  0  0  0  0  0  0  0  0  0
   19.9859    0.0402   55.8034 N   0  0  0  0  0  0  0  0  0  0  0  0
   19.4019   -0.3947   50.8691 N   0  0  0  0  0  0  0  0  0  0  0  0
   23.1147   -2.6537   53.1661 O   0  0  0  0  0  0  0  0  0  0  0  0
   22.4679   -1.2427   55.5700 O   0  0  0  0  0  0  0  0  0  0  0  0
  1  2  1  0  0  0  0
  1 12  1  6  0  0  0
  1 13  1  0  0  0  0
  2  3  1  0  0  0  0
  2 10  1  1  0  0  0
  4  3  1  1  0  0  0
  4  5  1  0  0  0  0
  4 14  1  0  0  0  0
  5  6  1  0  0  0  0
  5 13  1  1  0  0  0
  6  7  1  0  0  0  0
  6 15  1  6  0  0  0
  7  8  1  0  0  0  0
  7 11  1  6  0  0  0
  8 14  1  0  0  0  0
  8 16  1  6  0  0  0
  9 11  1  0  0  0  0
 17 16  1  1  0  0  0
 17 18  1  0  0  0  0
 17 24  1  0  0  0  0
 18 19  1  0  0  0  0
 18 25  1  1  0  0  0
 19 20  1  0  0  0  0
 19 26  1  6  0  0  0
 20 21  1  0  0  0  0
 20 23  1  1  0  0  0
 21 22  1  6  0  0  0
 21 24  1  0  0  0  0
 22 27  1  0  0  0  0
 28 12  1  6  0  0  0
 28 29  1  0  0  0  0
 28 33  1  0  0  0  0
 29 30  1  0  0  0  0
 29 36  1  1  0  0  0
 30 31  1  0  0  0  0
 30 37  1  1  0  0  0
 31 32  1  0  0  0  0
 31 34  1  1  0  0  0
 32 33  1  0  0  0  0
 33 35  1  6  0  0  0
M  END
>  <CHROM.1>
-170.34454399,41.68943465,-165.89906679,-158.78375354,178.66683926,76.86340809
19.98826462,-3.37146093,48.22053869,-1.12746137,-0.74823113,-1.62819699

>  <Name>
2oe5_lig

>  <RI>
0

>  <Rbt.Current_Directory>
/home/itssahil/PROJECTS/Mol_Feturizer/New_Systems/rnas/2oe5

>  <Rbt.Executable>
rbdock ($Id: //depot/dev/client3/rdock/2013.1/src/exe/rbdock.cxx#4 $)

>  <Rbt.Library>
libRbt.so (2013.1, Build901 2013/11/27)

>  <Rbt.Parameter_File>
/export/apps/rDock/src/rDock_2013.1_src/data/scripts/dock_solv.prm

>  <Rbt.Receptor>
prm/pocket_docking_8.prm

>  <SCORE>
-18.7833

>  <SCORE.INTER>
-13.3294

>  <SCORE.INTER.CONST>
1

>  <SCORE.INTER.POLAR>
-1.76373

>  <SCORE.INTER.ROT>
6

>  <SCORE.INTER.SOLV>
15.1964

>  <SCORE.INTER.VDW>
-15.6726

>  <SCORE.INTER.norm>
-0.360254

>  <SCORE.INTRA>
-5.45391

>  <SCORE.INTRA.DIHEDRAL>
-11.1603

>  <SCORE.INTRA.DIHEDRAL.0>
16.2083

>  <SCORE.INTRA.POLAR>
0

>  <SCORE.INTRA.POLAR.0>
0

>  <SCORE.INTRA.REPUL>
0

>  <SCORE.INTRA.REPUL.0>
0

>  <SCORE.INTRA.SOLV>
-2.40158

>  <SCORE.INTRA.SOLV.lig_0>
-89.8095

>  <SCORE.INTRA.VDW>
1.32704

>  <SCORE.INTRA.VDW.0>
-3.19502

>  <SCORE.INTRA.norm>
-0.147403

>  <SCORE.RESTR>
0

>  <SCORE.RESTR.CAVITY>
0

>  <SCORE.RESTR.norm>
0

>  <SCORE.SYSTEM>
0

>  <SCORE.SYSTEM.CONST>
0

>  <SCORE.SYSTEM.DIHEDRAL>
0

>  <SCORE.SYSTEM.SOLV>
0

>  <SCORE.SYSTEM.norm>
0

>  <SCORE.heavy>
37

>  <SCORE.norm>
-0.507657

>  <RMSD>
5.693

$$$$
2oe5_lig
 OpenBabel11021811463D
libRbt.so/2013.1/901 2013/11/27
 37 40  0  0  0  0  0  0  0  0999 V2000
   20.9081   -1.6349   50.2378 C   0  0  1  0  0  0  0  0  0  0  0  0
   22.0430   -1.9299   49.2316 C   0  0  1  0  0  0  0  0  0  0  0  0
   21.4458   -1.9846   47.7764 C   0  0  0  0  0  0  0  0  0  0  0  0
   20.3877   -3.1101   47.8118 C   0  0  1  0  0  0  0  0  0  0  0  0
   19.2290   -2.7918   48.8569 C   0  0  1  0  0  0  0  0  0  0  0  0
   18.1502   -3.9082   48.9029 C   0  0  1  0  0  0  0  0  0  0  0  0
   17.5581   -4.0223   47.4693 C   0  0  1  0  0  0  0  0  0  0  0  0
   18.7410   -4.2922   46.4637 C   0  0  2  0  0  0  0  0  0  0  0  0
   15.2974   -4.9839   46.5599 C   0  0  0  0  0  0  0  0  0  0  0  0
   23.0713   -0.8664   49.3028 N   0  0  0  0  0  0  0  0  0  0  0  0
   16.5293   -5.1281   47.4115 N   0  0  0  0  0  0  0  0  0  0  0  0
   20.3069   -0.3500   50.0085 O   0  0  0  0  0  0  0  0  0  0  0  0
   19.8384   -2.6425   50.1801 O   0  0  0  0  0  0  0  0  0  0  0  0
   19.7761   -3.2410   46.5005 O   0  0  0  0  0  0  0  0  0  0  0  0
   18.7890   -5.1219   49.3116 O   0  0  0  0  0  0  0  0  0  0  0  0
   18.2482   -4.3393   45.1393 O   0  0  0  0  0  0  0  0  0  0  0  0
   19.2548   -4.8043   44.2598 C   0  0  2  0  0  0  0  0  0  0  0  0
   19.3615   -3.9511   42.9964 C   0  0  1  0  0  0  0  0  0  0  0  0
   18.0609   -4.0353   42.1511 C   0  0  2  0  0  0  0  0  0  0  0  0
   17.8137   -5.5369   41.8193 C   0  0  1  0  0  0  0  0  0  0  0  0
   17.6726   -6.3172   43.1674 C   0  0  1  0  0  0  0  0  0  0  0  0
   17.4801   -7.8038   42.9663 C   0  0  0  0  0  0  0  0  0  0  0  0
   16.5511   -5.6295   40.9939 N   0  0  0  0  0  0  0  0  0  0  0  0
   18.9396   -6.1852   43.8967 O   0  0  0  0  0  0  0  0  0  0  0  0
   19.6172   -2.5942   43.4102 O   0  0  0  0  0  0  0  0  0  0  0  0
   18.2732   -3.3008   40.9319 O   0  0  0  0  0  0  0  0  0  0  0  0
   17.3066   -8.4727   44.1684 O   0  0  0  0  0  0  0  0  0  0  0  0
   20.0779    0.4087   51.1962 C   0  0  1  0  0  0  0  0  0  0  0  0
   19.4584   -0.5128   52.3069 C   0  0  1  0  0  0  0  0  0  0  0  0
   19.2283    0.3401   53.6062 C   0  0  2  0  0  0  0  0  0  0  0  0
   20.5750    0.8944   54.0950 C   0  0  1  0  0  0  0  0  0  0  0  0
   21.1891    1.8310   52.9842 C   0  0  0  0  0  0  0  0  0  0  0  0
   21.4070    0.9797   51.6719 C   0  0  2  0  0  0  0  0  0  0  0  0
   20.3511    1.6652   55.3070 N   0  0  0  0  0  0  0  0  0  0  0  0
   21.9655    1.8335   50.5907 N   0  0  0  0  0  0  0  0  0  0  0  0
   18.1813   -1.0414   51.8474 O   0  0  0  0  0  0  0  0  0  0  0  0
   18.6920   -0.4838   54.6071 O   0  0  0  0  0  0  0  0  0  0  0  0
  1  2  1  0  0  0  0
  1 12  1  6  0  0  0
  1 13  1  0  0  0  0
  2  3  1  0  0  0  0
  2 10  1  6  0  0  0
  4  3  1  6  0  0  0
  4  5  1  0  0  0  0
  4 14  1  0  0  0  0
  5  6  1  0  0  0  0
  5 13  1  1  0  0  0
  6  7  1  0  0  0  0
  6 15  1  6  0  0  0
  7  8  1  0  0  0  0
  7 11  1  1  0  0  0
  8 14  1  0  0  0  0
  8 16  1  6  0  0  0
  9 11  1  0  0  0  0
 17 16  1  1  0  0  0
 17 18  1  0  0  0  0
 17 24  1  0  0  0  0
 18 19  1  0  0  0  0
 18 25  1  1  0  0  0
 19 20  1  0  0  0  0
 19 26  1  6  0  0  0
 20 21  1  0  0  0  0
 20 23  1  6  0  0  0
 21 22  1  6  0  0  0
 21 24  1  0  0  0  0
 22 27  1  0  0  0  0
 28 12  1  6  0  0  0
 28 29  1  0  0  0  0
 28 33  1  0  0  0  0
 29 30  1  0  0  0  0
 29 36  1  6  0  0  0
 30 31  1  0  0  0  0
 30 37  1  1  0  0  0
 31 32  1  0  0  0  0
 31 34  1  1  0  0  0
 32 33  1  0  0  0  0
 33 35  1  6  0  0  0
M  END
>  <CHROM.1>
-135.91083586,143.57035206,-170.04256921,-133.74419597,-177.73395784,-44.54090305
19.21027527,-2.82279704,47.80977459,-1.24416860,-0.81215943,-1.88230855

>  <Name>
2oe5_lig

>  <RI>
0

>  <Rbt.Current_Directory>
/home/itssahil/PROJECTS/Mol_Feturizer/New_Systems/rnas/2oe5

>  <Rbt.Executable>
rbdock ($Id: //depot/dev/client3/rdock/2013.1/src/exe/rbdock.cxx#4 $)

>  <Rbt.Library>
libRbt.so (2013.1, Build901 2013/11/27)

>  <Rbt.Parameter_File>
/export/apps/rDock/src/rDock_2013.1_src/data/scripts/dock_solv.prm

>  <Rbt.Receptor>
prm/pocket_docking_7.prm

>  <SCORE>
-19.9103

>  <SCORE.INTER>
-19.9492

>  <SCORE.INTER.CONST>
1

>  <SCORE.INTER.POLAR>
-2.02771

>  <SCORE.INTER.ROT>
6

>  <SCORE.INTER.SOLV>
17.7758

>  <SCORE.INTER.VDW>
-20.0657

>  <SCORE.INTER.norm>
-0.539167

>  <SCORE.INTRA>
0.0224259

>  <SCORE.INTRA.DIHEDRAL>
-1.46228

>  <SCORE.INTRA.DIHEDRAL.0>
16.2083

>  <SCORE.INTRA.POLAR>
0

>  <SCORE.INTRA.POLAR.0>
0

>  <SCORE.INTRA.REPUL>
0

>  <SCORE.INTRA.REPUL.0>
0

>  <SCORE.INTRA.SOLV>
-0.329786

>  <SCORE.INTRA.SOLV.lig_0>
-89.8095

>  <SCORE.INTRA.VDW>
0.91846

>  <SCORE.INTRA.VDW.0>
-3.19502

>  <SCORE.INTRA.norm>
0.000606104

>  <SCORE.RESTR>
0.0164237

>  <SCORE.RESTR.CAVITY>
0.0164237

>  <SCORE.RESTR.norm>
0.000443883

>  <SCORE.SYSTEM>
0

>  <SCORE.SYSTEM.CONST>
0

>  <SCORE.SYSTEM.DIHEDRAL>
0

>  <SCORE.SYSTEM.SOLV>
0

>  <SCORE.SYSTEM.norm>
0

>  <SCORE.heavy>
37

>  <SCORE.norm>
-0.538117

>  <RMSD>
5.913

$$$$
2oe5_lig
 OpenBabel11021811463D
libRbt.so/2013.1/901 2013/11/27
 37 40  0  0  0  0  0  0  0  0999 V2000
   19.7064   -1.9281   50.2905 C   0  0  1  0  0  0  0  0  0  0  0  0
   18.8754   -3.1106   50.8370 C   0  0  1  0  0  0  0  0  0  0  0  0
   19.3400   -4.4403   50.1347 C   0  0  0  0  0  0  0  0  0  0  0  0
   19.1052   -4.2080   48.6253 C   0  0  1  0  0  0  0  0  0  0  0  0
   19.9652   -2.9833   48.0805 C   0  0  1  0  0  0  0  0  0  0  0  0
   19.7492   -2.7371   46.5623 C   0  0  1  0  0  0  0  0  0  0  0  0
   20.1621   -4.0455   45.8301 C   0  0  1  0  0  0  0  0  0  0  0  0
   19.3213   -5.2361   46.4292 C   0  0  2  0  0  0  0  0  0  0  0  0
   18.5380   -3.8943   43.7802 C   0  0  0  0  0  0  0  0  0  0  0  0
   19.0697   -3.2320   52.3002 N   0  0  0  0  0  0  0  0  0  0  0  0
   19.9337   -3.9103   44.3422 N   0  0  0  0  0  0  0  0  0  0  0  0
   21.1041   -2.0678   50.5935 O   0  0  0  0  0  0  0  0  0  0  0  0
   19.5800   -1.7870   48.8321 O   0  0  0  0  0  0  0  0  0  0  0  0
   19.5051   -5.3925   47.8851 O   0  0  0  0  0  0  0  0  0  0  0  0
   18.3668   -2.4281   46.3582 O   0  0  0  0  0  0  0  0  0  0  0  0
   19.7151   -6.4551   45.8307 O   0  0  0  0  0  0  0  0  0  0  0  0
   19.0169   -7.5363   46.4195 C   0  0  2  0  0  0  0  0  0  0  0  0
   19.3077   -8.8643   45.7213 C   0  0  1  0  0  0  0  0  0  0  0  0
   18.8005   -8.8492   44.2532 C   0  0  2  0  0  0  0  0  0  0  0  0
   17.2760   -8.5318   44.2869 C   0  0  1  0  0  0  0  0  0  0  0  0
   17.0828   -7.1403   44.9745 C   0  0  1  0  0  0  0  0  0  0  0  0
   15.6277   -6.7508   45.1096 C   0  0  0  0  0  0  0  0  0  0  0  0
   16.7717   -8.5177   42.8623 N   0  0  0  0  0  0  0  0  0  0  0  0
   17.5856   -7.2459   46.3495 O   0  0  0  0  0  0  0  0  0  0  0  0
   20.7327   -9.0761   45.7694 O   0  0  0  0  0  0  0  0  0  0  0  0
   19.0078  -10.1598   43.6962 O   0  0  0  0  0  0  0  0  0  0  0  0
   15.4770   -5.4844   45.6537 O   0  0  0  0  0  0  0  0  0  0  0  0
   21.6522   -0.9805   51.3391 C   0  0  1  0  0  0  0  0  0  0  0  0
   23.0872   -1.3569   51.8550 C   0  0  1  0  0  0  0  0  0  0  0  0
   23.6739   -0.1418   52.6597 C   0  0  2  0  0  0  0  0  0  0  0  0
   23.7681    1.0816   51.7355 C   0  0  1  0  0  0  0  0  0  0  0  0
   22.3245    1.4671   51.2298 C   0  0  0  0  0  0  0  0  0  0  0  0
   21.7261    0.2415   50.4335 C   0  0  2  0  0  0  0  0  0  0  0  0
   24.3294    2.1926   52.4863 N   0  0  0  0  0  0  0  0  0  0  0  0
   20.3536    0.5570   49.9574 N   0  0  0  0  0  0  0  0  0  0  0  0
   23.0029   -2.5172   52.7314 O   0  0  0  0  0  0  0  0  0  0  0  0
   24.9634   -0.4670   53.1067 O   0  0  0  0  0  0  0  0  0  0  0  0
  1  2  1  0  0  0  0
  1 12  1  6  0  0  0
  1 13  1  0  0  0  0
  2  3  1  0  0  0  0
  2 10  1  1  0  0  0
  4  3  1  1  0  0  0
  4  5  1  0  0  0  0
  4 14  1  0  0  0  0
  5  6  1  0  0  0  0
  5 13  1  1  0  0  0
  6  7  1  0  0  0  0
  6 15  1  1  0  0  0
  7  8  1  0  0  0  0
  7 11  1  6  0  0  0
  8 14  1  0  0  0  0
  8 16  1  6  0  0  0
  9 11  1  0  0  0  0
 17 16  1  6  0  0  0
 17 18  1  0  0  0  0
 17 24  1  0  0  0  0
 18 19  1  0  0  0  0
 18 25  1  6  0  0  0
 19 20  1  0  0  0  0
 19 26  1  1  0  0  0
 20 21  1  0  0  0  0
 20 23  1  6  0  0  0
 21 22  1  1  0  0  0
 21 24  1  0  0  0  0
 22 27  1  0  0  0  0
 28 12  1  6  0  0  0
 28 29  1  0  0  0  0
 28 33  1  0  0  0  0
 29 30  1  0  0  0  0
 29 36  1  1  0  0  0
 30 31  1  0  0  0  0
 30 37  1  6  0  0  0
 31 32  1  0  0  0  0
 31 34  1  1  0  0  0
 32 33  1  0  0  0  0
 33 35  1  1  0  0  0
M  END
>  <CHROM.1>
-122.24456454,-71.47294228,176.68179174,174.65100256,-176.70370442,168.93041066
19.92513276,-3.98224760,48.06839109,0.95171579,-0.79074396,0.28834022

>  <Name>
2oe5_lig

>  <RI>
0

>  <Rbt.Current_Directory>
/home/itssahil/PROJECTS/Mol_Feturizer/New_Systems/rnas/2oe5

>  <Rbt.Executable>
rbdock ($Id: //depot/dev/client3/rdock/2013.1/src/exe/rbdock.cxx#4 $)

>  <Rbt.Library>
libRbt.so (2013.1, Build901 2013/11/27)

>  <Rbt.Parameter_File>
/export/apps/rDock/src/rDock_2013.1_src/data/scripts/dock_solv.prm

>  <Rbt.Receptor>
prm/pocket_docking_6.prm

>  <SCORE>
-16.6819

>  <SCORE.INTER>
-15.9746

>  <SCORE.INTER.CONST>
1

>  <SCORE.INTER.POLAR>
-2.18794

>  <SCORE.INTER.ROT>
6

>  <SCORE.INTER.SOLV>
22.8468

>  <SCORE.INTER.VDW>
-18.5722

>  <SCORE.INTER.norm>
-0.431745

>  <SCORE.INTRA>
-0.707349

>  <SCORE.INTRA.DIHEDRAL>
-8.10477

>  <SCORE.INTRA.DIHEDRAL.0>
16.2083

>  <SCORE.INTRA.POLAR>
0

>  <SCORE.INTRA.POLAR.0>
0

>  <SCORE.INTRA.REPUL>
0.00281455

>  <SCORE.INTRA.REPUL.0>
0

>  <SCORE.INTRA.SOLV>
-0.338623

>  <SCORE.INTRA.SOLV.lig_0>
-89.8095

>  <SCORE.INTRA.VDW>
3.50027

>  <SCORE.INTRA.VDW.0>
-3.19502

>  <SCORE.INTRA.norm>
-0.0191175

>  <SCORE.RESTR>
0

>  <SCORE.RESTR.CAVITY>
0

>  <SCORE.RESTR.norm>
0

>  <SCORE.SYSTEM>
0

>  <SCORE.SYSTEM.CONST>
0

>  <SCORE.SYSTEM.DIHEDRAL>
0

>  <SCORE.SYSTEM.SOLV>
0

>  <SCORE.SYSTEM.norm>
0

>  <SCORE.heavy>
37

>  <SCORE.norm>
-0.450863

>  <RMSD>
6.192

$$$$
2oe5_lig
 OpenBabel11021811463D
libRbt.so/2013.1/901 2013/11/27
 37 40  0  0  0  0  0  0  0  0999 V2000
   23.3937   -4.8382   50.5925 C   0  0  1  0  0  0  0  0  0  0  0  0
   23.8351   -5.6308   49.3418 C   0  0  1  0  0  0  0  0  0  0  0  0
   23.0056   -5.1410   48.0970 C   0  0  0  0  0  0  0  0  0  0  0  0
   21.5274   -5.4017   48.4636 C   0  0  1  0  0  0  0  0  0  0  0  0
   21.0914   -4.5811   49.7570 C   0  0  1  0  0  0  0  0  0  0  0  0
   19.6056   -4.8235   50.1388 C   0  0  1  0  0  0  0  0  0  0  0  0
   18.7489   -4.3864   48.9166 C   0  0  1  0  0  0  0  0  0  0  0  0
   19.2421   -5.1879   47.6527 C   0  0  2  0  0  0  0  0  0  0  0  0
   16.7727   -6.0371   49.3990 C   0  0  0  0  0  0  0  0  0  0  0  0
   25.2782   -5.4141   49.0887 N   0  0  0  0  0  0  0  0  0  0  0  0
   17.2829   -4.6379   49.1848 N   0  0  0  0  0  0  0  0  0  0  0  0
   23.6673   -3.4334   50.4629 O   0  0  0  0  0  0  0  0  0  0  0  0
   21.9565   -4.9874   50.8665 O   0  0  0  0  0  0  0  0  0  0  0  0
   20.6747   -4.9810   47.3652 O   0  0  0  0  0  0  0  0  0  0  0  0
   19.4463   -6.2160   50.4280 O   0  0  0  0  0  0  0  0  0  0  0  0
   18.5272   -4.7705   46.5064 O   0  0  0  0  0  0  0  0  0  0  0  0
   17.3671   -5.5636   46.3385 C   0  0  2  0  0  0  0  0  0  0  0  0
   17.6507   -6.8506   45.5648 C   0  0  1  0  0  0  0  0  0  0  0  0
   18.1046   -6.5431   44.1114 C   0  0  2  0  0  0  0  0  0  0  0  0
   16.9838   -5.6959   43.4394 C   0  0  1  0  0  0  0  0  0  0  0  0
   16.7985   -4.3846   44.2717 C   0  0  1  0  0  0  0  0  0  0  0  0
   15.6918   -3.5031   43.7371 C   0  0  0  0  0  0  0  0  0  0  0  0
   17.4147   -5.3935   42.0227 N   0  0  0  0  0  0  0  0  0  0  0  0
   16.3712   -4.7676   45.6227 O   0  0  0  0  0  0  0  0  0  0  0  0
   18.6745   -7.5698   46.2806 O   0  0  0  0  0  0  0  0  0  0  0  0
   18.2468   -7.7941   43.4145 O   0  0  0  0  0  0  0  0  0  0  0  0
   15.6115   -2.2986   44.4192 O   0  0  0  0  0  0  0  0  0  0  0  0
   22.9251   -2.6079   51.3609 C   0  0  1  0  0  0  0  0  0  0  0  0
   23.3922   -2.8711   52.8372 C   0  0  1  0  0  0  0  0  0  0  0  0
   22.5718   -1.9431   53.8039 C   0  0  2  0  0  0  0  0  0  0  0  0
   22.8324   -0.4736   53.4400 C   0  0  1  0  0  0  0  0  0  0  0  0
   22.3497   -0.2074   51.9620 C   0  0  0  0  0  0  0  0  0  0  0  0
   23.1620   -1.1503   50.9896 C   0  0  2  0  0  0  0  0  0  0  0  0
   22.0832    0.3740   54.3528 N   0  0  0  0  0  0  0  0  0  0  0  0
   22.7200   -0.9455   49.5851 N   0  0  0  0  0  0  0  0  0  0  0  0
   23.1475   -4.2638   53.1865 O   0  0  0  0  0  0  0  0  0  0  0  0
   22.9989   -2.1617   55.1222 O   0  0  0  0  0  0  0  0  0  0  0  0
  1  2  1  0  0  0  0
  1 12  1  6  0  0  0
  1 13  1  0  0  0  0
  2  3  1  0  0  0  0
  2 10  1  6  0  0  0
  4  3  1  6  0  0  0
  4  5  1  0  0  0  0
  4 14  1  0  0  0  0
  5  6  1  0  0  0  0
  5 13  1  1  0  0  0
  6  7  1  0  0  0  0
  6 15  1  6  0  0  0
  7  8  1  0  0  0  0
  7 11  1  1  0  0  0
  8 14  1  0  0  0  0
  8 16  1  6  0  0  0
  9 11  1  0  0  0  0
 17 16  1  6  0  0  0
 17 18  1  0  0  0  0
 17 24  1  0  0  0  0
 18 19  1  0  0  0  0
 18 25  1  1  0  0  0
 19 20  1  0  0  0  0
 19 26  1  6  0  0  0
 20 21  1  0  0  0  0
 20 23  1  6  0  0  0
 21 22  1  6  0  0  0
 21 24  1  0  0  0  0
 22 27  1  0  0  0  0
 28 12  1  6  0  0  0
 28 29  1  0  0  0  0
 28 33  1  0  0  0  0
 29 30  1  0  0  0  0
 29 36  1  1  0  0  0
 30 31  1  0  0  0  0
 30 37  1  1  0  0  0
 31 32  1  0  0  0  0
 31 34  1  1  0  0  0
 32 33  1  0  0  0  0
 33 35  1  6  0  0  0
M  END
>  <CHROM.1>
161.21192138,-63.22222392,-90.37075484,-85.82665244,-175.18928242,67.30596589
20.27162896,-4.27228629,48.69370518,-0.83658817,0.55683715,-2.39250996

>  <Name>
2oe5_lig

>  <RI>
0

>  <Rbt.Current_Directory>
/home/itssahil/PROJECTS/Mol_Feturizer/New_Systems/rnas/2oe5

>  <Rbt.Executable>
rbdock ($Id: //depot/dev/client3/rdock/2013.1/src/exe/rbdock.cxx#4 $)

>  <Rbt.Library>
libRbt.so (2013.1, Build901 2013/11/27)

>  <Rbt.Parameter_File>
/export/apps/rDock/src/rDock_2013.1_src/data/scripts/dock_solv.prm

>  <Rbt.Receptor>
prm/blind_docking_60.prm

>  <SCORE>
-15.5426

>  <SCORE.INTER>
-14.3826

>  <SCORE.INTER.CONST>
1

>  <SCORE.INTER.POLAR>
-2.0146

>  <SCORE.INTER.ROT>
6

>  <SCORE.INTER.SOLV>
11.5015

>  <SCORE.INTER.VDW>
-14.3069

>  <SCORE.INTER.norm>
-0.388718

>  <SCORE.INTRA>
-1.18231

>  <SCORE.INTRA.DIHEDRAL>
-7.72137

>  <SCORE.INTRA.DIHEDRAL.0>
16.2083

>  <SCORE.INTRA.POLAR>
0

>  <SCORE.INTRA.POLAR.0>
0

>  <SCORE.INTRA.REPUL>
0

>  <SCORE.INTRA.REPUL.0>
0

>  <SCORE.INTRA.SOLV>
-1.77626

>  <SCORE.INTRA.SOLV.lig_0>
-89.8095

>  <SCORE.INTRA.VDW>
3.5665

>  <SCORE.INTRA.VDW.0>
-3.19502

>  <SCORE.INTRA.norm>
-0.0319543

>  <SCORE.RESTR>
0.0222496

>  <SCORE.RESTR.CAVITY>
0.0222496

>  <SCORE.RESTR.norm>
0.000601342

>  <SCORE.SYSTEM>
0

>  <SCORE.SYSTEM.CONST>
0

>  <SCORE.SYSTEM.DIHEDRAL>
0

>  <SCORE.SYSTEM.SOLV>
0

>  <SCORE.SYSTEM.norm>
0

>  <SCORE.heavy>
37

>  <SCORE.norm>
-0.420071

>  <RMSD>
6.227

$$$$
2oe5_lig
 OpenBabel11021811463D
libRbt.so/2013.1/901 2013/11/27
 37 40  0  0  0  0  0  0  0  0999 V2000
   18.4032    3.5601   59.8409 C   0  0  1  0  0  0  0  0  0  0  0  0
   18.0535    4.5173   58.6795 C   0  0  1  0  0  0  0  0  0  0  0  0
   17.9372    3.6927   57.3439 C   0  0  0  0  0  0  0  0  0  0  0  0
   19.3173    3.0238   57.1559 C   0  0  1  0  0  0  0  0  0  0  0  0
   19.6632    2.0452   58.3638 C   0  0  1  0  0  0  0  0  0  0  0  0
   21.0444    1.3564   58.1907 C   0  0  1  0  0  0  0  0  0  0  0  0
   20.9860    0.5575   56.8576 C   0  0  1  0  0  0  0  0  0  0  0  0
   20.5979    1.5527   55.6991 C   0  0  2  0  0  0  0  0  0  0  0  0
   22.3831   -1.3913   55.8027 C   0  0  0  0  0  0  0  0  0  0  0  0
   16.7661    5.1961   58.9534 N   0  0  0  0  0  0  0  0  0  0  0  0
   22.3156   -0.1072   56.5839 N   0  0  0  0  0  0  0  0  0  0  0  0
   17.3697    2.5873   60.0656 O   0  0  0  0  0  0  0  0  0  0  0  0
   19.6565    2.8292   59.6006 O   0  0  0  0  0  0  0  0  0  0  0  0
   19.3109    2.2349   55.9360 O   0  0  0  0  0  0  0  0  0  0  0  0
   22.0453    2.3787   58.1535 O   0  0  0  0  0  0  0  0  0  0  0  0
   20.4731    0.8491   54.4790 O   0  0  0  0  0  0  0  0  0  0  0  0
   20.3349    1.7579   53.4029 C   0  0  2  0  0  0  0  0  0  0  0  0
   19.5493    1.1609   52.2360 C   0  0  1  0  0  0  0  0  0  0  0  0
   20.3033   -0.0446   51.6104 C   0  0  2  0  0  0  0  0  0  0  0  0
   21.7086    0.4601   51.1673 C   0  0  1  0  0  0  0  0  0  0  0  0
   22.4507    1.0073   52.4307 C   0  0  1  0  0  0  0  0  0  0  0  0
   23.8149    1.5751   52.1085 C   0  0  0  0  0  0  0  0  0  0  0  0
   22.4499   -0.7055   50.5542 N   0  0  0  0  0  0  0  0  0  0  0  0
   21.6733    2.1375   52.9530 O   0  0  0  0  0  0  0  0  0  0  0  0
   18.2627    0.7539   52.7428 O   0  0  0  0  0  0  0  0  0  0  0  0
   19.5631   -0.4837   50.4570 O   0  0  0  0  0  0  0  0  0  0  0  0
   24.4593    2.0530   53.2394 O   0  0  0  0  0  0  0  0  0  0  0  0
   17.4969    1.8723   61.2949 C   0  0  1  0  0  0  0  0  0  0  0  0
   17.1771    2.8251   62.5019 C   0  0  1  0  0  0  0  0  0  0  0  0
   17.3106    2.0134   63.8405 C   0  0  2  0  0  0  0  0  0  0  0  0
   16.3094    0.8484   63.8301 C   0  0  1  0  0  0  0  0  0  0  0  0
   16.6407   -0.1151   62.6259 C   0  0  0  0  0  0  0  0  0  0  0  0
   16.5224    0.7024   61.2798 C   0  0  2  0  0  0  0  0  0  0  0  0
   16.4297    0.1173   65.0808 N   0  0  0  0  0  0  0  0  0  0  0  0
   16.8496   -0.1666   60.1189 N   0  0  0  0  0  0  0  0  0  0  0  0
   18.1238    3.9319   62.5153 O   0  0  0  0  0  0  0  0  0  0  0  0
   17.0076    2.8561   64.9205 O   0  0  0  0  0  0  0  0  0  0  0  0
  1  2  1  0  0  0  0
  1 12  1  6  0  0  0
  1 13  1  0  0  0  0
  2  3  1  0  0  0  0
  2 10  1  1  0  0  0
  4  3  1  1  0  0  0
  4  5  1  0  0  0  0
  4 14  1  0  0  0  0
  5  6  1  0  0  0  0
  5 13  1  1  0  0  0
  6  7  1  0  0  0  0
  6 15  1  6  0  0  0
  7  8  1  0  0  0  0
  7 11  1  6  0  0  0
  8 14  1  0  0  0  0
  8 16  1  6  0  0  0
  9 11  1  0  0  0  0
 17 16  1  1  0  0  0
 17 18  1  0  0  0  0
 17 24  1  0  0  0  0
 18 19  1  0  0  0  0
 18 25  1  1  0  0  0
 19 20  1  0  0  0  0
 19 26  1  6  0  0  0
 20 21  1  0  0  0  0
 20 23  1  1  0  0  0
 21 22  1  6  0  0  0
 21 24  1  0  0  0  0
 22 27  1  0  0  0  0
 28 12  1  6  0  0  0
 28 29  1  0  0  0  0
 28 33  1  0  0  0  0
 29 30  1  0  0  0  0
 29 36  1  1  0  0  0
 30 31  1  0  0  0  0
 30 37  1  1  0  0  0
 31 32  1  0  0  0  0
 31 34  1  1  0  0  0
 32 33  1  0  0  0  0
 33 35  1  6  0  0  0
M  END
>  <CHROM.1>
-166.99909898,150.82512751,-170.77238850,-152.14408672,-179.88335825,70.73438695
19.50704716,1.61395345,57.33631077,1.98202167,-0.15781958,1.50768710

>  <Name>
2oe5_lig

>  <RI>
0

>  <Rbt.Current_Directory>
/home/itssahil/PROJECTS/Mol_Feturizer/New_Systems/rnas/2oe5

>  <Rbt.Executable>
rbdock ($Id: //depot/dev/client3/rdock/2013.1/src/exe/rbdock.cxx#4 $)

>  <Rbt.Library>
libRbt.so (2013.1, Build901 2013/11/27)

>  <Rbt.Parameter_File>
/export/apps/rDock/src/rDock_2013.1_src/data/scripts/dock_solv.prm

>  <Rbt.Receptor>
prm/pocket_docking_8.prm

>  <SCORE>
-18.4773

>  <SCORE.INTER>
-12.3973

>  <SCORE.INTER.CONST>
1

>  <SCORE.INTER.POLAR>
-1.95843

>  <SCORE.INTER.ROT>
6

>  <SCORE.INTER.SOLV>
12.1455

>  <SCORE.INTER.VDW>
-13.3853

>  <SCORE.INTER.norm>
-0.335063

>  <SCORE.INTRA>
-6.07996

>  <SCORE.INTRA.DIHEDRAL>
-10.5903

>  <SCORE.INTRA.DIHEDRAL.0>
16.2083

>  <SCORE.INTRA.POLAR>
0

>  <SCORE.INTRA.POLAR.0>
0

>  <SCORE.INTRA.REPUL>
0

>  <SCORE.INTRA.REPUL.0>
0

>  <SCORE.INTRA.SOLV>
-2.71074

>  <SCORE.INTRA.SOLV.lig_0>
-89.8095

>  <SCORE.INTRA.VDW>
0.570587

>  <SCORE.INTRA.VDW.0>
-3.19502

>  <SCORE.INTRA.norm>
-0.164323

>  <SCORE.RESTR>
0

>  <SCORE.RESTR.CAVITY>
0

>  <SCORE.RESTR.norm>
0

>  <SCORE.SYSTEM>
0

>  <SCORE.SYSTEM.CONST>
0

>  <SCORE.SYSTEM.DIHEDRAL>
0

>  <SCORE.SYSTEM.SOLV>
0

>  <SCORE.SYSTEM.norm>
0

>  <SCORE.heavy>
37

>  <SCORE.norm>
-0.499387

>  <RMSD>
6.946

$$$$
2oe5_lig
 OpenBabel11021811463D
libRbt.so/2013.1/901 2013/11/27
 37 40  0  0  0  0  0  0  0  0999 V2000
   19.4423   -3.6717   50.0772 C   0  0  1  0  0  0  0  0  0  0  0  0
   20.4989   -4.6664   49.5467 C   0  0  1  0  0  0  0  0  0  0  0  0
   20.6520   -4.4810   47.9913 C   0  0  0  0  0  0  0  0  0  0  0  0
   19.2473   -4.7528   47.4079 C   0  0  1  0  0  0  0  0  0  0  0  0
   18.1707   -3.7221   47.9690 C   0  0  1  0  0  0  0  0  0  0  0  0
   16.7520   -3.9734   47.3889 C   0  0  1  0  0  0  0  0  0  0  0  0
   16.8659   -3.8368   45.8439 C   0  0  1  0  0  0  0  0  0  0  0  0
   17.9706   -4.8397   45.3369 C   0  0  2  0  0  0  0  0  0  0  0  0
   14.8374   -3.0577   44.3807 C   0  0  0  0  0  0  0  0  0  0  0  0
   21.8028   -4.4175   50.2035 N   0  0  0  0  0  0  0  0  0  0  0  0
   15.5320   -4.1182   45.1911 N   0  0  0  0  0  0  0  0  0  0  0  0
   19.8426   -2.3058   49.8793 O   0  0  0  0  0  0  0  0  0  0  0  0
   18.1352   -3.8501   49.4273 O   0  0  0  0  0  0  0  0  0  0  0  0
   19.2867   -4.6077   45.9629 O   0  0  0  0  0  0  0  0  0  0  0  0
   16.3439   -5.2891   47.7769 O   0  0  0  0  0  0  0  0  0  0  0  0
   18.1473   -4.6989   43.9412 O   0  0  0  0  0  0  0  0  0  0  0  0
   18.1598   -5.9703   43.3197 C   0  0  2  0  0  0  0  0  0  0  0  0
   18.4435   -5.8811   41.8206 C   0  0  1  0  0  0  0  0  0  0  0  0
   17.3123   -5.1161   41.0801 C   0  0  2  0  0  0  0  0  0  0  0  0
   15.9742   -5.8564   41.3755 C   0  0  1  0  0  0  0  0  0  0  0  0
   15.7483   -5.8564   42.9231 C   0  0  1  0  0  0  0  0  0  0  0  0
   14.4959   -6.5990   43.3322 C   0  0  0  0  0  0  0  0  0  0  0  0
   14.8668   -5.1211   40.6566 N   0  0  0  0  0  0  0  0  0  0  0  0
   16.8567   -6.5965   43.5381 O   0  0  0  0  0  0  0  0  0  0  0  0
   19.7084   -5.2093   41.6583 O   0  0  0  0  0  0  0  0  0  0  0  0
   17.5898   -5.1663   39.6689 O   0  0  0  0  0  0  0  0  0  0  0  0
   13.3463   -5.9621   42.8902 O   0  0  0  0  0  0  0  0  0  0  0  0
   20.7822   -1.8266   50.8417 C   0  0  1  0  0  0  0  0  0  0  0  0
   21.5706   -0.6019   50.2538 C   0  0  1  0  0  0  0  0  0  0  0  0
   22.5872   -0.0848   51.3342 C   0  0  2  0  0  0  0  0  0  0  0  0
   21.8159    0.3580   52.5867 C   0  0  1  0  0  0  0  0  0  0  0  0
   21.0362   -0.8763   53.1841 C   0  0  0  0  0  0  0  0  0  0  0  0
   20.0243   -1.4079   52.0942 C   0  0  2  0  0  0  0  0  0  0  0  0
   22.7655    0.8514   53.5705 N   0  0  0  0  0  0  0  0  0  0  0  0
   19.2832   -2.5882   52.6115 N   0  0  0  0  0  0  0  0  0  0  0  0
   22.3031   -1.0170   49.0653 O   0  0  0  0  0  0  0  0  0  0  0  0
   23.2807    1.0210   50.8198 O   0  0  0  0  0  0  0  0  0  0  0  0
  1  2  1  0  0  0  0
  1 12  1  6  0  0  0
  1 13  1  0  0  0  0
  2  3  1  0  0  0  0
  2 10  1  1  0  0  0
  4  3  1  1  0  0  0
  4  5  1  0  0  0  0
  4 14  1  0  0  0  0
  5  6  1  0  0  0  0
  5 13  1  1  0  0  0
  6  7  1  0  0  0  0
  6 15  1  6  0  0  0
  7  8  1  0  0  0  0
  7 11  1  6  0  0  0
  8 14  1  0  0  0  0
  8 16  1  6  0  0  0
  9 11  1  0  0  0  0
 17 16  1  6  0  0  0
 17 18  1  0  0  0  0
 17 24  1  0  0  0  0
 18 19  1  0  0  0  0
 18 25  1  1  0  0  0
 19 20  1  0  0  0  0
 19 26  1  6  0  0  0
 20 21  1  0  0  0  0
 20 23  1  6  0  0  0
 21 22  1  6  0  0  0
 21 24  1  0  0  0  0
 22 27  1  0  0  0  0
 28 12  1  6  0  0  0
 28 29  1  0  0  0  0
 28 33  1  0  0  0  0
 29 30  1  0  0  0  0
 29 36  1  6  0  0  0
 30 31  1  0  0  0  0
 30 37  1  6  0  0  0
 31 32  1  0  0  0  0
 31 34  1  1  0  0  0
 32 33  1  0  0  0  0
 33 35  1  1  0  0  0
M  END
>  <CHROM.1>
-79.39414036,118.58200866,-132.97270608,-176.10275000,-66.50269240,157.61265822
18.67137646,-3.68286518,46.88908721,1.06427462,0.38078434,1.32230179

>  <Name>
2oe5_lig

>  <RI>
0

>  <Rbt.Current_Directory>
/home/itssahil/PROJECTS/Mol_Feturizer/New_Systems/rnas/2oe5

>  <Rbt.Executable>
rbdock ($Id: //depot/dev/client3/rdock/2013.1/src/exe/rbdock.cxx#4 $)

>  <Rbt.Library>
libRbt.so (2013.1, Build901 2013/11/27)

>  <Rbt.Parameter_File>
/export/apps/rDock/src/rDock_2013.1_src/data/scripts/dock_solv.prm

>  <Rbt.Receptor>
prm/blind_docking_60.prm

>  <SCORE>
-16.1138

>  <SCORE.INTER>
-15.7045

>  <SCORE.INTER.CONST>
1

>  <SCORE.INTER.POLAR>
-2.0381

>  <SCORE.INTER.ROT>
6

>  <SCORE.INTER.SOLV>
11.8028

>  <SCORE.INTER.VDW>
-15.2103

>  <SCORE.INTER.norm>
-0.424446

>  <SCORE.INTRA>
-0.412002

>  <SCORE.INTRA.DIHEDRAL>
-4.44824

>  <SCORE.INTRA.DIHEDRAL.0>
16.2083

>  <SCORE.INTRA.POLAR>
0

>  <SCORE.INTRA.POLAR.0>
0

>  <SCORE.INTRA.REPUL>
0

>  <SCORE.INTRA.REPUL.0>
0

>  <SCORE.INTRA.SOLV>
3.67646

>  <SCORE.INTRA.SOLV.lig_0>
-89.8095

>  <SCORE.INTRA.VDW>
-0.026113

>  <SCORE.INTRA.VDW.0>
-3.19502

>  <SCORE.INTRA.norm>
-0.0111352

>  <SCORE.RESTR>
0.00266874

>  <SCORE.RESTR.CAVITY>
0.00266874

>  <SCORE.RESTR.norm>
7.2128e-05

>  <SCORE.SYSTEM>
0

>  <SCORE.SYSTEM.CONST>
0

>  <SCORE.SYSTEM.DIHEDRAL>
0

>  <SCORE.SYSTEM.SOLV>
0

>  <SCORE.SYSTEM.norm>
0

>  <SCORE.heavy>
37

>  <SCORE.norm>
-0.435509

>  <RMSD>
7.278

$$$$
2oe5_lig
 OpenBabel11021811463D
libRbt.so/2013.1/901 2013/11/27
 37 40  0  0  0  0  0  0  0  0999 V2000
   17.8271    3.3329   60.0177 C   0  0  1  0  0  0  0  0  0  0  0  0
   17.9267    4.4549   58.9600 C   0  0  1  0  0  0  0  0  0  0  0  0
   17.8324    3.8227   57.5217 C   0  0  0  0  0  0  0  0  0  0  0  0
   19.0130    2.8296   57.4345 C   0  0  1  0  0  0  0  0  0  0  0  0
   18.8966    1.6836   58.5343 C   0  0  1  0  0  0  0  0  0  0  0  0
   20.0707    0.6697   58.4592 C   0  0  1  0  0  0  0  0  0  0  0  0
   20.0377    0.0464   57.0347 C   0  0  1  0  0  0  0  0  0  0  0  0
   20.1097    1.2148   55.9798 C   0  0  2  0  0  0  0  0  0  0  0  0
   22.6028   -0.4221   56.7831 C   0  0  0  0  0  0  0  0  0  0  0  0
   16.8227    5.4245   59.1455 N   0  0  0  0  0  0  0  0  0  0  0  0
   21.1853   -0.9211   56.8571 N   0  0  0  0  0  0  0  0  0  0  0  0
   16.5607    2.6559   59.9656 O   0  0  0  0  0  0  0  0  0  0  0  0
   18.8798    2.3192   59.8534 O   0  0  0  0  0  0  0  0  0  0  0  0
   19.0131    2.1910   56.1295 O   0  0  0  0  0  0  0  0  0  0  0  0
   21.2870    1.3851   58.6975 O   0  0  0  0  0  0  0  0  0  0  0  0
   20.0183    0.6898   54.6701 O   0  0  0  0  0  0  0  0  0  0  0  0
   20.2450    1.7116   53.7174 C   0  0  2  0  0  0  0  0  0  0  0  0
   19.6870    1.3553   52.3400 C   0  0  1  0  0  0  0  0  0  0  0  0
   20.4155    0.1206   51.7418 C   0  0  2  0  0  0  0  0  0  0  0  0
   21.9355    0.4552   51.6845 C   0  0  1  0  0  0  0  0  0  0  0  0
   22.4230    0.7592   53.1392 C   0  0  1  0  0  0  0  0  0  0  0  0
   23.8829    1.1501   53.1979 C   0  0  0  0  0  0  0  0  0  0  0  0
   22.6536   -0.7396   51.1007 N   0  0  0  0  0  0  0  0  0  0  0  0
   21.6870    1.9336   53.6226 O   0  0  0  0  0  0  0  0  0  0  0  0
   18.2784    1.0930   52.4977 O   0  0  0  0  0  0  0  0  0  0  0  0
   19.9172   -0.0883   50.4080 O   0  0  0  0  0  0  0  0  0  0  0  0
   24.1730    2.2054   52.3466 O   0  0  0  0  0  0  0  0  0  0  0  0
   16.2370    1.9292   61.1512 C   0  0  1  0  0  0  0  0  0  0  0  0
   17.2436    0.7383   61.3388 C   0  0  1  0  0  0  0  0  0  0  0  0
   16.8757   -0.0369   62.6549 C   0  0  2  0  0  0  0  0  0  0  0  0
   16.9844    0.9174   63.8538 C   0  0  1  0  0  0  0  0  0  0  0  0
   15.9627    2.1052   63.6709 C   0  0  0  0  0  0  0  0  0  0  0  0
   16.3209    2.8769   62.3402 C   0  0  2  0  0  0  0  0  0  0  0  0
   16.6602    0.1839   65.0662 N   0  0  0  0  0  0  0  0  0  0  0  0
   15.3650    3.9937   62.1192 N   0  0  0  0  0  0  0  0  0  0  0  0
   17.1444   -0.1691   60.2037 O   0  0  0  0  0  0  0  0  0  0  0  0
   17.7840   -1.0907   62.8362 O   0  0  0  0  0  0  0  0  0  0  0  0
  1  2  1  0  0  0  0
  1 12  1  6  0  0  0
  1 13  1  0  0  0  0
  2  3  1  0  0  0  0
  2 10  1  1  0  0  0
  4  3  1  6  0  0  0
  4  5  1  0  0  0  0
  4 14  1  0  0  0  0
  5  6  1  0  0  0  0
  5 13  1  1  0  0  0
  6  7  1  0  0  0  0
  6 15  1  6  0  0  0
  7  8  1  0  0  0  0
  7 11  1  1  0  0  0
  8 14  1  0  0  0  0
  8 16  1  6  0  0  0
  9 11  1  0  0  0  0
 17 16  1  1  0  0  0
 17 18  1  0  0  0  0
 17 24  1  0  0  0  0
 18 19  1  0  0  0  0
 18 25  1  1  0  0  0
 19 20  1  0  0  0  0
 19 26  1  6  0  0  0
 20 21  1  0  0  0  0
 20 23  1  1  0  0  0
 21 22  1  6  0  0  0
 21 24  1  0  0  0  0
 22 27  1  0  0  0  0
 28 12  1  6  0  0  0
 28 29  1  0  0  0  0
 28 33  1  0  0  0  0
 29 30  1  0  0  0  0
 29 36  1  6  0  0  0
 30 31  1  0  0  0  0
 30 37  1  1  0  0  0
 31 32  1  0  0  0  0
 31 34  1  1  0  0  0
 32 33  1  0  0  0  0
 33 35  1  6  0  0  0
M  END
>  <CHROM.1>
-160.88263174,-69.32137444,-172.90814085,-159.62766335,53.94758117,-65.85066886
19.21620057,1.41172277,57.43908041,2.28217339,-0.82798583,2.03591183

>  <Name>
2oe5_lig

>  <RI>
0

>  <Rbt.Current_Directory>
/home/itssahil/PROJECTS/Mol_Feturizer/New_Systems/rnas/2oe5

>  <Rbt.Executable>
rbdock ($Id: //depot/dev/client3/rdock/2013.1/src/exe/rbdock.cxx#4 $)

>  <Rbt.Library>
libRbt.so (2013.1, Build901 2013/11/27)

>  <Rbt.Parameter_File>
/export/apps/rDock/src/rDock_2013.1_src/data/scripts/dock_solv.prm

>  <Rbt.Receptor>
prm/pocket_docking_8.prm

>  <SCORE>
-22.4759

>  <SCORE.INTER>
-18.9239

>  <SCORE.INTER.CONST>
1

>  <SCORE.INTER.POLAR>
-2.84327

>  <SCORE.INTER.ROT>
6

>  <SCORE.INTER.SOLV>
10.3984

>  <SCORE.INTER.VDW>
-14.2045

>  <SCORE.INTER.norm>
-0.511457

>  <SCORE.INTRA>
-3.55201

>  <SCORE.INTRA.DIHEDRAL>
-11.9992

>  <SCORE.INTRA.DIHEDRAL.0>
16.2083

>  <SCORE.INTRA.POLAR>
0

>  <SCORE.INTRA.POLAR.0>
0

>  <SCORE.INTRA.REPUL>
0

>  <SCORE.INTRA.REPUL.0>
0

>  <SCORE.INTRA.SOLV>
-0.0868721

>  <SCORE.INTRA.SOLV.lig_0>
-89.8095

>  <SCORE.INTRA.VDW>
2.49104

>  <SCORE.INTRA.VDW.0>
-3.19502

>  <SCORE.INTRA.norm>
-0.0960004

>  <SCORE.RESTR>
0

>  <SCORE.RESTR.CAVITY>
0

>  <SCORE.RESTR.norm>
0

>  <SCORE.SYSTEM>
0

>  <SCORE.SYSTEM.CONST>
0

>  <SCORE.SYSTEM.DIHEDRAL>
0

>  <SCORE.SYSTEM.SOLV>
0

>  <SCORE.SYSTEM.norm>
0

>  <SCORE.heavy>
37

>  <SCORE.norm>
-0.607458

>  <RMSD>
7.286

$$$$
2oe5_lig
 OpenBabel11021811463D
libRbt.so/2013.1/901 2013/11/27
 37 40  0  0  0  0  0  0  0  0999 V2000
   20.5299   -2.6778   49.6115 C   0  0  1  0  0  0  0  0  0  0  0  0
   19.0432   -2.8290   50.0043 C   0  0  1  0  0  0  0  0  0  0  0  0
   18.4264   -4.0587   49.2397 C   0  0  0  0  0  0  0  0  0  0  0  0
   18.6056   -3.7375   47.7390 C   0  0  1  0  0  0  0  0  0  0  0  0
   20.1427   -3.5803   47.3532 C   0  0  1  0  0  0  0  0  0  0  0  0
   20.3455   -3.2641   45.8462 C   0  0  1  0  0  0  0  0  0  0  0  0
   19.7139   -4.4411   45.0496 C   0  0  1  0  0  0  0  0  0  0  0  0
   18.2092   -4.5900   45.4934 C   0  0  2  0  0  0  0  0  0  0  0  0
   18.9315   -3.1794   42.8912 C   0  0  0  0  0  0  0  0  0  0  0  0
   18.9253   -3.0469   51.4645 N   0  0  0  0  0  0  0  0  0  0  0  0
   19.8224   -4.1886   43.5633 N   0  0  0  0  0  0  0  0  0  0  0  0
   21.3087   -3.8194   50.0053 O   0  0  0  0  0  0  0  0  0  0  0  0
   20.7064   -2.4980   48.1626 O   0  0  0  0  0  0  0  0  0  0  0  0
   18.0591   -4.8230   46.9429 O   0  0  0  0  0  0  0  0  0  0  0  0
   19.6929   -2.0219   45.5647 O   0  0  0  0  0  0  0  0  0  0  0  0
   17.6180   -5.6929   44.8351 O   0  0  0  0  0  0  0  0  0  0  0  0
   16.2545   -5.8045   45.1976 C   0  0  2  0  0  0  0  0  0  0  0  0
   15.5424   -6.9249   44.4406 C   0  0  1  0  0  0  0  0  0  0  0  0
   15.4992   -6.6325   42.9156 C   0  0  2  0  0  0  0  0  0  0  0  0
   14.7916   -5.2586   42.7214 C   0  0  1  0  0  0  0  0  0  0  0  0
   15.6146   -4.1734   43.4902 C   0  0  1  0  0  0  0  0  0  0  0  0
   14.9872   -2.7993   43.4136 C   0  0  0  0  0  0  0  0  0  0  0  0
   14.7418   -4.9659   41.2396 N   0  0  0  0  0  0  0  0  0  0  0  0
   15.6023   -4.5268   44.9148 O   0  0  0  0  0  0  0  0  0  0  0  0
   16.2545   -8.1493   44.7080 O   0  0  0  0  0  0  0  0  0  0  0  0
   14.7237   -7.6677   42.2848 O   0  0  0  0  0  0  0  0  0  0  0  0
   15.0177   -2.2851   42.1263 O   0  0  0  0  0  0  0  0  0  0  0  0
   22.7106   -3.6790   49.7732 C   0  0  1  0  0  0  0  0  0  0  0  0
   23.3253   -2.6738   50.8118 C   0  0  1  0  0  0  0  0  0  0  0  0
   24.8684   -2.5463   50.5451 C   0  0  2  0  0  0  0  0  0  0  0  0
   25.5285   -3.9230   50.7144 C   0  0  1  0  0  0  0  0  0  0  0  0
   24.9203   -4.9276   49.6613 C   0  0  0  0  0  0  0  0  0  0  0  0
   23.3663   -5.0457   49.9173 C   0  0  2  0  0  0  0  0  0  0  0  0
   26.9574   -3.7879   50.4838 N   0  0  0  0  0  0  0  0  0  0  0  0
   22.7500   -5.9690   48.9286 N   0  0  0  0  0  0  0  0  0  0  0  0
   22.7017   -1.3668   50.6553 O   0  0  0  0  0  0  0  0  0  0  0  0
   25.4248   -1.6633   51.4826 O   0  0  0  0  0  0  0  0  0  0  0  0
  1  2  1  0  0  0  0
  1 12  1  6  0  0  0
  1 13  1  0  0  0  0
  2  3  1  0  0  0  0
  2 10  1  1  0  0  0
  4  3  1  1  0  0  0
  4  5  1  0  0  0  0
  4 14  1  0  0  0  0
  5  6  1  0  0  0  0
  5 13  1  1  0  0  0
  6  7  1  0  0  0  0
  6 15  1  6  0  0  0
  7  8  1  0  0  0  0
  7 11  1  6  0  0  0
  8 14  1  0  0  0  0
  8 16  1  6  0  0  0
  9 11  1  0  0  0  0
 17 16  1  6  0  0  0
 17 18  1  0  0  0  0
 17 24  1  0  0  0  0
 18 19  1  0  0  0  0
 18 25  1  6  0  0  0
 19 20  1  0  0  0  0
 19 26  1  6  0  0  0
 20 21  1  0  0  0  0
 20 23  1  6  0  0  0
 21 22  1  1  0  0  0
 21 24  1  0  0  0  0
 22 27  1  0  0  0  0
 28 12  1  1  0  0  0
 28 29  1  0  0  0  0
 28 33  1  0  0  0  0
 29 30  1  0  0  0  0
 29 36  1  6  0  0  0
 30 31  1  0  0  0  0
 30 37  1  1  0  0  0
 31 32  1  0  0  0  0
 31 34  1  6  0  0  0
 32 33  1  0  0  0  0
 33 35  1  6  0  0  0
M  END
>  <CHROM.1>
-174.67028671,-74.51678188,-178.11251553,176.12051879,-67.10388495,72.76618332
19.47028052,-4.13259655,46.83844520,0.37555994,-0.65687136,0.30010865

>  <Name>
2oe5_lig

>  <RI>
0

>  <Rbt.Current_Directory>
/home/itssahil/PROJECTS/Mol_Feturizer/New_Systems/rnas/2oe5

>  <Rbt.Executable>
rbdock ($Id: //depot/dev/client3/rdock/2013.1/src/exe/rbdock.cxx#4 $)

>  <Rbt.Library>
libRbt.so (2013.1, Build901 2013/11/27)

>  <Rbt.Parameter_File>
/export/apps/rDock/src/rDock_2013.1_src/data/scripts/dock_solv.prm

>  <Rbt.Receptor>
prm/blind_docking_100.prm

>  <SCORE>
-19.7666

>  <SCORE.INTER>
-13.9151

>  <SCORE.INTER.CONST>
1

>  <SCORE.INTER.POLAR>
-1.6472

>  <SCORE.INTER.ROT>
6

>  <SCORE.INTER.SOLV>
12.8926

>  <SCORE.INTER.VDW>
-15.6836

>  <SCORE.INTER.norm>
-0.376083

>  <SCORE.INTRA>
-5.85151

>  <SCORE.INTRA.DIHEDRAL>
-14.7577

>  <SCORE.INTRA.DIHEDRAL.0>
16.2083

>  <SCORE.INTRA.POLAR>
0

>  <SCORE.INTRA.POLAR.0>
0

>  <SCORE.INTRA.REPUL>
0

>  <SCORE.INTRA.REPUL.0>
0

>  <SCORE.INTRA.SOLV>
-1.50057

>  <SCORE.INTRA.SOLV.lig_0>
-89.8095

>  <SCORE.INTRA.VDW>
2.27762

>  <SCORE.INTRA.VDW.0>
-3.19502

>  <SCORE.INTRA.norm>
-0.158149

>  <SCORE.RESTR>
0

>  <SCORE.RESTR.CAVITY>
0

>  <SCORE.RESTR.norm>
0

>  <SCORE.SYSTEM>
0

>  <SCORE.SYSTEM.CONST>
0

>  <SCORE.SYSTEM.DIHEDRAL>
0

>  <SCORE.SYSTEM.SOLV>
0

>  <SCORE.SYSTEM.norm>
0

>  <SCORE.heavy>
37

>  <SCORE.norm>
-0.534232

>  <RMSD>
7.325

$$$$
2oe5_lig
 OpenBabel11021811463D
libRbt.so/2013.1/901 2013/11/27
 37 40  0  0  0  0  0  0  0  0999 V2000
   22.1816   -4.0649   47.9879 C   0  0  1  0  0  0  0  0  0  0  0  0
   22.1639   -3.4169   46.5853 C   0  0  1  0  0  0  0  0  0  0  0  0
   20.6990   -3.4605   46.0115 C   0  0  0  0  0  0  0  0  0  0  0  0
   20.3218   -4.9583   45.9691 C   0  0  1  0  0  0  0  0  0  0  0  0
   20.3500   -5.6105   47.4217 C   0  0  1  0  0  0  0  0  0  0  0  0
   19.9665   -7.1154   47.4024 C   0  0  1  0  0  0  0  0  0  0  0  0
   18.5338   -7.2080   46.8044 C   0  0  1  0  0  0  0  0  0  0  0  0
   18.5403   -6.5131   45.3901 C   0  0  2  0  0  0  0  0  0  0  0  0
   17.0811   -9.2150   47.6555 C   0  0  0  0  0  0  0  0  0  0  0  0
   22.6176   -2.0098   46.6723 N   0  0  0  0  0  0  0  0  0  0  0  0
   18.0990   -8.6519   46.7013 N   0  0  0  0  0  0  0  0  0  0  0  0
   21.3681   -3.3404   48.9250 O   0  0  0  0  0  0  0  0  0  0  0  0
   21.7012   -5.4546   47.9642 O   0  0  0  0  0  0  0  0  0  0  0  0
   18.9744   -5.1037   45.4455 O   0  0  0  0  0  0  0  0  0  0  0  0
   20.9250   -7.8043   46.5931 O   0  0  0  0  0  0  0  0  0  0  0  0
   17.2373   -6.5217   44.8413 O   0  0  0  0  0  0  0  0  0  0  0  0
   16.3942   -5.6498   45.5707 C   0  0  2  0  0  0  0  0  0  0  0  0
   14.9415   -6.1242   45.5853 C   0  0  1  0  0  0  0  0  0  0  0  0
   14.3350   -6.1183   44.1552 C   0  0  2  0  0  0  0  0  0  0  0  0
   14.4683   -4.6710   43.5953 C   0  0  1  0  0  0  0  0  0  0  0  0
   15.9860   -4.2936   43.5758 C   0  0  1  0  0  0  0  0  0  0  0  0
   16.2321   -2.8807   43.0958 C   0  0  0  0  0  0  0  0  0  0  0  0
   13.8779   -4.6538   42.2042 N   0  0  0  0  0  0  0  0  0  0  0  0
   16.4734   -4.3237   44.9600 O   0  0  0  0  0  0  0  0  0  0  0  0
   14.9252   -7.4530   46.1437 O   0  0  0  0  0  0  0  0  0  0  0  0
   12.9431   -6.4685   44.2597 O   0  0  0  0  0  0  0  0  0  0  0  0
   16.0677   -1.9508   44.1111 O   0  0  0  0  0  0  0  0  0  0  0  0
   21.9604   -2.1316   49.4012 C   0  0  1  0  0  0  0  0  0  0  0  0
   20.8801   -1.2627   50.1393 C   0  0  1  0  0  0  0  0  0  0  0  0
   21.5578    0.0537   50.6650 C   0  0  2  0  0  0  0  0  0  0  0  0
   22.6796   -0.3106   51.6491 C   0  0  1  0  0  0  0  0  0  0  0  0
   23.7709   -1.1711   50.9027 C   0  0  0  0  0  0  0  0  0  0  0  0
   23.0887   -2.4880   50.3597 C   0  0  2  0  0  0  0  0  0  0  0  0
   23.2855    0.9154   52.1420 N   0  0  0  0  0  0  0  0  0  0  0  0
   24.0814   -3.3186   49.6287 N   0  0  0  0  0  0  0  0  0  0  0  0
   19.8137   -0.9154   49.2099 O   0  0  0  0  0  0  0  0  0  0  0  0
   20.6002    0.8245   51.3412 O   0  0  0  0  0  0  0  0  0  0  0  0
  1  2  1  0  0  0  0
  1 12  1  1  0  0  0
  1 13  1  0  0  0  0
  2  3  1  0  0  0  0
  2 10  1  1  0  0  0
  4  3  1  1  0  0  0
  4  5  1  0  0  0  0
  4 14  1  0  0  0  0
  5  6  1  0  0  0  0
  5 13  1  6  0  0  0
  6  7  1  0  0  0  0
  6 15  1  6  0  0  0
  7  8  1  0  0  0  0
  7 11  1  6  0  0  0
  8 14  1  0  0  0  0
  8 16  1  1  0  0  0
  9 11  1  0  0  0  0
 17 16  1  6  0  0  0
 17 18  1  0  0  0  0
 17 24  1  0  0  0  0
 18 19  1  0  0  0  0
 18 25  1  6  0  0  0
 19 20  1  0  0  0  0
 19 26  1  1  0  0  0
 20 21  1  0  0  0  0
 20 23  1  6  0  0  0
 21 22  1  1  0  0  0
 21 24  1  0  0  0  0
 22 27  1  0  0  0  0
 28 12  1  1  0  0  0
 28 29  1  0  0  0  0
 28 33  1  0  0  0  0
 29 30  1  0  0  0  0
 29 36  1  6  0  0  0
 30 31  1  0  0  0  0
 30 37  1  1  0  0  0
 31 32  1  0  0  0  0
 31 34  1  6  0  0  0
 32 33  1  0  0  0  0
 33 35  1  6  0  0  0
M  END
>  <CHROM.1>
-76.27611777,106.15485342,69.33237290,-148.85951612,82.77457387,166.88155276
19.11954732,-4.20257213,47.03810827,-0.58246476,0.60190800,-2.97132970

>  <Name>
2oe5_lig

>  <RI>
0

>  <Rbt.Current_Directory>
/home/itssahil/PROJECTS/Mol_Feturizer/New_Systems/rnas/2oe5

>  <Rbt.Executable>
rbdock ($Id: //depot/dev/client3/rdock/2013.1/src/exe/rbdock.cxx#4 $)

>  <Rbt.Library>
libRbt.so (2013.1, Build901 2013/11/27)

>  <Rbt.Parameter_File>
/export/apps/rDock/src/rDock_2013.1_src/data/scripts/dock_solv.prm

>  <Rbt.Receptor>
prm/blind_docking_60.prm

>  <SCORE>
-14.3871

>  <SCORE.INTER>
-14.7679

>  <SCORE.INTER.CONST>
1

>  <SCORE.INTER.POLAR>
-2.03858

>  <SCORE.INTER.ROT>
6

>  <SCORE.INTER.SOLV>
12.5551

>  <SCORE.INTER.VDW>
-14.835

>  <SCORE.INTER.norm>
-0.399132

>  <SCORE.INTRA>
0.321833

>  <SCORE.INTRA.DIHEDRAL>
-7.16606

>  <SCORE.INTRA.DIHEDRAL.0>
16.2083

>  <SCORE.INTRA.POLAR>
0

>  <SCORE.INTRA.POLAR.0>
0

>  <SCORE.INTRA.REPUL>
0

>  <SCORE.INTRA.REPUL.0>
0

>  <SCORE.INTRA.SOLV>
2.66175

>  <SCORE.INTRA.SOLV.lig_0>
-89.8095

>  <SCORE.INTRA.VDW>
2.57399

>  <SCORE.INTRA.VDW.0>
-3.19502

>  <SCORE.INTRA.norm>
0.0086982

>  <SCORE.RESTR>
0.0589543

>  <SCORE.RESTR.CAVITY>
0.0589543

>  <SCORE.RESTR.norm>
0.00159336

>  <SCORE.SYSTEM>
0

>  <SCORE.SYSTEM.CONST>
0

>  <SCORE.SYSTEM.DIHEDRAL>
0

>  <SCORE.SYSTEM.SOLV>
0

>  <SCORE.SYSTEM.norm>
0

>  <SCORE.heavy>
37

>  <SCORE.norm>
-0.38884

>  <RMSD>
7.332

$$$$
2oe5_lig
 OpenBabel11021811463D
libRbt.so/2013.1/901 2013/11/27
 37 40  0  0  0  0  0  0  0  0999 V2000
   20.4162   -2.8114   49.5314 C   0  0  1  0  0  0  0  0  0  0  0  0
   18.9293   -2.9925   49.9105 C   0  0  1  0  0  0  0  0  0  0  0  0
   18.3351   -4.2129   49.1138 C   0  0  0  0  0  0  0  0  0  0  0  0
   18.5193   -3.8549   47.6221 C   0  0  1  0  0  0  0  0  0  0  0  0
   20.0566   -3.6672   47.2505 C   0  0  1  0  0  0  0  0  0  0  0  0
   20.2646   -3.3137   45.7525 C   0  0  1  0  0  0  0  0  0  0  0  0
   19.6550   -4.4809   44.9249 C   0  0  1  0  0  0  0  0  0  0  0  0
   18.1497   -4.6611   45.3550 C   0  0  2  0  0  0  0  0  0  0  0  0
   19.4105   -5.2441   42.4309 C   0  0  0  0  0  0  0  0  0  0  0  0
   18.8051   -3.2455   51.3645 N   0  0  0  0  0  0  0  0  0  0  0  0
   19.7695   -4.1928   43.4456 N   0  0  0  0  0  0  0  0  0  0  0  0
   21.2087   -3.9506   49.9043 O   0  0  0  0  0  0  0  0  0  0  0  0
   20.5995   -2.5959   48.0882 O   0  0  0  0  0  0  0  0  0  0  0  0
   17.9936   -4.9294   46.7977 O   0  0  0  0  0  0  0  0  0  0  0  0
   19.5962   -2.0747   45.4950 O   0  0  0  0  0  0  0  0  0  0  0  0
   17.5785   -5.7568   44.6677 O   0  0  0  0  0  0  0  0  0  0  0  0
   16.2022   -5.8650   44.9791 C   0  0  2  0  0  0  0  0  0  0  0  0
   15.5082   -6.9601   44.1700 C   0  0  1  0  0  0  0  0  0  0  0  0
   15.5214   -6.6300   42.6522 C   0  0  2  0  0  0  0  0  0  0  0  0
   14.8323   -5.2455   42.4673 C   0  0  1  0  0  0  0  0  0  0  0  0
   15.6364   -4.1868   43.2912 C   0  0  1  0  0  0  0  0  0  0  0  0
   15.0233   -2.8057   43.2267 C   0  0  0  0  0  0  0  0  0  0  0  0
   14.8373   -4.9162   40.9923 N   0  0  0  0  0  0  0  0  0  0  0  0
   15.5708   -4.5749   44.7052 O   0  0  0  0  0  0  0  0  0  0  0  0
   16.2005   -8.1969   44.4319 O   0  0  0  0  0  0  0  0  0  0  0  0
   14.7603   -7.6424   41.9690 O   0  0  0  0  0  0  0  0  0  0  0  0
   15.7120   -1.8942   44.0124 O   0  0  0  0  0  0  0  0  0  0  0  0
   22.6058   -3.7987   49.6522 C   0  0  1  0  0  0  0  0  0  0  0  0
   23.2232   -2.7734   50.6693 C   0  0  1  0  0  0  0  0  0  0  0  0
   24.7613   -2.6335   50.3810 C   0  0  2  0  0  0  0  0  0  0  0  0
   25.4381   -4.0009   50.5598 C   0  0  1  0  0  0  0  0  0  0  0  0
   24.8271   -5.0257   49.5280 C   0  0  0  0  0  0  0  0  0  0  0  0
   23.2779   -5.1565   49.8057 C   0  0  2  0  0  0  0  0  0  0  0  0
   26.8623   -3.8540   50.3089 N   0  0  0  0  0  0  0  0  0  0  0  0
   22.6587   -6.0993   48.8373 N   0  0  0  0  0  0  0  0  0  0  0  0
   22.5838   -1.4753   50.5038 O   0  0  0  0  0  0  0  0  0  0  0  0
   25.3204   -1.7323   51.2994 O   0  0  0  0  0  0  0  0  0  0  0  0
  1  2  1  0  0  0  0
  1 12  1  6  0  0  0
  1 13  1  0  0  0  0
  2  3  1  0  0  0  0
  2 10  1  1  0  0  0
  4  3  1  1  0  0  0
  4  5  1  0  0  0  0
  4 14  1  0  0  0  0
  5  6  1  0  0  0  0
  5 13  1  1  0  0  0
  6  7  1  0  0  0  0
  6 15  1  6  0  0  0
  7  8  1  0  0  0  0
  7 11  1  6  0  0  0
  8 14  1  0  0  0  0
  8 16  1  6  0  0  0
  9 11  1  0  0  0  0
 17 16  1  6  0  0  0
 17 18  1  0  0  0  0
 17 24  1  0  0  0  0
 18 19  1  0  0  0  0
 18 25  1  6  0  0  0
 19 20  1  0  0  0  0
 19 26  1  6  0  0  0
 20 21  1  0  0  0  0
 20 23  1  6  0  0  0
 21 22  1  1  0  0  0
 21 24  1  0  0  0  0
 22 27  1  0  0  0  0
 28 12  1  1  0  0  0
 28 29  1  0  0  0  0
 28 33  1  0  0  0  0
 29 30  1  0  0  0  0
 29 36  1  6  0  0  0
 30 31  1  0  0  0  0
 30 37  1  1  0  0  0
 31 32  1  0  0  0  0
 31 34  1  6  0  0  0
 32 33  1  0  0  0  0
 33 35  1  6  0  0  0
M  END
>  <CHROM.1>
-176.24197785,172.24909922,-175.89744215,175.07777251,177.16190037,71.52934981
19.44627961,-4.24851015,46.73389405,0.65860720,-0.39501279,0.82280485

>  <Name>
2oe5_lig

>  <RI>
0

>  <Rbt.Current_Directory>
/home/itssahil/PROJECTS/Mol_Feturizer/New_Systems/rnas/2oe5

>  <Rbt.Executable>
rbdock ($Id: //depot/dev/client3/rdock/2013.1/src/exe/rbdock.cxx#4 $)

>  <Rbt.Library>
libRbt.so (2013.1, Build901 2013/11/27)

>  <Rbt.Parameter_File>
/export/apps/rDock/src/rDock_2013.1_src/data/scripts/dock_solv.prm

>  <Rbt.Receptor>
prm/blind_docking_80.prm

>  <SCORE>
-26.494

>  <SCORE.INTER>
-19.2701

>  <SCORE.INTER.CONST>
1

>  <SCORE.INTER.POLAR>
-2.59875

>  <SCORE.INTER.ROT>
6

>  <SCORE.INTER.SOLV>
13.7135

>  <SCORE.INTER.VDW>
-16.3554

>  <SCORE.INTER.norm>
-0.520814

>  <SCORE.INTRA>
-7.22387

>  <SCORE.INTRA.DIHEDRAL>
-15.126

>  <SCORE.INTRA.DIHEDRAL.0>
16.2083

>  <SCORE.INTRA.POLAR>
0

>  <SCORE.INTRA.POLAR.0>
0

>  <SCORE.INTRA.REPUL>
0.00751002

>  <SCORE.INTRA.REPUL.0>
0

>  <SCORE.INTRA.SOLV>
-2.71411

>  <SCORE.INTRA.SOLV.lig_0>
-89.8095

>  <SCORE.INTRA.VDW>
1.65862

>  <SCORE.INTRA.VDW.0>
-3.19502

>  <SCORE.INTRA.norm>
-0.19524

>  <SCORE.RESTR>
0

>  <SCORE.RESTR.CAVITY>
0

>  <SCORE.RESTR.norm>
0

>  <SCORE.SYSTEM>
0

>  <SCORE.SYSTEM.CONST>
0

>  <SCORE.SYSTEM.DIHEDRAL>
0

>  <SCORE.SYSTEM.SOLV>
0

>  <SCORE.SYSTEM.norm>
0

>  <SCORE.heavy>
37

>  <SCORE.norm>
-0.716054

>  <RMSD>
7.447

$$$$
2oe5_lig
 OpenBabel11021811463D
libRbt.so/2013.1/901 2013/11/27
 37 40  0  0  0  0  0  0  0  0999 V2000
   17.7322    1.6387   61.0084 C   0  0  1  0  0  0  0  0  0  0  0  0
   16.6060    2.1600   60.0879 C   0  0  1  0  0  0  0  0  0  0  0  0
   16.7345    1.4804   58.6741 C   0  0  0  0  0  0  0  0  0  0  0  0
   18.1385    1.8706   58.1600 C   0  0  1  0  0  0  0  0  0  0  0  0
   19.2858    1.3297   59.1230 C   0  0  1  0  0  0  0  0  0  0  0  0
   20.7065    1.7051   58.6201 C   0  0  1  0  0  0  0  0  0  0  0  0
   20.8625    1.0826   57.2035 C   0  0  1  0  0  0  0  0  0  0  0  0
   19.6845    1.6078   56.2980 C   0  0  2  0  0  0  0  0  0  0  0  0
   23.4443    0.6846   57.0080 C   0  0  0  0  0  0  0  0  0  0  0  0
   15.2842    1.8361   60.6722 N   0  0  0  0  0  0  0  0  0  0  0  0
   22.2067    1.4445   56.6148 N   0  0  0  0  0  0  0  0  0  0  0  0
   17.6268    0.2242   61.2386 O   0  0  0  0  0  0  0  0  0  0  0  0
   19.0690    1.9002   60.4541 O   0  0  0  0  0  0  0  0  0  0  0  0
   18.3525    1.2874   56.8467 O   0  0  0  0  0  0  0  0  0  0  0  0
   20.7990    3.1328   58.5857 O   0  0  0  0  0  0  0  0  0  0  0  0
   19.7569    1.0128   55.0175 O   0  0  0  0  0  0  0  0  0  0  0  0
   19.8664    2.0112   54.0204 C   0  0  2  0  0  0  0  0  0  0  0  0
   19.4078    1.5154   52.6494 C   0  0  1  0  0  0  0  0  0  0  0  0
   20.3221    0.3710   52.1321 C   0  0  2  0  0  0  0  0  0  0  0  0
   21.7805    0.9164   52.0950 C   0  0  1  0  0  0  0  0  0  0  0  0
   22.1743    1.3541   53.5440 C   0  0  1  0  0  0  0  0  0  0  0  0
   23.5616    1.9518   53.6186 C   0  0  0  0  0  0  0  0  0  0  0  0
   22.6783   -0.1893   51.5898 N   0  0  0  0  0  0  0  0  0  0  0  0
   21.2647    2.4323   53.9496 O   0  0  0  0  0  0  0  0  0  0  0  0
   18.0463    1.0621   52.7857 O   0  0  0  0  0  0  0  0  0  0  0  0
   19.9003    0.0315   50.7987 O   0  0  0  0  0  0  0  0  0  0  0  0
   24.5391    1.0458   53.2362 O   0  0  0  0  0  0  0  0  0  0  0  0
   18.3596   -0.2398   62.3728 C   0  0  1  0  0  0  0  0  0  0  0  0
   19.8852    0.0870   62.1926 C   0  0  1  0  0  0  0  0  0  0  0  0
   20.6675   -0.4204   63.4571 C   0  0  2  0  0  0  0  0  0  0  0  0
   20.1352    0.2985   64.7059 C   0  0  1  0  0  0  0  0  0  0  0  0
   18.6065   -0.0422   64.8937 C   0  0  0  0  0  0  0  0  0  0  0  0
   17.8199    0.4530   63.6168 C   0  0  2  0  0  0  0  0  0  0  0  0
   20.8793   -0.1655   65.8653 N   0  0  0  0  0  0  0  0  0  0  0  0
   16.3745    0.1300   63.7447 N   0  0  0  0  0  0  0  0  0  0  0  0
   20.3942   -0.5922   61.0089 O   0  0  0  0  0  0  0  0  0  0  0  0
   22.0285   -0.1138   63.3085 O   0  0  0  0  0  0  0  0  0  0  0  0
  1  2  1  0  0  0  0
  1 12  1  6  0  0  0
  1 13  1  0  0  0  0
  2  3  1  0  0  0  0
  2 10  1  1  0  0  0
  4  3  1  1  0  0  0
  4  5  1  0  0  0  0
  4 14  1  0  0  0  0
  5  6  1  0  0  0  0
  5 13  1  1  0  0  0
  6  7  1  0  0  0  0
  6 15  1  6  0  0  0
  7  8  1  0  0  0  0
  7 11  1  6  0  0  0
  8 14  1  0  0  0  0
  8 16  1  6  0  0  0
  9 11  1  0  0  0  0
 17 16  1  1  0  0  0
 17 18  1  0  0  0  0
 17 24  1  0  0  0  0
 18 19  1  0  0  0  0
 18 25  1  1  0  0  0
 19 20  1  0  0  0  0
 19 26  1  6  0  0  0
 20 21  1  0  0  0  0
 20 23  1  1  0  0  0
 21 22  1  6  0  0  0
 21 24  1  0  0  0  0
 22 27  1  0  0  0  0
 28 12  1  6  0  0  0
 28 29  1  0  0  0  0
 28 33  1  0  0  0  0
 29 30  1  0  0  0  0
 29 36  1  6  0  0  0
 30 31  1  0  0  0  0
 30 37  1  6  0  0  0
 31 32  1  0  0  0  0
 31 34  1  1  0  0  0
 32 33  1  0  0  0  0
 33 35  1  1  0  0  0
M  END
>  <CHROM.1>
-161.80716346,80.69486867,-121.74876938,-157.57150033,-61.64554166,-59.64974333
19.89181308,0.98077344,58.08612394,1.80627207,-0.12674331,1.66998326

>  <Name>
2oe5_lig

>  <RI>
0

>  <Rbt.Current_Directory>
/home/itssahil/PROJECTS/Mol_Feturizer/New_Systems/rnas/2oe5

>  <Rbt.Executable>
rbdock ($Id: //depot/dev/client3/rdock/2013.1/src/exe/rbdock.cxx#4 $)

>  <Rbt.Library>
libRbt.so (2013.1, Build901 2013/11/27)

>  <Rbt.Parameter_File>
/export/apps/rDock/src/rDock_2013.1_src/data/scripts/dock_solv.prm

>  <Rbt.Receptor>
prm/pocket_docking_7.prm

>  <SCORE>
-20.4314

>  <SCORE.INTER>
-19.6284

>  <SCORE.INTER.CONST>
1

>  <SCORE.INTER.POLAR>
-2.90297

>  <SCORE.INTER.ROT>
6

>  <SCORE.INTER.SOLV>
10.0914

>  <SCORE.INTER.VDW>
-14.3728

>  <SCORE.INTER.norm>
-0.530496

>  <SCORE.INTRA>
-0.803028

>  <SCORE.INTRA.DIHEDRAL>
-4.94991

>  <SCORE.INTRA.DIHEDRAL.0>
16.2083

>  <SCORE.INTRA.POLAR>
0

>  <SCORE.INTRA.POLAR.0>
0

>  <SCORE.INTRA.REPUL>
0

>  <SCORE.INTRA.REPUL.0>
0

>  <SCORE.INTRA.SOLV>
1.44922

>  <SCORE.INTRA.SOLV.lig_0>
-89.8095

>  <SCORE.INTRA.VDW>
0.947314

>  <SCORE.INTRA.VDW.0>
-3.19502

>  <SCORE.INTRA.norm>
-0.0217035

>  <SCORE.RESTR>
0

>  <SCORE.RESTR.CAVITY>
0

>  <SCORE.RESTR.norm>
0

>  <SCORE.SYSTEM>
0

>  <SCORE.SYSTEM.CONST>
0

>  <SCORE.SYSTEM.DIHEDRAL>
0

>  <SCORE.SYSTEM.SOLV>
0

>  <SCORE.SYSTEM.norm>
0

>  <SCORE.heavy>
37

>  <SCORE.norm>
-0.552199

>  <RMSD>
7.451

$$$$
2oe5_lig
 OpenBabel11021811463D
libRbt.so/2013.1/901 2013/11/27
 37 40  0  0  0  0  0  0  0  0999 V2000
   20.0813   -3.7192   49.2690 C   0  0  1  0  0  0  0  0  0  0  0  0
   21.1317   -4.4073   48.3687 C   0  0  1  0  0  0  0  0  0  0  0  0
   20.9756   -3.8816   46.8934 C   0  0  0  0  0  0  0  0  0  0  0  0
   19.5293   -4.2391   46.4838 C   0  0  1  0  0  0  0  0  0  0  0  0
   18.4608   -3.5256   47.4249 C   0  0  1  0  0  0  0  0  0  0  0  0
   16.9991   -3.8662   47.0254 C   0  0  1  0  0  0  0  0  0  0  0  0
   16.8124   -3.3957   45.5548 C   0  0  1  0  0  0  0  0  0  0  0  0
   17.9149   -4.0892   44.6679 C   0  0  2  0  0  0  0  0  0  0  0  0
   14.7043   -2.8273   44.1071 C   0  0  0  0  0  0  0  0  0  0  0  0
   22.4957   -4.1027   48.8588 N   0  0  0  0  0  0  0  0  0  0  0  0
   15.4236   -3.7371   45.0656 N   0  0  0  0  0  0  0  0  0  0  0  0
   20.2772   -2.2971   49.3333 O   0  0  0  0  0  0  0  0  0  0  0  0
   18.7073   -3.9577   48.8021 O   0  0  0  0  0  0  0  0  0  0  0  0
   19.2871   -3.7926   45.1227 O   0  0  0  0  0  0  0  0  0  0  0  0
   16.8245   -5.2806   47.1564 O   0  0  0  0  0  0  0  0  0  0  0  0
   17.8163   -3.6360   43.3322 O   0  0  0  0  0  0  0  0  0  0  0  0
   18.4909   -4.5264   42.4632 C   0  0  2  0  0  0  0  0  0  0  0  0
   18.5636   -3.9969   41.0315 C   0  0  1  0  0  0  0  0  0  0  0  0
   17.1466   -3.8702   40.4075 C   0  0  2  0  0  0  0  0  0  0  0  0
   16.4774   -5.2750   40.4745 C   0  0  1  0  0  0  0  0  0  0  0  0
   16.4062   -5.7100   41.9751 C   0  0  1  0  0  0  0  0  0  0  0  0
   15.8173   -7.0912   42.1572 C   0  0  0  0  0  0  0  0  0  0  0  0
   15.0982   -5.1631   39.8667 N   0  0  0  0  0  0  0  0  0  0  0  0
   17.7810   -5.8045   42.4804 O   0  0  0  0  0  0  0  0  0  0  0  0
   19.2206   -2.7148   41.0765 O   0  0  0  0  0  0  0  0  0  0  0  0
   17.2987   -3.4737   39.0325 O   0  0  0  0  0  0  0  0  0  0  0  0
   15.9124   -7.5278   43.4698 O   0  0  0  0  0  0  0  0  0  0  0  0
   21.0286   -1.8610   50.4663 C   0  0  1  0  0  0  0  0  0  0  0  0
   21.8586   -0.5803   50.0954 C   0  0  1  0  0  0  0  0  0  0  0  0
   22.6653   -0.1124   51.3598 C   0  0  2  0  0  0  0  0  0  0  0  0
   21.6838    0.2253   52.4922 C   0  0  1  0  0  0  0  0  0  0  0  0
   20.8611   -1.0655   52.8734 C   0  0  0  0  0  0  0  0  0  0  0  0
   20.0612   -1.5470   51.5995 C   0  0  2  0  0  0  0  0  0  0  0  0
   22.4410    0.6744   53.6489 N   0  0  0  0  0  0  0  0  0  0  0  0
   19.2878   -2.7776   51.9116 N   0  0  0  0  0  0  0  0  0  0  0  0
   22.7905   -0.8957   49.0213 O   0  0  0  0  0  0  0  0  0  0  0  0
   23.3940    1.0425   51.0380 O   0  0  0  0  0  0  0  0  0  0  0  0
  1  2  1  0  0  0  0
  1 12  1  6  0  0  0
  1 13  1  0  0  0  0
  2  3  1  0  0  0  0
  2 10  1  1  0  0  0
  4  3  1  1  0  0  0
  4  5  1  0  0  0  0
  4 14  1  0  0  0  0
  5  6  1  0  0  0  0
  5 13  1  1  0  0  0
  6  7  1  0  0  0  0
  6 15  1  6  0  0  0
  7  8  1  0  0  0  0
  7 11  1  6  0  0  0
  8 14  1  0  0  0  0
  8 16  1  6  0  0  0
  9 11  1  0  0  0  0
 17 16  1  1  0  0  0
 17 18  1  0  0  0  0
 17 24  1  0  0  0  0
 18 19  1  0  0  0  0
 18 25  1  1  0  0  0
 19 20  1  0  0  0  0
 19 26  1  6  0  0  0
 20 21  1  0  0  0  0
 20 23  1  1  0  0  0
 21 22  1  6  0  0  0
 21 24  1  0  0  0  0
 22 27  1  0  0  0  0
 28 12  1  6  0  0  0
 28 29  1  0  0  0  0
 28 33  1  0  0  0  0
 29 30  1  0  0  0  0
 29 36  1  6  0  0  0
 30 31  1  0  0  0  0
 30 37  1  6  0  0  0
 31 32  1  0  0  0  0
 31 34  1  1  0  0  0
 32 33  1  0  0  0  0
 33 35  1  1  0  0  0
M  END
>  <CHROM.1>
-95.93558630,145.55639275,-161.81970969,-172.95683146,172.56922803,148.21665145
18.95439833,-3.32878046,46.34065210,0.99756059,0.66612728,1.57196879

>  <Name>
2oe5_lig

>  <RI>
0

>  <Rbt.Current_Directory>
/home/itssahil/PROJECTS/Mol_Feturizer/New_Systems/rnas/2oe5

>  <Rbt.Executable>
rbdock ($Id: //depot/dev/client3/rdock/2013.1/src/exe/rbdock.cxx#4 $)

>  <Rbt.Library>
libRbt.so (2013.1, Build901 2013/11/27)

>  <Rbt.Parameter_File>
/export/apps/rDock/src/rDock_2013.1_src/data/scripts/dock_solv.prm

>  <Rbt.Receptor>
prm/blind_docking_60.prm

>  <SCORE>
-18.5632

>  <SCORE.INTER>
-15.7793

>  <SCORE.INTER.CONST>
1

>  <SCORE.INTER.POLAR>
-1.90642

>  <SCORE.INTER.ROT>
6

>  <SCORE.INTER.SOLV>
12.827

>  <SCORE.INTER.VDW>
-16.0404

>  <SCORE.INTER.norm>
-0.426467

>  <SCORE.INTRA>
-2.79651

>  <SCORE.INTRA.DIHEDRAL>
-4.85321

>  <SCORE.INTRA.DIHEDRAL.0>
16.2083

>  <SCORE.INTRA.POLAR>
0

>  <SCORE.INTRA.POLAR.0>
0

>  <SCORE.INTRA.REPUL>
0

>  <SCORE.INTRA.REPUL.0>
0

>  <SCORE.INTRA.SOLV>
0.0525138

>  <SCORE.INTRA.SOLV.lig_0>
-89.8095

>  <SCORE.INTRA.VDW>
-0.396168

>  <SCORE.INTRA.VDW.0>
-3.19502

>  <SCORE.INTRA.norm>
-0.0755815

>  <SCORE.RESTR>
0.012571

>  <SCORE.RESTR.CAVITY>
0.012571

>  <SCORE.RESTR.norm>
0.000339756

>  <SCORE.SYSTEM>
0

>  <SCORE.SYSTEM.CONST>
0

>  <SCORE.SYSTEM.DIHEDRAL>
0

>  <SCORE.SYSTEM.SOLV>
0

>  <SCORE.SYSTEM.norm>
0

>  <SCORE.heavy>
37

>  <SCORE.norm>
-0.501709

>  <RMSD>
7.484

$$$$
2oe5_lig
 OpenBabel11021811463D
libRbt.so/2013.1/901 2013/11/27
 37 40  0  0  0  0  0  0  0  0999 V2000
   20.5502   -2.8088   49.4964 C   0  0  1  0  0  0  0  0  0  0  0  0
   19.0683   -2.8600   49.9309 C   0  0  1  0  0  0  0  0  0  0  0  0
   18.3499   -4.0471   49.1879 C   0  0  0  0  0  0  0  0  0  0  0  0
   18.5081   -3.7409   47.6817 C   0  0  1  0  0  0  0  0  0  0  0  0
   20.0409   -3.6870   47.2528 C   0  0  1  0  0  0  0  0  0  0  0  0
   20.2221   -3.3874   45.7397 C   0  0  1  0  0  0  0  0  0  0  0  0
   19.4916   -4.5210   44.9650 C   0  0  1  0  0  0  0  0  0  0  0  0
   17.9933   -4.5686   45.4509 C   0  0  2  0  0  0  0  0  0  0  0  0
   19.1244   -5.3333   42.5017 C   0  0  0  0  0  0  0  0  0  0  0  0
   18.9770   -3.0672   51.3945 N   0  0  0  0  0  0  0  0  0  0  0  0
   19.5750   -4.2786   43.4754 N   0  0  0  0  0  0  0  0  0  0  0  0
   21.2620   -3.9991   49.8723 O   0  0  0  0  0  0  0  0  0  0  0  0
   20.6977   -2.6434   48.0426 O   0  0  0  0  0  0  0  0  0  0  0  0
   17.8686   -4.7888   46.9048 O   0  0  0  0  0  0  0  0  0  0  0  0
   19.6460   -2.1050   45.4721 O   0  0  0  0  0  0  0  0  0  0  0  0
   17.3118   -5.6307   44.8131 O   0  0  0  0  0  0  0  0  0  0  0  0
   15.9237   -5.5483   45.0762 C   0  0  2  0  0  0  0  0  0  0  0  0
   15.1606   -6.7652   44.5544 C   0  0  1  0  0  0  0  0  0  0  0  0
   15.2410   -6.8561   43.0057 C   0  0  2  0  0  0  0  0  0  0  0  0
   14.6766   -5.5244   42.4279 C   0  0  1  0  0  0  0  0  0  0  0  0
   15.5459   -4.3467   42.9789 C   0  0  1  0  0  0  0  0  0  0  0  0
   15.0538   -2.9917   42.5215 C   0  0  0  0  0  0  0  0  0  0  0  0
   14.7477   -5.6039   40.9204 N   0  0  0  0  0  0  0  0  0  0  0  0
   15.4111   -4.3355   44.4405 O   0  0  0  0  0  0  0  0  0  0  0  0
   15.7387   -7.9347   45.1674 O   0  0  0  0  0  0  0  0  0  0  0  0
   14.4148   -7.9548   42.5800 O   0  0  0  0  0  0  0  0  0  0  0  0
   15.8319   -2.4750   41.4966 O   0  0  0  0  0  0  0  0  0  0  0  0
   22.6664   -3.9447   49.6202 C   0  0  1  0  0  0  0  0  0  0  0  0
   23.3314   -2.8567   50.5371 C   0  0  1  0  0  0  0  0  0  0  0  0
   24.8760   -2.8250   50.2514 C   0  0  2  0  0  0  0  0  0  0  0  0
   25.4800   -4.2008   50.5709 C   0  0  1  0  0  0  0  0  0  0  0  0
   24.8214   -5.2901   49.6393 C   0  0  0  0  0  0  0  0  0  0  0  0
   23.2662   -5.3132   49.9135 C   0  0  2  0  0  0  0  0  0  0  0  0
   26.9111   -4.1527   50.3206 N   0  0  0  0  0  0  0  0  0  0  0  0
   22.6034   -6.3143   49.0369 N   0  0  0  0  0  0  0  0  0  0  0  0
   22.7611   -1.5502   50.2380 O   0  0  0  0  0  0  0  0  0  0  0  0
   25.4769   -1.8671   51.0818 O   0  0  0  0  0  0  0  0  0  0  0  0
  1  2  1  0  0  0  0
  1 12  1  6  0  0  0
  1 13  1  0  0  0  0
  2  3  1  0  0  0  0
  2 10  1  1  0  0  0
  4  3  1  1  0  0  0
  4  5  1  0  0  0  0
  4 14  1  0  0  0  0
  5  6  1  0  0  0  0
  5 13  1  1  0  0  0
  6  7  1  0  0  0  0
  6 15  1  1  0  0  0
  7  8  1  0  0  0  0
  7 11  1  6  0  0  0
  8 14  1  0  0  0  0
  8 16  1  6  0  0  0
  9 11  1  0  0  0  0
 17 16  1  6  0  0  0
 17 18  1  0  0  0  0
 17 24  1  0  0  0  0
 18 19  1  0  0  0  0
 18 25  1  1  0  0  0
 19 20  1  0  0  0  0
 19 26  1  6  0  0  0
 20 21  1  0  0  0  0
 20 23  1  6  0  0  0
 21 22  1  6  0  0  0
 21 24  1  0  0  0  0
 22 27  1  0  0  0  0
 28 12  1  1  0  0  0
 28 29  1  0  0  0  0
 28 33  1  0  0  0  0
 29 30  1  0  0  0  0
 29 36  1  6  0  0  0
 30 31  1  0  0  0  0
 30 37  1  1  0  0  0
 31 32  1  0  0  0  0
 31 34  1  6  0  0  0
 32 33  1  0  0  0  0
 33 35  1  6  0  0  0
M  END
>  <CHROM.1>
-173.74415783,170.91328298,-170.59639169,-172.99440860,-102.63567638,65.89450607
19.39079736,-4.32030091,46.68536276,0.48572021,0.58301645,2.11009673

>  <Name>
2oe5_lig

>  <RI>
0

>  <Rbt.Current_Directory>
/home/itssahil/PROJECTS/Mol_Feturizer/New_Systems/rnas/2oe5

>  <Rbt.Executable>
rbdock ($Id: //depot/dev/client3/rdock/2013.1/src/exe/rbdock.cxx#4 $)

>  <Rbt.Library>
libRbt.so (2013.1, Build901 2013/11/27)

>  <Rbt.Parameter_File>
/export/apps/rDock/src/rDock_2013.1_src/data/scripts/dock_solv.prm

>  <Rbt.Receptor>
prm/blind_docking_100.prm

>  <SCORE>
-17.7849

>  <SCORE.INTER>
-12.8453

>  <SCORE.INTER.CONST>
1

>  <SCORE.INTER.POLAR>
-1.48664

>  <SCORE.INTER.ROT>
6

>  <SCORE.INTER.SOLV>
12.8784

>  <SCORE.INTER.VDW>
-15.5008

>  <SCORE.INTER.norm>
-0.34717

>  <SCORE.INTRA>
-4.93958

>  <SCORE.INTRA.DIHEDRAL>
-10.7761

>  <SCORE.INTRA.DIHEDRAL.0>
16.2083

>  <SCORE.INTRA.POLAR>
0

>  <SCORE.INTRA.POLAR.0>
0

>  <SCORE.INTRA.REPUL>
0

>  <SCORE.INTRA.REPUL.0>
0

>  <SCORE.INTRA.SOLV>
-2.28041

>  <SCORE.INTRA.SOLV.lig_0>
-89.8095

>  <SCORE.INTRA.VDW>
1.58865

>  <SCORE.INTRA.VDW.0>
-3.19502

>  <SCORE.INTRA.norm>
-0.133502

>  <SCORE.RESTR>
0

>  <SCORE.RESTR.CAVITY>
0

>  <SCORE.RESTR.norm>
0

>  <SCORE.SYSTEM>
0

>  <SCORE.SYSTEM.CONST>
0

>  <SCORE.SYSTEM.DIHEDRAL>
0

>  <SCORE.SYSTEM.SOLV>
0

>  <SCORE.SYSTEM.norm>
0

>  <SCORE.heavy>
37

>  <SCORE.norm>
-0.480672

>  <RMSD>
7.491

$$$$
2oe5_lig
 OpenBabel11021811463D
libRbt.so/2013.1/901 2013/11/27
 37 40  0  0  0  0  0  0  0  0999 V2000
   21.2772   -2.1367   48.8534 C   0  0  1  0  0  0  0  0  0  0  0  0
   19.9459   -1.7030   49.5067 C   0  0  1  0  0  0  0  0  0  0  0  0
   18.8322   -2.7628   49.1694 C   0  0  0  0  0  0  0  0  0  0  0  0
   18.7465   -2.7876   47.6269 C   0  0  1  0  0  0  0  0  0  0  0  0
   20.1280   -3.2317   46.9707 C   0  0  1  0  0  0  0  0  0  0  0  0
   20.0612   -3.2703   45.4195 C   0  0  1  0  0  0  0  0  0  0  0  0
   18.9421   -4.2819   45.0414 C   0  0  1  0  0  0  0  0  0  0  0  0
   17.6066   -3.8310   45.7458 C   0  0  2  0  0  0  0  0  0  0  0  0
   18.3921   -5.6328   42.8653 C   0  0  0  0  0  0  0  0  0  0  0  0
   20.1097   -1.6106   50.9758 N   0  0  0  0  0  0  0  0  0  0  0  0
   18.7739   -4.3436   43.5406 N   0  0  0  0  0  0  0  0  0  0  0  0
   21.7506   -3.3881   49.3776 O   0  0  0  0  0  0  0  0  0  0  0  0
   21.1590   -2.2823   47.3948 O   0  0  0  0  0  0  0  0  0  0  0  0
   17.7336   -3.7435   47.2135 O   0  0  0  0  0  0  0  0  0  0  0  0
   19.7607   -1.9492   44.9582 O   0  0  0  0  0  0  0  0  0  0  0  0
   16.5789   -4.7638   45.4759 O   0  0  0  0  0  0  0  0  0  0  0  0
   15.3388   -4.2759   45.9523 C   0  0  2  0  0  0  0  0  0  0  0  0
   14.4022   -5.4009   46.3912 C   0  0  1  0  0  0  0  0  0  0  0  0
   14.0097   -6.3048   45.1904 C   0  0  2  0  0  0  0  0  0  0  0  0
   13.3562   -5.3924   44.1105 C   0  0  1  0  0  0  0  0  0  0  0  0
   14.4011   -4.3061   43.6929 C   0  0  1  0  0  0  0  0  0  0  0  0
   13.8536   -3.3259   42.6795 C   0  0  0  0  0  0  0  0  0  0  0  0
   12.9678   -6.2634   42.9381 N   0  0  0  0  0  0  0  0  0  0  0  0
   14.7121   -3.5026   44.8812 O   0  0  0  0  0  0  0  0  0  0  0  0
   15.0863   -6.1635   47.4051 O   0  0  0  0  0  0  0  0  0  0  0  0
   13.0470   -7.2688   45.6538 O   0  0  0  0  0  0  0  0  0  0  0  0
   14.8287   -2.4528   42.2215 O   0  0  0  0  0  0  0  0  0  0  0  0
   23.1642   -3.5647   49.2822 C   0  0  1  0  0  0  0  0  0  0  0  0
   23.8905   -2.6145   50.3004 C   0  0  1  0  0  0  0  0  0  0  0  0
   25.4417   -2.8363   50.1863 C   0  0  2  0  0  0  0  0  0  0  0  0
   25.7722   -4.2975   50.5262 C   0  0  1  0  0  0  0  0  0  0  0  0
   25.0537   -5.2498   49.4943 C   0  0  0  0  0  0  0  0  0  0  0  0
   23.4948   -5.0176   49.5959 C   0  0  2  0  0  0  0  0  0  0  0  0
   27.2109   -4.4847   50.4355 N   0  0  0  0  0  0  0  0  0  0  0  0
   22.7804   -5.8830   48.6209 N   0  0  0  0  0  0  0  0  0  0  0  0
   23.5793   -1.2276   49.9822 O   0  0  0  0  0  0  0  0  0  0  0  0
   26.0936   -2.0026   51.1074 O   0  0  0  0  0  0  0  0  0  0  0  0
  1  2  1  0  0  0  0
  1 12  1  1  0  0  0
  1 13  1  0  0  0  0
  2  3  1  0  0  0  0
  2 10  1  1  0  0  0
  4  3  1  1  0  0  0
  4  5  1  0  0  0  0
  4 14  1  0  0  0  0
  5  6  1  0  0  0  0
  5 13  1  6  0  0  0
  6  7  1  0  0  0  0
  6 15  1  1  0  0  0
  7  8  1  0  0  0  0
  7 11  1  6  0  0  0
  8 14  1  0  0  0  0
  8 16  1  1  0  0  0
  9 11  1  0  0  0  0
 17 16  1  6  0  0  0
 17 18  1  0  0  0  0
 17 24  1  0  0  0  0
 18 19  1  0  0  0  0
 18 25  1  1  0  0  0
 19 20  1  0  0  0  0
 19 26  1  1  0  0  0
 20 21  1  0  0  0  0
 20 23  1  6  0  0  0
 21 22  1  6  0  0  0
 21 24  1  0  0  0  0
 22 27  1  0  0  0  0
 28 12  1  1  0  0  0
 28 29  1  0  0  0  0
 28 33  1  0  0  0  0
 29 30  1  0  0  0  0
 29 36  1  6  0  0  0
 30 31  1  0  0  0  0
 30 37  1  1  0  0  0
 31 32  1  0  0  0  0
 31 34  1  6  0  0  0
 32 33  1  0  0  0  0
 33 35  1  6  0  0  0
M  END
>  <CHROM.1>
-154.37159815,146.36594303,-172.17128255,-149.12428761,-174.03242097,71.15240473
19.21586575,-3.86964395,47.02433292,-0.38446336,-0.39781067,-1.09361163

>  <Name>
2oe5_lig

>  <RI>
0

>  <Rbt.Current_Directory>
/home/itssahil/PROJECTS/Mol_Feturizer/New_Systems/rnas/2oe5

>  <Rbt.Executable>
rbdock ($Id: //depot/dev/client3/rdock/2013.1/src/exe/rbdock.cxx#4 $)

>  <Rbt.Library>
libRbt.so (2013.1, Build901 2013/11/27)

>  <Rbt.Parameter_File>
/export/apps/rDock/src/rDock_2013.1_src/data/scripts/dock_solv.prm

>  <Rbt.Receptor>
prm/blind_docking_100.prm

>  <SCORE>
-24.0288

>  <SCORE.INTER>
-19.5177

>  <SCORE.INTER.CONST>
1

>  <SCORE.INTER.POLAR>
-1

>  <SCORE.INTER.ROT>
6

>  <SCORE.INTER.SOLV>
11.7336

>  <SCORE.INTER.VDW>
-21.1897

>  <SCORE.INTER.norm>
-0.527505

>  <SCORE.INTRA>
-4.62196

>  <SCORE.INTRA.DIHEDRAL>
-7.87617

>  <SCORE.INTRA.DIHEDRAL.0>
16.2083

>  <SCORE.INTRA.POLAR>
0

>  <SCORE.INTRA.POLAR.0>
0

>  <SCORE.INTRA.REPUL>
0

>  <SCORE.INTRA.REPUL.0>
0

>  <SCORE.INTRA.SOLV>
-2.29535

>  <SCORE.INTRA.SOLV.lig_0>
-89.8095

>  <SCORE.INTRA.VDW>
0.463795

>  <SCORE.INTRA.VDW.0>
-3.19502

>  <SCORE.INTRA.norm>
-0.124918

>  <SCORE.RESTR>
0.11091

>  <SCORE.RESTR.CAVITY>
0.11091

>  <SCORE.RESTR.norm>
0.00299756

>  <SCORE.SYSTEM>
0

>  <SCORE.SYSTEM.CONST>
0

>  <SCORE.SYSTEM.DIHEDRAL>
0

>  <SCORE.SYSTEM.SOLV>
0

>  <SCORE.SYSTEM.norm>
0

>  <SCORE.heavy>
37

>  <SCORE.norm>
-0.649426

>  <RMSD>
7.514

$$$$
2oe5_lig
 OpenBabel11021811463D
libRbt.so/2013.1/901 2013/11/27
 37 40  0  0  0  0  0  0  0  0999 V2000
   20.3444   -3.0663   49.8026 C   0  0  1  0  0  0  0  0  0  0  0  0
   18.9414   -3.2951   50.4080 C   0  0  1  0  0  0  0  0  0  0  0  0
   18.2258   -4.4635   49.6335 C   0  0  0  0  0  0  0  0  0  0  0  0
   18.1594   -3.9969   48.1620 C   0  0  1  0  0  0  0  0  0  0  0  0
   19.6133   -3.7614   47.5562 C   0  0  1  0  0  0  0  0  0  0  0  0
   19.5693   -3.2986   46.0743 C   0  0  1  0  0  0  0  0  0  0  0  0
   18.8333   -4.4120   45.2759 C   0  0  1  0  0  0  0  0  0  0  0  0
   17.4206   -4.6438   45.9344 C   0  0  2  0  0  0  0  0  0  0  0  0
   19.1264   -4.9604   42.7311 C   0  0  0  0  0  0  0  0  0  0  0  0
   19.0605   -3.6533   51.8401 N   0  0  0  0  0  0  0  0  0  0  0  0
   18.7002   -4.0171   43.8230 N   0  0  0  0  0  0  0  0  0  0  0  0
   21.1901   -4.2180   49.9553 O   0  0  0  0  0  0  0  0  0  0  0  0
   20.2855   -2.7454   48.3686 O   0  0  0  0  0  0  0  0  0  0  0  0
   17.5063   -5.0170   47.3596 O   0  0  0  0  0  0  0  0  0  0  0  0
   18.8649   -2.0539   46.0219 O   0  0  0  0  0  0  0  0  0  0  0  0
   16.7455   -5.6954   45.2728 O   0  0  0  0  0  0  0  0  0  0  0  0
   15.3499   -5.4605   45.2795 C   0  0  2  0  0  0  0  0  0  0  0  0
   14.5749   -6.5461   44.5336 C   0  0  1  0  0  0  0  0  0  0  0  0
   14.9424   -6.5614   43.0244 C   0  0  2  0  0  0  0  0  0  0  0  0
   14.6475   -5.1417   42.4556 C   0  0  1  0  0  0  0  0  0  0  0  0
   15.5163   -4.1094   43.2467 C   0  0  1  0  0  0  0  0  0  0  0  0
   15.2712   -2.6820   42.8111 C   0  0  0  0  0  0  0  0  0  0  0  0
   14.9992   -5.1468   40.9858 N   0  0  0  0  0  0  0  0  0  0  0  0
   15.1039   -4.1618   44.6545 O   0  0  0  0  0  0  0  0  0  0  0  0
   14.8938   -7.8086   45.1519 O   0  0  0  0  0  0  0  0  0  0  0  0
   14.1000   -7.5274   42.3700 O   0  0  0  0  0  0  0  0  0  0  0  0
   13.9458   -2.3090   42.9746 O   0  0  0  0  0  0  0  0  0  0  0  0
   22.5632   -3.9805   49.6441 C   0  0  1  0  0  0  0  0  0  0  0  0
   23.1394   -2.8659   50.5889 C   0  0  1  0  0  0  0  0  0  0  0  0
   24.6526   -2.6322   50.2368 C   0  0  2  0  0  0  0  0  0  0  0  0
   25.4320   -3.9381   50.4530 C   0  0  1  0  0  0  0  0  0  0  0  0
   24.8617   -5.0525   49.4933 C   0  0  0  0  0  0  0  0  0  0  0  0
   23.3363   -5.2784   49.8348 C   0  0  2  0  0  0  0  0  0  0  0  0
   26.8326   -3.7036   50.1422 N   0  0  0  0  0  0  0  0  0  0  0  0
   22.7541   -6.3086   48.9350 N   0  0  0  0  0  0  0  0  0  0  0  0
   22.4027   -1.6256   50.3877 O   0  0  0  0  0  0  0  0  0  0  0  0
   25.1763   -1.6501   51.0910 O   0  0  0  0  0  0  0  0  0  0  0  0
  1  2  1  0  0  0  0
  1 12  1  6  0  0  0
  1 13  1  0  0  0  0
  2  3  1  0  0  0  0
  2 10  1  1  0  0  0
  4  3  1  1  0  0  0
  4  5  1  0  0  0  0
  4 14  1  0  0  0  0
  5  6  1  0  0  0  0
  5 13  1  1  0  0  0
  6  7  1  0  0  0  0
  6 15  1  1  0  0  0
  7  8  1  0  0  0  0
  7 11  1  6  0  0  0
  8 14  1  0  0  0  0
  8 16  1  6  0  0  0
  9 11  1  0  0  0  0
 17 16  1  6  0  0  0
 17 18  1  0  0  0  0
 17 24  1  0  0  0  0
 18 19  1  0  0  0  0
 18 25  1  1  0  0  0
 19 20  1  0  0  0  0
 19 26  1  6  0  0  0
 20 21  1  0  0  0  0
 20 23  1  6  0  0  0
 21 22  1  6  0  0  0
 21 24  1  0  0  0  0
 22 27  1  0  0  0  0
 28 12  1  1  0  0  0
 28 29  1  0  0  0  0
 28 33  1  0  0  0  0
 29 30  1  0  0  0  0
 29 36  1  6  0  0  0
 30 31  1  0  0  0  0
 30 37  1  1  0  0  0
 31 32  1  0  0  0  0
 31 34  1  6  0  0  0
 32 33  1  0  0  0  0
 33 35  1  6  0  0  0
M  END
>  <CHROM.1>
-168.84574579,129.21543622,-147.47059272,178.04290335,59.10612264,60.06898537
19.06834431,-4.25699749,46.90576504,0.69876451,0.08292738,1.41912776

>  <Name>
2oe5_lig

>  <RI>
0

>  <Rbt.Current_Directory>
/home/itssahil/PROJECTS/Mol_Feturizer/New_Systems/rnas/2oe5

>  <Rbt.Executable>
rbdock ($Id: //depot/dev/client3/rdock/2013.1/src/exe/rbdock.cxx#4 $)

>  <Rbt.Library>
libRbt.so (2013.1, Build901 2013/11/27)

>  <Rbt.Parameter_File>
/export/apps/rDock/src/rDock_2013.1_src/data/scripts/dock_solv.prm

>  <Rbt.Receptor>
prm/blind_docking_80.prm

>  <SCORE>
-13.842

>  <SCORE.INTER>
-9.40373

>  <SCORE.INTER.CONST>
1

>  <SCORE.INTER.POLAR>
-1.25388

>  <SCORE.INTER.ROT>
6

>  <SCORE.INTER.SOLV>
13.1257

>  <SCORE.INTER.VDW>
-14.0648

>  <SCORE.INTER.norm>
-0.254155

>  <SCORE.INTRA>
-4.4392

>  <SCORE.INTRA.DIHEDRAL>
-10.3246

>  <SCORE.INTRA.DIHEDRAL.0>
16.2083

>  <SCORE.INTRA.POLAR>
0

>  <SCORE.INTRA.POLAR.0>
0

>  <SCORE.INTRA.REPUL>
0

>  <SCORE.INTRA.REPUL.0>
0

>  <SCORE.INTRA.SOLV>
-1.35416

>  <SCORE.INTRA.SOLV.lig_0>
-89.8095

>  <SCORE.INTRA.VDW>
1.40016

>  <SCORE.INTRA.VDW.0>
-3.19502

>  <SCORE.INTRA.norm>
-0.119978

>  <SCORE.RESTR>
0.000914642

>  <SCORE.RESTR.CAVITY>
0.000914642

>  <SCORE.RESTR.norm>
2.472e-05

>  <SCORE.SYSTEM>
0

>  <SCORE.SYSTEM.CONST>
0

>  <SCORE.SYSTEM.DIHEDRAL>
0

>  <SCORE.SYSTEM.SOLV>
0

>  <SCORE.SYSTEM.norm>
0

>  <SCORE.heavy>
37

>  <SCORE.norm>
-0.374109

>  <RMSD>
7.515

$$$$
2oe5_lig
 OpenBabel11021811463D
libRbt.so/2013.1/901 2013/11/27
 37 40  0  0  0  0  0  0  0  0999 V2000
   21.3704   -2.0943   48.9512 C   0  0  1  0  0  0  0  0  0  0  0  0
   20.0434   -1.6013   49.5705 C   0  0  1  0  0  0  0  0  0  0  0  0
   18.9099   -2.6522   49.2740 C   0  0  0  0  0  0  0  0  0  0  0  0
   18.8365   -2.7494   47.7337 C   0  0  1  0  0  0  0  0  0  0  0  0
   20.2134   -3.2540   47.1125 C   0  0  1  0  0  0  0  0  0  0  0  0
   20.1588   -3.3658   45.5644 C   0  0  1  0  0  0  0  0  0  0  0  0
   19.0211   -4.3704   45.2248 C   0  0  1  0  0  0  0  0  0  0  0  0
   17.6899   -3.8577   45.8943 C   0  0  2  0  0  0  0  0  0  0  0  0
   18.2557   -5.7386   43.1260 C   0  0  0  0  0  0  0  0  0  0  0  0
   20.1970   -1.4418   51.0349 N   0  0  0  0  0  0  0  0  0  0  0  0
   18.8641   -4.5007   43.7271 N   0  0  0  0  0  0  0  0  0  0  0  0
   21.8121   -3.3289   49.5393 O   0  0  0  0  0  0  0  0  0  0  0  0
   21.2613   -2.3074   47.5002 O   0  0  0  0  0  0  0  0  0  0  0  0
   17.8065   -3.7023   47.3572 O   0  0  0  0  0  0  0  0  0  0  0  0
   19.8909   -2.0625   45.0375 O   0  0  0  0  0  0  0  0  0  0  0  0
   16.6445   -4.7803   45.6597 O   0  0  0  0  0  0  0  0  0  0  0  0
   15.4160   -4.2559   46.1276 C   0  0  2  0  0  0  0  0  0  0  0  0
   14.4412   -5.3529   46.5539 C   0  0  1  0  0  0  0  0  0  0  0  0
   14.0312   -6.2396   45.3461 C   0  0  2  0  0  0  0  0  0  0  0  0
   13.4157   -5.3031   44.2645 C   0  0  1  0  0  0  0  0  0  0  0  0
   14.4974   -4.2482   43.8602 C   0  0  1  0  0  0  0  0  0  0  0  0
   13.9893   -3.2476   42.8463 C   0  0  0  0  0  0  0  0  0  0  0  0
   13.0105   -6.1571   43.0853 N   0  0  0  0  0  0  0  0  0  0  0  0
   14.8229   -3.4594   45.0545 O   0  0  0  0  0  0  0  0  0  0  0  0
   15.0926   -6.1404   47.5705 O   0  0  0  0  0  0  0  0  0  0  0  0
   13.0350   -7.1750   45.7974 O   0  0  0  0  0  0  0  0  0  0  0  0
   14.9647   -2.3291   42.4888 O   0  0  0  0  0  0  0  0  0  0  0  0
   23.1860   -3.6330   49.2976 C   0  0  1  0  0  0  0  0  0  0  0  0
   24.0942   -2.8267   50.2936 C   0  0  1  0  0  0  0  0  0  0  0  0
   25.5982   -3.1876   50.0174 C   0  0  2  0  0  0  0  0  0  0  0  0
   25.8082   -4.6931   50.2392 C   0  0  1  0  0  0  0  0  0  0  0  0
   24.9062   -5.5014   49.2286 C   0  0  0  0  0  0  0  0  0  0  0  0
   23.3946   -5.1286   49.4938 C   0  0  2  0  0  0  0  0  0  0  0  0
   27.2063   -5.0105   49.9990 N   0  0  0  0  0  0  0  0  0  0  0  0
   22.5107   -5.8547   48.5444 N   0  0  0  0  0  0  0  0  0  0  0  0
   23.8978   -1.3982   50.0872 O   0  0  0  0  0  0  0  0  0  0  0  0
   26.4120   -2.4834   50.9174 O   0  0  0  0  0  0  0  0  0  0  0  0
  1  2  1  0  0  0  0
  1 12  1  1  0  0  0
  1 13  1  0  0  0  0
  2  3  1  0  0  0  0
  2 10  1  1  0  0  0
  4  3  1  1  0  0  0
  4  5  1  0  0  0  0
  4 14  1  0  0  0  0
  5  6  1  0  0  0  0
  5 13  1  6  0  0  0
  6  7  1  0  0  0  0
  6 15  1  6  0  0  0
  7  8  1  0  0  0  0
  7 11  1  6  0  0  0
  8 14  1  0  0  0  0
  8 16  1  1  0  0  0
  9 11  1  0  0  0  0
 17 16  1  6  0  0  0
 17 18  1  0  0  0  0
 17 24  1  0  0  0  0
 18 19  1  0  0  0  0
 18 25  1  1  0  0  0
 19 20  1  0  0  0  0
 19 26  1  1  0  0  0
 20 21  1  0  0  0  0
 20 23  1  6  0  0  0
 21 22  1  6  0  0  0
 21 24  1  0  0  0  0
 22 27  1  0  0  0  0
 28 12  1  1  0  0  0
 28 29  1  0  0  0  0
 28 33  1  0  0  0  0
 29 30  1  0  0  0  0
 29 36  1  6  0  0  0
 30 31  1  0  0  0  0
 30 37  1  1  0  0  0
 31 32  1  0  0  0  0
 31 34  1  6  0  0  0
 32 33  1  0  0  0  0
 33 35  1  6  0  0  0
M  END
>  <CHROM.1>
-162.98437601,156.01609121,-173.46938956,-151.45524415,-179.36377335,80.40860990
19.28296176,-3.91993181,47.09817457,0.39986380,-0.33764914,0.64385216

>  <Name>
2oe5_lig

>  <RI>
0

>  <Rbt.Current_Directory>
/home/itssahil/PROJECTS/Mol_Feturizer/New_Systems/rnas/2oe5

>  <Rbt.Executable>
rbdock ($Id: //depot/dev/client3/rdock/2013.1/src/exe/rbdock.cxx#4 $)

>  <Rbt.Library>
libRbt.so (2013.1, Build901 2013/11/27)

>  <Rbt.Parameter_File>
/export/apps/rDock/src/rDock_2013.1_src/data/scripts/dock_solv.prm

>  <Rbt.Receptor>
prm/blind_docking_80.prm

>  <SCORE>
-24.6864

>  <SCORE.INTER>
-19.3167

>  <SCORE.INTER.CONST>
1

>  <SCORE.INTER.POLAR>
-1

>  <SCORE.INTER.ROT>
6

>  <SCORE.INTER.SOLV>
11.6877

>  <SCORE.INTER.VDW>
-21.0404

>  <SCORE.INTER.norm>
-0.522072

>  <SCORE.INTRA>
-5.48471

>  <SCORE.INTRA.DIHEDRAL>
-8.98174

>  <SCORE.INTRA.DIHEDRAL.0>
16.2083

>  <SCORE.INTRA.POLAR>
0

>  <SCORE.INTRA.POLAR.0>
0

>  <SCORE.INTRA.REPUL>
0

>  <SCORE.INTRA.REPUL.0>
0

>  <SCORE.INTRA.SOLV>
-2.19871

>  <SCORE.INTRA.SOLV.lig_0>
-89.8095

>  <SCORE.INTRA.VDW>
0.105515

>  <SCORE.INTRA.VDW.0>
-3.19502

>  <SCORE.INTRA.norm>
-0.148235

>  <SCORE.RESTR>
0.115006

>  <SCORE.RESTR.CAVITY>
0.115006

>  <SCORE.RESTR.norm>
0.00310827

>  <SCORE.SYSTEM>
0

>  <SCORE.SYSTEM.CONST>
0

>  <SCORE.SYSTEM.DIHEDRAL>
0

>  <SCORE.SYSTEM.SOLV>
0

>  <SCORE.SYSTEM.norm>
0

>  <SCORE.heavy>
37

>  <SCORE.norm>
-0.667199

>  <RMSD>
7.534

$$$$
2oe5_lig
 OpenBabel11021811463D
libRbt.so/2013.1/901 2013/11/27
 37 40  0  0  0  0  0  0  0  0999 V2000
   21.5621   -2.1583   48.9028 C   0  0  1  0  0  0  0  0  0  0  0  0
   20.2508   -1.6379   49.5329 C   0  0  1  0  0  0  0  0  0  0  0  0
   19.0957   -2.6702   49.2551 C   0  0  0  0  0  0  0  0  0  0  0  0
   19.0041   -2.7756   47.7163 C   0  0  1  0  0  0  0  0  0  0  0  0
   20.3651   -3.3085   47.0838 C   0  0  1  0  0  0  0  0  0  0  0  0
   20.2919   -3.4289   45.5371 C   0  0  1  0  0  0  0  0  0  0  0  0
   19.1331   -4.4151   45.2159 C   0  0  1  0  0  0  0  0  0  0  0  0
   17.8184   -3.8746   45.8962 C   0  0  2  0  0  0  0  0  0  0  0  0
   18.2982   -5.7710   43.1358 C   0  0  0  0  0  0  0  0  0  0  0  0
   20.4228   -1.4721   50.9945 N   0  0  0  0  0  0  0  0  0  0  0  0
   18.9577   -4.5518   43.7209 N   0  0  0  0  0  0  0  0  0  0  0  0
   21.9881   -3.3968   49.4939 O   0  0  0  0  0  0  0  0  0  0  0  0
   21.4337   -2.3784   47.4544 O   0  0  0  0  0  0  0  0  0  0  0  0
   17.9534   -3.7124   47.3568 O   0  0  0  0  0  0  0  0  0  0  0  0
   20.0415   -2.1242   45.0048 O   0  0  0  0  0  0  0  0  0  0  0  0
   16.7543   -4.7799   45.6787 O   0  0  0  0  0  0  0  0  0  0  0  0
   15.5407   -4.2315   46.1576 C   0  0  2  0  0  0  0  0  0  0  0  0
   14.5713   -5.3065   46.6478 C   0  0  1  0  0  0  0  0  0  0  0  0
   14.1266   -6.2339   45.4837 C   0  0  2  0  0  0  0  0  0  0  0  0
   13.4888   -5.3336   44.3843 C   0  0  1  0  0  0  0  0  0  0  0  0
   14.5654   -4.3006   43.9151 C   0  0  1  0  0  0  0  0  0  0  0  0
   14.0371   -3.3343   42.8783 C   0  0  0  0  0  0  0  0  0  0  0  0
   13.0498   -6.2273   43.2475 N   0  0  0  0  0  0  0  0  0  0  0  0
   14.9249   -3.4709   45.0713 O   0  0  0  0  0  0  0  0  0  0  0  0
   15.2440   -6.0604   47.6758 O   0  0  0  0  0  0  0  0  0  0  0  0
   13.1373   -7.1463   45.9934 O   0  0  0  0  0  0  0  0  0  0  0  0
   15.0396   -2.5282   42.3608 O   0  0  0  0  0  0  0  0  0  0  0  0
   23.3661   -3.7034   49.2798 C   0  0  1  0  0  0  0  0  0  0  0  0
   24.2576   -2.8754   50.2731 C   0  0  1  0  0  0  0  0  0  0  0  0
   25.7661   -3.2393   50.0276 C   0  0  2  0  0  0  0  0  0  0  0  0
   25.9748   -4.7396   50.2834 C   0  0  1  0  0  0  0  0  0  0  0  0
   25.0898   -5.5699   49.2756 C   0  0  0  0  0  0  0  0  0  0  0  0
   23.5737   -5.1943   49.5097 C   0  0  2  0  0  0  0  0  0  0  0  0
   27.3769   -5.0594   50.0714 N   0  0  0  0  0  0  0  0  0  0  0  0
   22.7057   -5.9412   48.5617 N   0  0  0  0  0  0  0  0  0  0  0  0
   24.0623   -1.4518   50.0346 O   0  0  0  0  0  0  0  0  0  0  0  0
   26.5649   -2.5155   50.9256 O   0  0  0  0  0  0  0  0  0  0  0  0
  1  2  1  0  0  0  0
  1 12  1  1  0  0  0
  1 13  1  0  0  0  0
  2  3  1  0  0  0  0
  2 10  1  1  0  0  0
  4  3  1  1  0  0  0
  4  5  1  0  0  0  0
  4 14  1  0  0  0  0
  5  6  1  0  0  0  0
  5 13  1  6  0  0  0
  6  7  1  0  0  0  0
  6 15  1  6  0  0  0
  7  8  1  0  0  0  0
  7 11  1  6  0  0  0
  8 14  1  0  0  0  0
  8 16  1  1  0  0  0
  9 11  1  0  0  0  0
 17 16  1  6  0  0  0
 17 18  1  0  0  0  0
 17 24  1  0  0  0  0
 18 19  1  0  0  0  0
 18 25  1  1  0  0  0
 19 20  1  0  0  0  0
 19 26  1  1  0  0  0
 20 21  1  0  0  0  0
 20 23  1  6  0  0  0
 21 22  1  6  0  0  0
 21 24  1  0  0  0  0
 22 27  1  0  0  0  0
 28 12  1  1  0  0  0
 28 29  1  0  0  0  0
 28 33  1  0  0  0  0
 29 30  1  0  0  0  0
 29 36  1  6  0  0  0
 30 31  1  0  0  0  0
 30 37  1  1  0  0  0
 31 32  1  0  0  0  0
 31 34  1  6  0  0  0
 32 33  1  0  0  0  0
 33 35  1  6  0  0  0
M  END
>  <CHROM.1>
-160.86729454,157.14303764,-173.53765623,-149.39761451,-173.02895212,78.90483877
19.42112962,-3.96008060,47.11427404,0.50764333,0.04085623,1.38660663

>  <Name>
2oe5_lig

>  <RI>
0

>  <Rbt.Current_Directory>
/home/itssahil/PROJECTS/Mol_Feturizer/New_Systems/rnas/2oe5

>  <Rbt.Executable>
rbdock ($Id: //depot/dev/client3/rdock/2013.1/src/exe/rbdock.cxx#4 $)

>  <Rbt.Library>
libRbt.so (2013.1, Build901 2013/11/27)

>  <Rbt.Parameter_File>
/export/apps/rDock/src/rDock_2013.1_src/data/scripts/dock_solv.prm

>  <Rbt.Receptor>
prm/pocket_docking_8.prm

>  <SCORE>
-25.3845

>  <SCORE.INTER>
-20.2579

>  <SCORE.INTER.CONST>
1

>  <SCORE.INTER.POLAR>
-0.972277

>  <SCORE.INTER.ROT>
6

>  <SCORE.INTER.SOLV>
11.2853

>  <SCORE.INTER.VDW>
-21.6261

>  <SCORE.INTER.norm>
-0.547511

>  <SCORE.INTRA>
-5.1266

>  <SCORE.INTRA.DIHEDRAL>
-8.38972

>  <SCORE.INTRA.DIHEDRAL.0>
16.2083

>  <SCORE.INTRA.POLAR>
0

>  <SCORE.INTRA.POLAR.0>
0

>  <SCORE.INTRA.REPUL>
0

>  <SCORE.INTRA.REPUL.0>
0

>  <SCORE.INTRA.SOLV>
-2.20938

>  <SCORE.INTRA.SOLV.lig_0>
-89.8095

>  <SCORE.INTRA.VDW>
0.172949

>  <SCORE.INTRA.VDW.0>
-3.19502

>  <SCORE.INTRA.norm>
-0.138557

>  <SCORE.RESTR>
0

>  <SCORE.RESTR.CAVITY>
0

>  <SCORE.RESTR.norm>
0

>  <SCORE.SYSTEM>
0

>  <SCORE.SYSTEM.CONST>
0

>  <SCORE.SYSTEM.DIHEDRAL>
0

>  <SCORE.SYSTEM.SOLV>
0

>  <SCORE.SYSTEM.norm>
0

>  <SCORE.heavy>
37

>  <SCORE.norm>
-0.686068

>  <RMSD>
7.536

$$$$
2oe5_lig
 OpenBabel11021811463D
libRbt.so/2013.1/901 2013/11/27
 37 40  0  0  0  0  0  0  0  0999 V2000
   20.6297   -5.3655   50.5593 C   0  0  1  0  0  0  0  0  0  0  0  0
   21.3417   -6.4079   49.6684 C   0  0  1  0  0  0  0  0  0  0  0  0
   20.8135   -6.2764   48.1916 C   0  0  0  0  0  0  0  0  0  0  0  0
   19.2909   -6.5238   48.2793 C   0  0  1  0  0  0  0  0  0  0  0  0
   18.5745   -5.4438   49.2049 C   0  0  1  0  0  0  0  0  0  0  0  0
   17.0410   -5.6703   49.3008 C   0  0  1  0  0  0  0  0  0  0  0  0
   16.4812   -5.5859   47.8523 C   0  0  1  0  0  0  0  0  0  0  0  0
   17.2466   -6.6372   46.9623 C   0  0  2  0  0  0  0  0  0  0  0  0
   14.1603   -5.5121   46.6396 C   0  0  0  0  0  0  0  0  0  0  0  0
   22.8046   -6.1780   49.6910 N   0  0  0  0  0  0  0  0  0  0  0  0
   14.9925   -5.8472   47.8474 N   0  0  0  0  0  0  0  0  0  0  0  0
   20.9247   -4.0193   50.1523 O   0  0  0  0  0  0  0  0  0  0  0  0
   19.1678   -5.5248   50.5412 O   0  0  0  0  0  0  0  0  0  0  0  0
   18.7071   -6.4255   46.9526 O   0  0  0  0  0  0  0  0  0  0  0  0
   16.8213   -6.9602   49.8805 O   0  0  0  0  0  0  0  0  0  0  0  0
   16.8079   -6.5458   45.6212 O   0  0  0  0  0  0  0  0  0  0  0  0
   17.2685   -7.6598   44.8796 C   0  0  2  0  0  0  0  0  0  0  0  0
   17.0400   -7.4922   43.3779 C   0  0  1  0  0  0  0  0  0  0  0  0
   15.5241   -7.4246   43.0451 C   0  0  2  0  0  0  0  0  0  0  0  0
   14.8656   -8.7260   43.5916 C   0  0  1  0  0  0  0  0  0  0  0  0
   15.1115   -8.7858   45.1351 C   0  0  1  0  0  0  0  0  0  0  0  0
   14.5565  -10.0421   45.7683 C   0  0  0  0  0  0  0  0  0  0  0  0
   13.3899   -8.6714   43.2701 N   0  0  0  0  0  0  0  0  0  0  0  0
   16.5613   -8.8476   45.3561 O   0  0  0  0  0  0  0  0  0  0  0  0
   17.7089   -6.2822   42.9702 O   0  0  0  0  0  0  0  0  0  0  0  0
   15.3835   -7.3776   41.6137 O   0  0  0  0  0  0  0  0  0  0  0  0
   13.1852  -10.1499   45.5939 O   0  0  0  0  0  0  0  0  0  0  0  0
   20.8368   -3.0579   51.2043 C   0  0  1  0  0  0  0  0  0  0  0  0
   22.1431   -3.0992   52.0754 C   0  0  1  0  0  0  0  0  0  0  0  0
   22.0283   -2.0251   53.2163 C   0  0  2  0  0  0  0  0  0  0  0  0
   21.8769   -0.6313   52.5885 C   0  0  1  0  0  0  0  0  0  0  0  0
   20.5572   -0.5871   51.7255 C   0  0  0  0  0  0  0  0  0  0  0  0
   20.6634   -1.6767   50.5872 C   0  0  2  0  0  0  0  0  0  0  0  0
   21.7908    0.3543   53.6534 N   0  0  0  0  0  0  0  0  0  0  0  0
   19.4264   -1.6825   49.7626 N   0  0  0  0  0  0  0  0  0  0  0  0
   22.2911   -4.4195   52.6724 O   0  0  0  0  0  0  0  0  0  0  0  0
   23.2012   -2.0458   53.9859 O   0  0  0  0  0  0  0  0  0  0  0  0
  1  2  1  0  0  0  0
  1 12  1  6  0  0  0
  1 13  1  0  0  0  0
  2  3  1  0  0  0  0
  2 10  1  6  0  0  0
  4  3  1  6  0  0  0
  4  5  1  0  0  0  0
  4 14  1  0  0  0  0
  5  6  1  0  0  0  0
  5 13  1  1  0  0  0
  6  7  1  0  0  0  0
  6 15  1  6  0  0  0
  7  8  1  0  0  0  0
  7 11  1  1  0  0  0
  8 14  1  0  0  0  0
  8 16  1  6  0  0  0
  9 11  1  0  0  0  0
 17 16  1  1  0  0  0
 17 18  1  0  0  0  0
 17 24  1  0  0  0  0
 18 19  1  0  0  0  0
 18 25  1  1  0  0  0
 19 20  1  0  0  0  0
 19 26  1  6  0  0  0
 20 21  1  0  0  0  0
 20 23  1  1  0  0  0
 21 22  1  6  0  0  0
 21 24  1  0  0  0  0
 22 27  1  0  0  0  0
 28 12  1  6  0  0  0
 28 29  1  0  0  0  0
 28 33  1  0  0  0  0
 29 30  1  0  0  0  0
 29 36  1  1  0  0  0
 30 31  1  0  0  0  0
 30 37  1  6  0  0  0
 31 32  1  0  0  0  0
 31 34  1  1  0  0  0
 32 33  1  0  0  0  0
 33 35  1  1  0  0  0
M  END
>  <CHROM.1>
-153.06520558,165.62302319,-167.50955700,-169.76071825,-60.43025351,79.92861586
18.38686708,-5.58007231,48.17498056,-0.92396552,0.39951233,-2.48841329

>  <Name>
2oe5_lig

>  <RI>
0

>  <Rbt.Current_Directory>
/home/itssahil/PROJECTS/Mol_Feturizer/New_Systems/rnas/2oe5

>  <Rbt.Executable>
rbdock ($Id: //depot/dev/client3/rdock/2013.1/src/exe/rbdock.cxx#4 $)

>  <Rbt.Library>
libRbt.so (2013.1, Build901 2013/11/27)

>  <Rbt.Parameter_File>
/export/apps/rDock/src/rDock_2013.1_src/data/scripts/dock_solv.prm

>  <Rbt.Receptor>
prm/pocket_docking_7.prm

>  <SCORE>
-16.284

>  <SCORE.INTER>
-11.3677

>  <SCORE.INTER.CONST>
1

>  <SCORE.INTER.POLAR>
-0.674073

>  <SCORE.INTER.ROT>
6

>  <SCORE.INTER.SOLV>
12.1932

>  <SCORE.INTER.VDW>
-16.9959

>  <SCORE.INTER.norm>
-0.307234

>  <SCORE.INTRA>
-4.91637

>  <SCORE.INTRA.DIHEDRAL>
-9.93264

>  <SCORE.INTRA.DIHEDRAL.0>
16.2083

>  <SCORE.INTRA.POLAR>
0

>  <SCORE.INTRA.POLAR.0>
0

>  <SCORE.INTRA.REPUL>
0

>  <SCORE.INTRA.REPUL.0>
0

>  <SCORE.INTRA.SOLV>
-0.585902

>  <SCORE.INTRA.SOLV.lig_0>
-89.8095

>  <SCORE.INTRA.VDW>
0.342901

>  <SCORE.INTRA.VDW.0>
-3.19502

>  <SCORE.INTRA.norm>
-0.132875

>  <SCORE.RESTR>
0

>  <SCORE.RESTR.CAVITY>
0

>  <SCORE.RESTR.norm>
0

>  <SCORE.SYSTEM>
0

>  <SCORE.SYSTEM.CONST>
0

>  <SCORE.SYSTEM.DIHEDRAL>
0

>  <SCORE.SYSTEM.SOLV>
0

>  <SCORE.SYSTEM.norm>
0

>  <SCORE.heavy>
37

>  <SCORE.norm>
-0.440109

>  <RMSD>
7.557

$$$$
2oe5_lig
 OpenBabel11021811463D
libRbt.so/2013.1/901 2013/11/27
 37 40  0  0  0  0  0  0  0  0999 V2000
   21.3022   -2.1693   48.8396 C   0  0  1  0  0  0  0  0  0  0  0  0
   19.9718   -1.7231   49.4863 C   0  0  1  0  0  0  0  0  0  0  0  0
   18.8470   -2.7657   49.1327 C   0  0  0  0  0  0  0  0  0  0  0  0
   18.7725   -2.7776   47.5894 C   0  0  1  0  0  0  0  0  0  0  0  0
   20.1530   -3.2348   46.9400 C   0  0  1  0  0  0  0  0  0  0  0  0
   20.0974   -3.2608   45.3881 C   0  0  1  0  0  0  0  0  0  0  0  0
   18.9681   -4.2548   44.9940 C   0  0  1  0  0  0  0  0  0  0  0  0
   17.6333   -3.7918   45.6920 C   0  0  2  0  0  0  0  0  0  0  0  0
   18.5071   -5.6015   42.7948 C   0  0  0  0  0  0  0  0  0  0  0  0
   20.1258   -1.6440   50.9572 N   0  0  0  0  0  0  0  0  0  0  0  0
   18.8103   -4.3029   43.4915 N   0  0  0  0  0  0  0  0  0  0  0  0
   21.7553   -3.4307   49.3576 O   0  0  0  0  0  0  0  0  0  0  0  0
   21.1931   -2.3022   47.3790 O   0  0  0  0  0  0  0  0  0  0  0  0
   17.7504   -3.7171   47.1612 O   0  0  0  0  0  0  0  0  0  0  0  0
   19.8175   -1.9325   44.9348 O   0  0  0  0  0  0  0  0  0  0  0  0
   16.5956   -4.7090   45.4072 O   0  0  0  0  0  0  0  0  0  0  0  0
   15.3554   -4.1997   45.8607 C   0  0  2  0  0  0  0  0  0  0  0  0
   14.4524   -5.2928   46.4308 C   0  0  1  0  0  0  0  0  0  0  0  0
   14.0546   -6.3199   45.3354 C   0  0  2  0  0  0  0  0  0  0  0  0
   13.3595   -5.5331   44.1850 C   0  0  1  0  0  0  0  0  0  0  0  0
   14.3721   -4.4742   43.6374 C   0  0  1  0  0  0  0  0  0  0  0  0
   13.7829   -3.6112   42.5440 C   0  0  0  0  0  0  0  0  0  0  0  0
   12.9657   -6.5245   43.1145 N   0  0  0  0  0  0  0  0  0  0  0  0
   14.6903   -3.5499   44.7323 O   0  0  0  0  0  0  0  0  0  0  0  0
   15.1735   -5.9367   47.5000 O   0  0  0  0  0  0  0  0  0  0  0  0
   13.1225   -7.2510   45.9145 O   0  0  0  0  0  0  0  0  0  0  0  0
   12.8117   -2.7487   43.0291 O   0  0  0  0  0  0  0  0  0  0  0  0
   23.1681   -3.6218   49.2786 C   0  0  1  0  0  0  0  0  0  0  0  0
   23.8967   -2.6214   50.2458 C   0  0  1  0  0  0  0  0  0  0  0  0
   25.4468   -2.8596   50.1512 C   0  0  2  0  0  0  0  0  0  0  0  0
   25.7658   -4.3018   50.5732 C   0  0  1  0  0  0  0  0  0  0  0  0
   25.0450   -5.3051   49.5924 C   0  0  0  0  0  0  0  0  0  0  0  0
   23.4873   -5.0572   49.6739 C   0  0  2  0  0  0  0  0  0  0  0  0
   27.2035   -4.5033   50.4995 N   0  0  0  0  0  0  0  0  0  0  0  0
   22.7710   -5.9706   48.7452 N   0  0  0  0  0  0  0  0  0  0  0  0
   23.5965   -1.2523   49.8497 O   0  0  0  0  0  0  0  0  0  0  0  0
   26.1006   -1.9804   51.0276 O   0  0  0  0  0  0  0  0  0  0  0  0
  1  2  1  0  0  0  0
  1 12  1  1  0  0  0
  1 13  1  0  0  0  0
  2  3  1  0  0  0  0
  2 10  1  1  0  0  0
  4  3  1  1  0  0  0
  4  5  1  0  0  0  0
  4 14  1  0  0  0  0
  5  6  1  0  0  0  0
  5 13  1  6  0  0  0
  6  7  1  0  0  0  0
  6 15  1  1  0  0  0
  7  8  1  0  0  0  0
  7 11  1  6  0  0  0
  8 14  1  0  0  0  0
  8 16  1  1  0  0  0
  9 11  1  0  0  0  0
 17 16  1  6  0  0  0
 17 18  1  0  0  0  0
 17 24  1  0  0  0  0
 18 19  1  0  0  0  0
 18 25  1  1  0  0  0
 19 20  1  0  0  0  0
 19 26  1  1  0  0  0
 20 21  1  0  0  0  0
 20 23  1  6  0  0  0
 21 22  1  6  0  0  0
 21 24  1  0  0  0  0
 22 27  1  0  0  0  0
 28 12  1  1  0  0  0
 28 29  1  0  0  0  0
 28 33  1  0  0  0  0
 29 30  1  0  0  0  0
 29 36  1  6  0  0  0
 30 31  1  0  0  0  0
 30 37  1  1  0  0  0
 31 32  1  0  0  0  0
 31 34  1  6  0  0  0
 32 33  1  0  0  0  0
 33 35  1  6  0  0  0
M  END
>  <CHROM.1>
-154.01907612,142.26163681,-171.31452390,-142.78829248,69.45253373,67.38112863
19.17266622,-3.89553293,47.04496304,0.52094725,-0.10729351,1.09895663

>  <Name>
2oe5_lig

>  <RI>
0

>  <Rbt.Current_Directory>
/home/itssahil/PROJECTS/Mol_Feturizer/New_Systems/rnas/2oe5

>  <Rbt.Executable>
rbdock ($Id: //depot/dev/client3/rdock/2013.1/src/exe/rbdock.cxx#4 $)

>  <Rbt.Library>
libRbt.so (2013.1, Build901 2013/11/27)

>  <Rbt.Parameter_File>
/export/apps/rDock/src/rDock_2013.1_src/data/scripts/dock_solv.prm

>  <Rbt.Receptor>
prm/blind_docking_100.prm

>  <SCORE>
-22.9428

>  <SCORE.INTER>
-19.6941

>  <SCORE.INTER.CONST>
1

>  <SCORE.INTER.POLAR>
-1

>  <SCORE.INTER.ROT>
6

>  <SCORE.INTER.SOLV>
11.6288

>  <SCORE.INTER.VDW>
-21.2723

>  <SCORE.INTER.norm>
-0.532272

>  <SCORE.INTRA>
-3.35527

>  <SCORE.INTRA.DIHEDRAL>
-6.60728

>  <SCORE.INTRA.DIHEDRAL.0>
16.2083

>  <SCORE.INTRA.POLAR>
0

>  <SCORE.INTRA.POLAR.0>
0

>  <SCORE.INTRA.REPUL>
0

>  <SCORE.INTRA.REPUL.0>
0

>  <SCORE.INTRA.SOLV>
-1.85302

>  <SCORE.INTRA.SOLV.lig_0>
-89.8095

>  <SCORE.INTRA.VDW>
0.87488

>  <SCORE.INTRA.VDW.0>
-3.19502

>  <SCORE.INTRA.norm>
-0.0906829

>  <SCORE.RESTR>
0.106563

>  <SCORE.RESTR.CAVITY>
0.106563

>  <SCORE.RESTR.norm>
0.00288007

>  <SCORE.SYSTEM>
0

>  <SCORE.SYSTEM.CONST>
0

>  <SCORE.SYSTEM.DIHEDRAL>
0

>  <SCORE.SYSTEM.SOLV>
0

>  <SCORE.SYSTEM.norm>
0

>  <SCORE.heavy>
37

>  <SCORE.norm>
-0.620075

>  <RMSD>
7.562

$$$$
2oe5_lig
 OpenBabel11021811463D
libRbt.so/2013.1/901 2013/11/27
 37 40  0  0  0  0  0  0  0  0999 V2000
   21.2596   -2.2090   48.8240 C   0  0  1  0  0  0  0  0  0  0  0  0
   19.9396   -1.7949   49.5121 C   0  0  1  0  0  0  0  0  0  0  0  0
   18.8191   -2.8424   49.1592 C   0  0  0  0  0  0  0  0  0  0  0  0
   18.7086   -2.8179   47.6182 C   0  0  1  0  0  0  0  0  0  0  0  0
   20.0787   -3.2424   46.9261 C   0  0  1  0  0  0  0  0  0  0  0  0
   19.9870   -3.2315   45.3757 C   0  0  1  0  0  0  0  0  0  0  0  0
   18.8604   -4.2294   44.9837 C   0  0  1  0  0  0  0  0  0  0  0  0
   17.5371   -3.7998   45.7236 C   0  0  2  0  0  0  0  0  0  0  0  0
   19.3699   -5.2650   42.6319 C   0  0  0  0  0  0  0  0  0  0  0  0
   20.1271   -1.7495   50.9805 N   0  0  0  0  0  0  0  0  0  0  0  0
   18.6680   -4.2432   43.4846 N   0  0  0  0  0  0  0  0  0  0  0  0
   21.7395   -3.4770   49.3004 O   0  0  0  0  0  0  0  0  0  0  0  0
   21.1178   -2.3080   47.3635 O   0  0  0  0  0  0  0  0  0  0  0  0
   17.6877   -3.7592   47.1910 O   0  0  0  0  0  0  0  0  0  0  0  0
   19.6811   -1.8962   44.9616 O   0  0  0  0  0  0  0  0  0  0  0  0
   16.5037   -4.7225   45.4406 O   0  0  0  0  0  0  0  0  0  0  0  0
   15.2676   -4.2365   45.9290 C   0  0  2  0  0  0  0  0  0  0  0  0
   14.3147   -5.3646   46.3225 C   0  0  1  0  0  0  0  0  0  0  0  0
   13.9168   -6.2191   45.0877 C   0  0  2  0  0  0  0  0  0  0  0  0
   13.2801   -5.2597   44.0389 C   0  0  1  0  0  0  0  0  0  0  0  0
   14.3406   -4.1724   43.6659 C   0  0  1  0  0  0  0  0  0  0  0  0
   13.8106   -3.1490   42.6865 C   0  0  0  0  0  0  0  0  0  0  0  0
   12.8865   -6.0824   42.8339 N   0  0  0  0  0  0  0  0  0  0  0  0
   14.6559   -3.4168   44.8841 O   0  0  0  0  0  0  0  0  0  0  0  0
   14.9842   -6.1724   47.3109 O   0  0  0  0  0  0  0  0  0  0  0  0
   12.9396   -7.1870   45.5114 O   0  0  0  0  0  0  0  0  0  0  0  0
   13.2143   -2.0747   43.3292 O   0  0  0  0  0  0  0  0  0  0  0  0
   23.1586   -3.6237   49.2442 C   0  0  1  0  0  0  0  0  0  0  0  0
   23.8350   -2.6785   50.3006 C   0  0  1  0  0  0  0  0  0  0  0  0
   25.3931   -2.8673   50.2290 C   0  0  2  0  0  0  0  0  0  0  0  0
   25.7431   -4.3277   50.5522 C   0  0  1  0  0  0  0  0  0  0  0  0
   25.0749   -5.2747   49.4822 C   0  0  0  0  0  0  0  0  0  0  0  0
   23.5093   -5.0754   49.5413 C   0  0  2  0  0  0  0  0  0  0  0  0
   27.1873   -4.4847   50.5012 N   0  0  0  0  0  0  0  0  0  0  0  0
   22.8418   -5.9364   48.5299 N   0  0  0  0  0  0  0  0  0  0  0  0
   23.5052   -1.2923   49.9984 O   0  0  0  0  0  0  0  0  0  0  0  0
   26.0003   -2.0382   51.1841 O   0  0  0  0  0  0  0  0  0  0  0  0
  1  2  1  0  0  0  0
  1 12  1  1  0  0  0
  1 13  1  0  0  0  0
  2  3  1  0  0  0  0
  2 10  1  1  0  0  0
  4  3  1  1  0  0  0
  4  5  1  0  0  0  0
  4 14  1  0  0  0  0
  5  6  1  0  0  0  0
  5 13  1  6  0  0  0
  6  7  1  0  0  0  0
  6 15  1  1  0  0  0
  7  8  1  0  0  0  0
  7 11  1  6  0  0  0
  8 14  1  0  0  0  0
  8 16  1  1  0  0  0
  9 11  1  0  0  0  0
 17 16  1  6  0  0  0
 17 18  1  0  0  0  0
 17 24  1  0  0  0  0
 18 19  1  0  0  0  0
 18 25  1  1  0  0  0
 19 20  1  0  0  0  0
 19 26  1  1  0  0  0
 20 21  1  0  0  0  0
 20 23  1  6  0  0  0
 21 22  1  6  0  0  0
 21 24  1  0  0  0  0
 22 27  1  0  0  0  0
 28 12  1  1  0  0  0
 28 29  1  0  0  0  0
 28 33  1  0  0  0  0
 29 30  1  0  0  0  0
 29 36  1  6  0  0  0
 30 31  1  0  0  0  0
 30 37  1  1  0  0  0
 31 32  1  0  0  0  0
 31 34  1  6  0  0  0
 32 33  1  0  0  0  0
 33 35  1  6  0  0  0
M  END
>  <CHROM.1>
-151.13861804,94.51761931,-171.02184131,-150.38597477,89.42159135,69.29577845
19.14817513,-3.84000520,47.02406993,0.50130518,-0.17147731,1.01924632

>  <Name>
2oe5_lig

>  <RI>
0

>  <Rbt.Current_Directory>
/home/itssahil/PROJECTS/Mol_Feturizer/New_Systems/rnas/2oe5

>  <Rbt.Executable>
rbdock ($Id: //depot/dev/client3/rdock/2013.1/src/exe/rbdock.cxx#4 $)

>  <Rbt.Library>
libRbt.so (2013.1, Build901 2013/11/27)

>  <Rbt.Parameter_File>
/export/apps/rDock/src/rDock_2013.1_src/data/scripts/dock_solv.prm

>  <Rbt.Receptor>
prm/blind_docking_100.prm

>  <SCORE>
-22.2844

>  <SCORE.INTER>
-20.1951

>  <SCORE.INTER.CONST>
1

>  <SCORE.INTER.POLAR>
-1

>  <SCORE.INTER.ROT>
6

>  <SCORE.INTER.SOLV>
11.8731

>  <SCORE.INTER.VDW>
-21.6877

>  <SCORE.INTER.norm>
-0.545812

>  <SCORE.INTRA>
-2.17664

>  <SCORE.INTRA.DIHEDRAL>
-5.17454

>  <SCORE.INTRA.DIHEDRAL.0>
16.2083

>  <SCORE.INTRA.POLAR>
0

>  <SCORE.INTRA.POLAR.0>
0

>  <SCORE.INTRA.REPUL>
0

>  <SCORE.INTRA.REPUL.0>
0

>  <SCORE.INTRA.SOLV>
-1.87168

>  <SCORE.INTRA.SOLV.lig_0>
-89.8095

>  <SCORE.INTRA.VDW>
1.34646

>  <SCORE.INTRA.VDW.0>
-3.19502

>  <SCORE.INTRA.norm>
-0.0588282

>  <SCORE.RESTR>
0.0873375

>  <SCORE.RESTR.CAVITY>
0.0873375

>  <SCORE.RESTR.norm>
0.00236047

>  <SCORE.SYSTEM>
0

>  <SCORE.SYSTEM.CONST>
0

>  <SCORE.SYSTEM.DIHEDRAL>
0

>  <SCORE.SYSTEM.SOLV>
0

>  <SCORE.SYSTEM.norm>
0

>  <SCORE.heavy>
37

>  <SCORE.norm>
-0.60228

>  <RMSD>
7.576

$$$$
2oe5_lig
 OpenBabel11021811463D
libRbt.so/2013.1/901 2013/11/27
 37 40  0  0  0  0  0  0  0  0999 V2000
   17.5723    1.5192   60.8301 C   0  0  1  0  0  0  0  0  0  0  0  0
   16.7883    2.3954   59.8277 C   0  0  1  0  0  0  0  0  0  0  0  0
   16.8515    1.7350   58.4004 C   0  0  0  0  0  0  0  0  0  0  0  0
   18.3553    1.6531   58.0550 C   0  0  1  0  0  0  0  0  0  0  0  0
   19.1480    0.7507   59.1007 C   0  0  1  0  0  0  0  0  0  0  0  0
   20.6615    0.6492   58.7673 C   0  0  1  0  0  0  0  0  0  0  0  0
   20.7692    0.0338   57.3431 C   0  0  1  0  0  0  0  0  0  0  0  0
   19.9361    0.9304   56.3505 C   0  0  2  0  0  0  0  0  0  0  0  0
   22.9952   -1.3271   57.1071 C   0  0  0  0  0  0  0  0  0  0  0  0
   15.3750    2.5119   60.2549 N   0  0  0  0  0  0  0  0  0  0  0  0
   22.2164   -0.0540   56.9159 N   0  0  0  0  0  0  0  0  0  0  0  0
   16.9899    0.2133   60.9727 O   0  0  0  0  0  0  0  0  0  0  0  0
   18.9761    1.3384   60.4309 O   0  0  0  0  0  0  0  0  0  0  0  0
   18.5184    1.0541   56.7415 O   0  0  0  0  0  0  0  0  0  0  0  0
   21.2137    1.9685   58.8186 O   0  0  0  0  0  0  0  0  0  0  0  0
   19.9585    0.3660   55.0544 O   0  0  0  0  0  0  0  0  0  0  0  0
   19.7383    1.3693   54.0808 C   0  0  2  0  0  0  0  0  0  0  0  0
   19.1987    0.7980   52.7701 C   0  0  1  0  0  0  0  0  0  0  0  0
   20.2340   -0.1480   52.1019 C   0  0  2  0  0  0  0  0  0  0  0  0
   21.5430    0.6677   51.8852 C   0  0  1  0  0  0  0  0  0  0  0  0
   22.0415    1.1692   53.2803 C   0  0  1  0  0  0  0  0  0  0  0  0
   23.2867    2.0223   53.1852 C   0  0  0  0  0  0  0  0  0  0  0  0
   22.5567   -0.2436   51.2325 N   0  0  0  0  0  0  0  0  0  0  0  0
   21.0080    2.0515   53.8352 O   0  0  0  0  0  0  0  0  0  0  0  0
   17.9800    0.0912   53.0747 O   0  0  0  0  0  0  0  0  0  0  0  0
   19.7055   -0.5589   50.8280 O   0  0  0  0  0  0  0  0  0  0  0  0
   23.7259    2.4416   54.4318 O   0  0  0  0  0  0  0  0  0  0  0  0
   16.9309   -0.2567   62.3196 C   0  0  1  0  0  0  0  0  0  0  0  0
   18.3204   -0.0441   63.0203 C   0  0  1  0  0  0  0  0  0  0  0  0
   18.2266   -0.5558   64.5028 C   0  0  2  0  0  0  0  0  0  0  0  0
   17.1499    0.2458   65.2497 C   0  0  1  0  0  0  0  0  0  0  0  0
   15.7526    0.0199   64.5534 C   0  0  0  0  0  0  0  0  0  0  0  0
   15.8487    0.5192   63.0582 C   0  0  2  0  0  0  0  0  0  0  0  0
   17.0862   -0.2241   66.6239 N   0  0  0  0  0  0  0  0  0  0  0  0
   14.5550    0.3028   62.3586 N   0  0  0  0  0  0  0  0  0  0  0  0
   19.3448   -0.8021   62.3149 O   0  0  0  0  0  0  0  0  0  0  0  0
   19.4605   -0.3507   65.1382 O   0  0  0  0  0  0  0  0  0  0  0  0
  1  2  1  0  0  0  0
  1 12  1  6  0  0  0
  1 13  1  0  0  0  0
  2  3  1  0  0  0  0
  2 10  1  1  0  0  0
  4  3  1  1  0  0  0
  4  5  1  0  0  0  0
  4 14  1  0  0  0  0
  5  6  1  0  0  0  0
  5 13  1  1  0  0  0
  6  7  1  0  0  0  0
  6 15  1  6  0  0  0
  7  8  1  0  0  0  0
  7 11  1  6  0  0  0
  8 14  1  0  0  0  0
  8 16  1  6  0  0  0
  9 11  1  0  0  0  0
 17 16  1  1  0  0  0
 17 18  1  0  0  0  0
 17 24  1  0  0  0  0
 18 19  1  0  0  0  0
 18 25  1  1  0  0  0
 19 20  1  0  0  0  0
 19 26  1  6  0  0  0
 20 21  1  0  0  0  0
 20 23  1  1  0  0  0
 21 22  1  6  0  0  0
 21 24  1  0  0  0  0
 22 27  1  0  0  0  0
 28 12  1  6  0  0  0
 28 29  1  0  0  0  0
 28 33  1  0  0  0  0
 29 30  1  0  0  0  0
 29 36  1  6  0  0  0
 30 31  1  0  0  0  0
 30 37  1  1  0  0  0
 31 32  1  0  0  0  0
 31 34  1  1  0  0  0
 32 33  1  0  0  0  0
 33 35  1  6  0  0  0
M  END
>  <CHROM.1>
-137.57746352,95.48666381,-155.23895958,-156.92729994,-179.10594383,-47.79432998
19.22620979,0.65289813,58.19728414,1.93811291,-0.11108184,1.65771548

>  <Name>
2oe5_lig

>  <RI>
0

>  <Rbt.Current_Directory>
/home/itssahil/PROJECTS/Mol_Feturizer/New_Systems/rnas/2oe5

>  <Rbt.Executable>
rbdock ($Id: //depot/dev/client3/rdock/2013.1/src/exe/rbdock.cxx#4 $)

>  <Rbt.Library>
libRbt.so (2013.1, Build901 2013/11/27)

>  <Rbt.Parameter_File>
/export/apps/rDock/src/rDock_2013.1_src/data/scripts/dock_solv.prm

>  <Rbt.Receptor>
prm/pocket_docking_8.prm

>  <SCORE>
-23.585

>  <SCORE.INTER>
-22.4394

>  <SCORE.INTER.CONST>
1

>  <SCORE.INTER.POLAR>
-3.19608

>  <SCORE.INTER.ROT>
6

>  <SCORE.INTER.SOLV>
10.8434

>  <SCORE.INTER.VDW>
-15.5205

>  <SCORE.INTER.norm>
-0.60647

>  <SCORE.INTRA>
-1.16945

>  <SCORE.INTRA.DIHEDRAL>
-3.99843

>  <SCORE.INTRA.DIHEDRAL.0>
16.2083

>  <SCORE.INTRA.POLAR>
0

>  <SCORE.INTRA.POLAR.0>
0

>  <SCORE.INTRA.REPUL>
0

>  <SCORE.INTRA.REPUL.0>
0

>  <SCORE.INTRA.SOLV>
0.30127

>  <SCORE.INTRA.SOLV.lig_0>
-89.8095

>  <SCORE.INTRA.VDW>
0.679131

>  <SCORE.INTRA.VDW.0>
-3.19502

>  <SCORE.INTRA.norm>
-0.0316067

>  <SCORE.RESTR>
0.0238782

>  <SCORE.RESTR.CAVITY>
0.0238782

>  <SCORE.RESTR.norm>
0.000645357

>  <SCORE.SYSTEM>
0

>  <SCORE.SYSTEM.CONST>
0

>  <SCORE.SYSTEM.DIHEDRAL>
0

>  <SCORE.SYSTEM.SOLV>
0

>  <SCORE.SYSTEM.norm>
0

>  <SCORE.heavy>
37

>  <SCORE.norm>
-0.637432

>  <RMSD>
7.594

$$$$
2oe5_lig
 OpenBabel11021811463D
libRbt.so/2013.1/901 2013/11/27
 37 40  0  0  0  0  0  0  0  0999 V2000
   21.1813   -2.3386   48.9112 C   0  0  1  0  0  0  0  0  0  0  0  0
   19.8350   -2.0069   49.5929 C   0  0  1  0  0  0  0  0  0  0  0  0
   18.7544   -3.0617   49.1493 C   0  0  0  0  0  0  0  0  0  0  0  0
   18.6763   -2.9433   47.6107 C   0  0  1  0  0  0  0  0  0  0  0  0
   20.0731   -3.2837   46.9256 C   0  0  1  0  0  0  0  0  0  0  0  0
   20.0143   -3.1776   45.3772 C   0  0  1  0  0  0  0  0  0  0  0  0
   18.9270   -4.1808   44.8975 C   0  0  1  0  0  0  0  0  0  0  0  0
   17.5758   -3.8369   45.6317 C   0  0  2  0  0  0  0  0  0  0  0  0
   19.4465   -5.1076   42.5029 C   0  0  0  0  0  0  0  0  0  0  0  0
   19.9895   -2.0488   51.0653 N   0  0  0  0  0  0  0  0  0  0  0  0
   18.7673   -4.1054   43.3963 N   0  0  0  0  0  0  0  0  0  0  0  0
   21.6889   -3.6198   49.3186 O   0  0  0  0  0  0  0  0  0  0  0  0
   21.0740   -2.3492   47.4446 O   0  0  0  0  0  0  0  0  0  0  0  0
   17.6936   -3.8847   47.1019 O   0  0  0  0  0  0  0  0  0  0  0  0
   19.6773   -1.8282   45.0402 O   0  0  0  0  0  0  0  0  0  0  0  0
   16.5771   -4.7693   45.2677 O   0  0  0  0  0  0  0  0  0  0  0  0
   15.3013   -4.2947   45.6551 C   0  0  2  0  0  0  0  0  0  0  0  0
   14.2050   -5.3384   45.4444 C   0  0  1  0  0  0  0  0  0  0  0  0
   14.0344   -5.6765   43.9379 C   0  0  2  0  0  0  0  0  0  0  0  0
   13.7216   -4.3459   43.1911 C   0  0  1  0  0  0  0  0  0  0  0  0
   14.9149   -3.3627   43.4264 C   0  0  1  0  0  0  0  0  0  0  0  0
   14.6947   -2.0105   42.7856 C   0  0  0  0  0  0  0  0  0  0  0  0
   13.5507   -4.6647   41.7237 N   0  0  0  0  0  0  0  0  0  0  0  0
   15.0018   -3.0996   44.8678 O   0  0  0  0  0  0  0  0  0  0  0  0
   14.5743   -6.5123   46.1948 O   0  0  0  0  0  0  0  0  0  0  0  0
   12.9193   -6.5768   43.8064 O   0  0  0  0  0  0  0  0  0  0  0  0
   14.8437   -2.0578   41.4078 O   0  0  0  0  0  0  0  0  0  0  0  0
   23.1065   -3.7493   49.2078 C   0  0  1  0  0  0  0  0  0  0  0  0
   23.8121   -2.7566   50.1996 C   0  0  1  0  0  0  0  0  0  0  0  0
   25.3685   -2.9270   50.0690 C   0  0  2  0  0  0  0  0  0  0  0  0
   25.7537   -4.3696   50.4299 C   0  0  1  0  0  0  0  0  0  0  0  0
   25.0557   -5.3643   49.4241 C   0  0  0  0  0  0  0  0  0  0  0  0
   23.4911   -5.1841   49.5422 C   0  0  2  0  0  0  0  0  0  0  0  0
   27.1967   -4.5088   50.3234 N   0  0  0  0  0  0  0  0  0  0  0  0
   22.7949   -6.0908   48.5919 N   0  0  0  0  0  0  0  0  0  0  0  0
   23.4491   -1.3872   49.8615 O   0  0  0  0  0  0  0  0  0  0  0  0
   26.0026   -2.0551   50.9668 O   0  0  0  0  0  0  0  0  0  0  0  0
  1  2  1  0  0  0  0
  1 12  1  1  0  0  0
  1 13  1  0  0  0  0
  2  3  1  0  0  0  0
  2 10  1  1  0  0  0
  4  3  1  1  0  0  0
  4  5  1  0  0  0  0
  4 14  1  0  0  0  0
  5  6  1  0  0  0  0
  5 13  1  1  0  0  0
  6  7  1  0  0  0  0
  6 15  1  1  0  0  0
  7  8  1  0  0  0  0
  7 11  1  6  0  0  0
  8 14  1  0  0  0  0
  8 16  1  6  0  0  0
  9 11  1  0  0  0  0
 17 16  1  6  0  0  0
 17 18  1  0  0  0  0
 17 24  1  0  0  0  0
 18 19  1  0  0  0  0
 18 25  1  1  0  0  0
 19 20  1  0  0  0  0
 19 26  1  1  0  0  0
 20 21  1  0  0  0  0
 20 23  1  6  0  0  0
 21 22  1  6  0  0  0
 21 24  1  0  0  0  0
 22 27  1  0  0  0  0
 28 12  1  1  0  0  0
 28 29  1  0  0  0  0
 28 33  1  0  0  0  0
 29 30  1  0  0  0  0
 29 36  1  6  0  0  0
 30 31  1  0  0  0  0
 30 37  1  1  0  0  0
 31 32  1  0  0  0  0
 31 34  1  6  0  0  0
 32 33  1  0  0  0  0
 33 35  1  6  0  0  0
M  END
>  <CHROM.1>
-154.81632521,98.55662556,-165.97907248,-172.83069121,-74.10757279,64.83332502
19.25380596,-3.74410631,46.73487869,0.57377732,0.14271171,1.63996865

>  <Name>
2oe5_lig

>  <RI>
0

>  <Rbt.Current_Directory>
/home/itssahil/PROJECTS/Mol_Feturizer/New_Systems/rnas/2oe5

>  <Rbt.Executable>
rbdock ($Id: //depot/dev/client3/rdock/2013.1/src/exe/rbdock.cxx#4 $)

>  <Rbt.Library>
libRbt.so (2013.1, Build901 2013/11/27)

>  <Rbt.Parameter_File>
/export/apps/rDock/src/rDock_2013.1_src/data/scripts/dock_solv.prm

>  <Rbt.Receptor>
prm/blind_docking_100.prm

>  <SCORE>
-24.2361

>  <SCORE.INTER>
-19.7248

>  <SCORE.INTER.CONST>
1

>  <SCORE.INTER.POLAR>
-1

>  <SCORE.INTER.ROT>
6

>  <SCORE.INTER.SOLV>
11.2129

>  <SCORE.INTER.VDW>
-21.1541

>  <SCORE.INTER.norm>
-0.533102

>  <SCORE.INTRA>
-4.63803

>  <SCORE.INTRA.DIHEDRAL>
-10.6044

>  <SCORE.INTRA.DIHEDRAL.0>
16.2083

>  <SCORE.INTRA.POLAR>
0

>  <SCORE.INTRA.POLAR.0>
0

>  <SCORE.INTRA.REPUL>
0

>  <SCORE.INTRA.REPUL.0>
0

>  <SCORE.INTRA.SOLV>
-1.46028

>  <SCORE.INTRA.SOLV.lig_0>
-89.8095

>  <SCORE.INTRA.VDW>
1.39433

>  <SCORE.INTRA.VDW.0>
-3.19502

>  <SCORE.INTRA.norm>
-0.125352

>  <SCORE.RESTR>
0.126738

>  <SCORE.RESTR.CAVITY>
0.126738

>  <SCORE.RESTR.norm>
0.00342536

>  <SCORE.SYSTEM>
0

>  <SCORE.SYSTEM.CONST>
0

>  <SCORE.SYSTEM.DIHEDRAL>
0

>  <SCORE.SYSTEM.SOLV>
0

>  <SCORE.SYSTEM.norm>
0

>  <SCORE.heavy>
37

>  <SCORE.norm>
-0.655029

>  <RMSD>
7.628

$$$$
2oe5_lig
 OpenBabel11021811463D
libRbt.so/2013.1/901 2013/11/27
 37 40  0  0  0  0  0  0  0  0999 V2000
   21.2901   -2.1822   48.8763 C   0  0  1  0  0  0  0  0  0  0  0  0
   19.9383   -1.7163   49.4617 C   0  0  1  0  0  0  0  0  0  0  0  0
   18.8222   -2.7608   49.0866 C   0  0  0  0  0  0  0  0  0  0  0  0
   18.8072   -2.8048   47.5422 C   0  0  1  0  0  0  0  0  0  0  0  0
   20.2091   -3.2821   46.9564 C   0  0  1  0  0  0  0  0  0  0  0  0
   20.2132   -3.3404   45.4044 C   0  0  1  0  0  0  0  0  0  0  0  0
   19.0944   -4.3371   44.9876 C   0  0  1  0  0  0  0  0  0  0  0  0
   17.7363   -3.8532   45.6238 C   0  0  2  0  0  0  0  0  0  0  0  0
   18.5898   -5.6989   42.8074 C   0  0  0  0  0  0  0  0  0  0  0  0
   20.0359   -1.6070   50.9355 N   0  0  0  0  0  0  0  0  0  0  0  0
   18.9944   -4.4161   43.4816 N   0  0  0  0  0  0  0  0  0  0  0  0
   21.7160   -3.4347   49.4376 O   0  0  0  0  0  0  0  0  0  0  0  0
   21.2367   -2.3454   47.4157 O   0  0  0  0  0  0  0  0  0  0  0  0
   17.7971   -3.7482   47.0945 O   0  0  0  0  0  0  0  0  0  0  0  0
   19.9584   -2.0206   44.9130 O   0  0  0  0  0  0  0  0  0  0  0  0
   16.7053   -4.7713   45.3183 O   0  0  0  0  0  0  0  0  0  0  0  0
   15.4610   -4.2799   45.7800 C   0  0  2  0  0  0  0  0  0  0  0  0
   14.3574   -5.3345   45.7080 C   0  0  1  0  0  0  0  0  0  0  0  0
   14.0718   -5.7483   44.2382 C   0  0  2  0  0  0  0  0  0  0  0  0
   13.6944   -4.4575   43.4525 C   0  0  1  0  0  0  0  0  0  0  0  0
   14.8971   -3.4618   43.5443 C   0  0  1  0  0  0  0  0  0  0  0  0
   14.6202   -2.1439   42.8559 C   0  0  0  0  0  0  0  0  0  0  0  0
   13.4116   -4.8499   42.0207 N   0  0  0  0  0  0  0  0  0  0  0  0
   15.0946   -3.1264   44.9596 O   0  0  0  0  0  0  0  0  0  0  0  0
   14.7904   -6.4687   46.4851 O   0  0  0  0  0  0  0  0  0  0  0  0
   12.9548   -6.6558   44.2394 O   0  0  0  0  0  0  0  0  0  0  0  0
   14.4342   -2.2997   41.4907 O   0  0  0  0  0  0  0  0  0  0  0  0
   23.0944   -3.7352   49.2180 C   0  0  1  0  0  0  0  0  0  0  0  0
   23.9892   -2.8584   50.1653 C   0  0  1  0  0  0  0  0  0  0  0  0
   25.4984   -3.2162   49.9151 C   0  0  2  0  0  0  0  0  0  0  0  0
   25.7268   -4.7026   50.2284 C   0  0  1  0  0  0  0  0  0  0  0  0
   24.8383   -5.5822   49.2666 C   0  0  0  0  0  0  0  0  0  0  0  0
   23.3212   -5.2133   49.5051 C   0  0  2  0  0  0  0  0  0  0  0  0
   27.1296   -5.0160   50.0112 N   0  0  0  0  0  0  0  0  0  0  0  0
   22.4496   -6.0070   48.5995 N   0  0  0  0  0  0  0  0  0  0  0  0
   23.7754   -1.4478   49.8722 O   0  0  0  0  0  0  0  0  0  0  0  0
   26.3005   -2.4483   50.7726 O   0  0  0  0  0  0  0  0  0  0  0  0
  1  2  1  0  0  0  0
  1 12  1  1  0  0  0
  1 13  1  0  0  0  0
  2  3  1  0  0  0  0
  2 10  1  1  0  0  0
  4  3  1  1  0  0  0
  4  5  1  0  0  0  0
  4 14  1  0  0  0  0
  5  6  1  0  0  0  0
  5 13  1  6  0  0  0
  6  7  1  0  0  0  0
  6 15  1  6  0  0  0
  7  8  1  0  0  0  0
  7 11  1  6  0  0  0
  8 14  1  0  0  0  0
  8 16  1  1  0  0  0
  9 11  1  0  0  0  0
 17 16  1  6  0  0  0
 17 18  1  0  0  0  0
 17 24  1  0  0  0  0
 18 19  1  0  0  0  0
 18 25  1  1  0  0  0
 19 20  1  0  0  0  0
 19 26  1  1  0  0  0
 20 21  1  0  0  0  0
 20 23  1  6  0  0  0
 21 22  1  6  0  0  0
 21 24  1  0  0  0  0
 22 27  1  0  0  0  0
 28 12  1  1  0  0  0
 28 29  1  0  0  0  0
 28 33  1  0  0  0  0
 29 30  1  0  0  0  0
 29 36  1  6  0  0  0
 30 31  1  0  0  0  0
 30 37  1  1  0  0  0
 31 32  1  0  0  0  0
 31 34  1  6  0  0  0
 32 33  1  0  0  0  0
 33 35  1  6  0  0  0
M  END
>  <CHROM.1>
-163.98502249,147.78651231,-174.57327023,-169.53953335,-63.78025053,75.05618945
19.28927670,-3.81293608,46.77401523,0.37282923,-0.43617786,0.59341415

>  <Name>
2oe5_lig

>  <RI>
0

>  <Rbt.Current_Directory>
/home/itssahil/PROJECTS/Mol_Feturizer/New_Systems/rnas/2oe5

>  <Rbt.Executable>
rbdock ($Id: //depot/dev/client3/rdock/2013.1/src/exe/rbdock.cxx#4 $)

>  <Rbt.Library>
libRbt.so (2013.1, Build901 2013/11/27)

>  <Rbt.Parameter_File>
/export/apps/rDock/src/rDock_2013.1_src/data/scripts/dock_solv.prm

>  <Rbt.Receptor>
prm/blind_docking_80.prm

>  <SCORE>
-25.8815

>  <SCORE.INTER>
-19.7313

>  <SCORE.INTER.CONST>
1

>  <SCORE.INTER.POLAR>
-1

>  <SCORE.INTER.ROT>
6

>  <SCORE.INTER.SOLV>
10.6985

>  <SCORE.INTER.VDW>
-20.987

>  <SCORE.INTER.norm>
-0.533278

>  <SCORE.INTRA>
-6.20254

>  <SCORE.INTRA.DIHEDRAL>
-12.4789

>  <SCORE.INTRA.DIHEDRAL.0>
16.2083

>  <SCORE.INTRA.POLAR>
0

>  <SCORE.INTRA.POLAR.0>
0

>  <SCORE.INTRA.REPUL>
0

>  <SCORE.INTRA.REPUL.0>
0

>  <SCORE.INTRA.SOLV>
-1.43411

>  <SCORE.INTRA.SOLV.lig_0>
-89.8095

>  <SCORE.INTRA.VDW>
0.753954

>  <SCORE.INTRA.VDW.0>
-3.19502

>  <SCORE.INTRA.norm>
-0.167636

>  <SCORE.RESTR>
0.0523545

>  <SCORE.RESTR.CAVITY>
0.0523545

>  <SCORE.RESTR.norm>
0.00141499

>  <SCORE.SYSTEM>
0

>  <SCORE.SYSTEM.CONST>
0

>  <SCORE.SYSTEM.DIHEDRAL>
0

>  <SCORE.SYSTEM.SOLV>
0

>  <SCORE.SYSTEM.norm>
0

>  <SCORE.heavy>
37

>  <SCORE.norm>
-0.699499

>  <RMSD>
7.655

$$$$
2oe5_lig
 OpenBabel11021811463D
libRbt.so/2013.1/901 2013/11/27
 37 40  0  0  0  0  0  0  0  0999 V2000
   21.3430   -2.4011   48.8950 C   0  0  1  0  0  0  0  0  0  0  0  0
   20.0264   -1.7789   49.4117 C   0  0  1  0  0  0  0  0  0  0  0  0
   18.8213   -2.7110   49.0165 C   0  0  0  0  0  0  0  0  0  0  0  0
   18.8618   -2.7983   47.4743 C   0  0  1  0  0  0  0  0  0  0  0  0
   20.2269   -3.4370   46.9597 C   0  0  1  0  0  0  0  0  0  0  0  0
   20.2852   -3.5407   45.4111 C   0  0  1  0  0  0  0  0  0  0  0  0
   19.0841   -4.4263   44.9730 C   0  0  1  0  0  0  0  0  0  0  0  0
   17.7612   -3.7841   45.5396 C   0  0  2  0  0  0  0  0  0  0  0  0
   18.6975   -3.3407   42.6204 C   0  0  0  0  0  0  0  0  0  0  0  0
   20.0777   -1.6375   50.8850 N   0  0  0  0  0  0  0  0  0  0  0  0
   19.0349   -4.5383   43.4665 N   0  0  0  0  0  0  0  0  0  0  0  0
   21.6114   -3.6744   49.5047 O   0  0  0  0  0  0  0  0  0  0  0  0
   21.3294   -2.6003   47.4380 O   0  0  0  0  0  0  0  0  0  0  0  0
   17.7755   -3.6431   47.0085 O   0  0  0  0  0  0  0  0  0  0  0  0
   20.1911   -2.2164   44.8767 O   0  0  0  0  0  0  0  0  0  0  0  0
   16.6513   -4.5975   45.2144 O   0  0  0  0  0  0  0  0  0  0  0  0
   15.4731   -4.0711   45.7954 C   0  0  2  0  0  0  0  0  0  0  0  0
   14.5393   -5.1667   46.3085 C   0  0  1  0  0  0  0  0  0  0  0  0
   14.0165   -6.0499   45.1424 C   0  0  2  0  0  0  0  0  0  0  0  0
   13.3055   -5.1097   44.1243 C   0  0  1  0  0  0  0  0  0  0  0  0
   14.3476   -4.0566   43.6232 C   0  0  1  0  0  0  0  0  0  0  0  0
   13.7501   -3.0526   42.6627 C   0  0  0  0  0  0  0  0  0  0  0  0
   12.7903   -5.9603   42.9863 N   0  0  0  0  0  0  0  0  0  0  0  0
   14.7848   -3.2710   44.7835 O   0  0  0  0  0  0  0  0  0  0  0  0
   15.2803   -5.9578   47.2586 O   0  0  0  0  0  0  0  0  0  0  0  0
   13.0642   -6.9838   45.6825 O   0  0  0  0  0  0  0  0  0  0  0  0
   14.6944   -2.1471   42.2035 O   0  0  0  0  0  0  0  0  0  0  0  0
   22.9316   -4.1667   49.2734 C   0  0  1  0  0  0  0  0  0  0  0  0
   23.9465   -3.4411   50.2274 C   0  0  1  0  0  0  0  0  0  0  0  0
   25.3877   -4.0083   49.9639 C   0  0  2  0  0  0  0  0  0  0  0  0
   25.4013   -5.5164   50.2557 C   0  0  1  0  0  0  0  0  0  0  0  0
   24.3921   -6.2455   49.2871 C   0  0  0  0  0  0  0  0  0  0  0  0
   22.9447   -5.6660   49.5391 C   0  0  2  0  0  0  0  0  0  0  0  0
   26.7436   -6.0250   50.0264 N   0  0  0  0  0  0  0  0  0  0  0  0
   21.9647   -6.3132   48.6277 N   0  0  0  0  0  0  0  0  0  0  0  0
   23.9366   -2.0103   49.9547 O   0  0  0  0  0  0  0  0  0  0  0  0
   26.2949   -3.3759   50.8272 O   0  0  0  0  0  0  0  0  0  0  0  0
  1  2  1  0  0  0  0
  1 12  1  1  0  0  0
  1 13  1  0  0  0  0
  2  3  1  0  0  0  0
  2 10  1  1  0  0  0
  4  3  1  1  0  0  0
  4  5  1  0  0  0  0
  4 14  1  0  0  0  0
  5  6  1  0  0  0  0
  5 13  1  6  0  0  0
  6  7  1  0  0  0  0
  6 15  1  6  0  0  0
  7  8  1  0  0  0  0
  7 11  1  6  0  0  0
  8 14  1  0  0  0  0
  8 16  1  1  0  0  0
  9 11  1  0  0  0  0
 17 16  1  6  0  0  0
 17 18  1  0  0  0  0
 17 24  1  0  0  0  0
 18 19  1  0  0  0  0
 18 25  1  1  0  0  0
 19 20  1  0  0  0  0
 19 26  1  1  0  0  0
 20 21  1  0  0  0  0
 20 23  1  6  0  0  0
 21 22  1  6  0  0  0
 21 24  1  0  0  0  0
 22 27  1  0  0  0  0
 28 12  1  1  0  0  0
 28 29  1  0  0  0  0
 28 33  1  0  0  0  0
 29 30  1  0  0  0  0
 29 36  1  6  0  0  0
 30 31  1  0  0  0  0
 30 37  1  1  0  0  0
 31 32  1  0  0  0  0
 31 34  1  6  0  0  0
 32 33  1  0  0  0  0
 33 35  1  6  0  0  0
M  END
>  <CHROM.1>
-168.02411590,-68.27299714,176.18807555,-141.94977325,-178.52796455,78.56985090
19.20775335,-4.02860369,46.92871801,-0.34393536,-0.41186161,-0.80937002

>  <Name>
2oe5_lig

>  <RI>
0

>  <Rbt.Current_Directory>
/home/itssahil/PROJECTS/Mol_Feturizer/New_Systems/rnas/2oe5

>  <Rbt.Executable>
rbdock ($Id: //depot/dev/client3/rdock/2013.1/src/exe/rbdock.cxx#4 $)

>  <Rbt.Library>
libRbt.so (2013.1, Build901 2013/11/27)

>  <Rbt.Parameter_File>
/export/apps/rDock/src/rDock_2013.1_src/data/scripts/dock_solv.prm

>  <Rbt.Receptor>
prm/blind_docking_80.prm

>  <SCORE>
-24.146

>  <SCORE.INTER>
-20.6204

>  <SCORE.INTER.CONST>
1

>  <SCORE.INTER.POLAR>
-0.95759

>  <SCORE.INTER.ROT>
6

>  <SCORE.INTER.SOLV>
10.2524

>  <SCORE.INTER.VDW>
-21.5725

>  <SCORE.INTER.norm>
-0.557309

>  <SCORE.INTRA>
-3.68705

>  <SCORE.INTRA.DIHEDRAL>
-8.66489

>  <SCORE.INTRA.DIHEDRAL.0>
16.2083

>  <SCORE.INTRA.POLAR>
0

>  <SCORE.INTRA.POLAR.0>
0

>  <SCORE.INTRA.REPUL>
0

>  <SCORE.INTRA.REPUL.0>
0

>  <SCORE.INTRA.SOLV>
-2.22239

>  <SCORE.INTRA.SOLV.lig_0>
-89.8095

>  <SCORE.INTRA.VDW>
1.75659

>  <SCORE.INTRA.VDW.0>
-3.19502

>  <SCORE.INTRA.norm>
-0.0996499

>  <SCORE.RESTR>
0.161466

>  <SCORE.RESTR.CAVITY>
0.161466

>  <SCORE.RESTR.norm>
0.00436395

>  <SCORE.SYSTEM>
0

>  <SCORE.SYSTEM.CONST>
0

>  <SCORE.SYSTEM.DIHEDRAL>
0

>  <SCORE.SYSTEM.SOLV>
0

>  <SCORE.SYSTEM.norm>
0

>  <SCORE.heavy>
37

>  <SCORE.norm>
-0.652595

>  <RMSD>
7.725

$$$$
2oe5_lig
 OpenBabel11021811463D
libRbt.so/2013.1/901 2013/11/27
 37 40  0  0  0  0  0  0  0  0999 V2000
   19.6391   -4.3511   50.0869 C   0  0  1  0  0  0  0  0  0  0  0  0
   18.3563   -5.2058   50.1922 C   0  0  1  0  0  0  0  0  0  0  0  0
   18.1009   -5.9307   48.8187 C   0  0  0  0  0  0  0  0  0  0  0  0
   17.9649   -4.7968   47.7780 C   0  0  1  0  0  0  0  0  0  0  0  0
   19.2936   -3.9236   47.6864 C   0  0  1  0  0  0  0  0  0  0  0  0
   19.1805   -2.7816   46.6399 C   0  0  1  0  0  0  0  0  0  0  0  0
   18.8893   -3.4542   45.2682 C   0  0  1  0  0  0  0  0  0  0  0  0
   17.5954   -4.3417   45.4153 C   0  0  2  0  0  0  0  0  0  0  0  0
   18.7185   -2.7895   42.7400 C   0  0  0  0  0  0  0  0  0  0  0  0
   18.5091   -6.2178   51.2628 N   0  0  0  0  0  0  0  0  0  0  0  0
   18.7126   -2.4050   44.1947 N   0  0  0  0  0  0  0  0  0  0  0  0
   20.8035   -5.1569   49.8426 O   0  0  0  0  0  0  0  0  0  0  0  0
   19.5554   -3.3535   49.0096 O   0  0  0  0  0  0  0  0  0  0  0  0
   17.7219   -5.3706   46.4656 O   0  0  0  0  0  0  0  0  0  0  0  0
   18.1140   -1.9171   47.0442 O   0  0  0  0  0  0  0  0  0  0  0  0
   17.3345   -5.0205   44.2026 O   0  0  0  0  0  0  0  0  0  0  0  0
   16.0712   -5.6557   44.2605 C   0  0  2  0  0  0  0  0  0  0  0  0
   15.7670   -6.4595   42.9968 C   0  0  1  0  0  0  0  0  0  0  0  0
   15.6609   -5.5329   41.7545 C   0  0  2  0  0  0  0  0  0  0  0  0
   14.5562   -4.4757   42.0510 C   0  0  1  0  0  0  0  0  0  0  0  0
   14.9765   -3.6765   43.3281 C   0  0  1  0  0  0  0  0  0  0  0  0
   13.9456   -2.6502   43.7423 C   0  0  0  0  0  0  0  0  0  0  0  0
   14.4430   -3.5702   40.8463 N   0  0  0  0  0  0  0  0  0  0  0  0
   15.0513   -4.6246   44.4461 O   0  0  0  0  0  0  0  0  0  0  0  0
   16.8270   -7.4218   42.8297 O   0  0  0  0  0  0  0  0  0  0  0  0
   15.2672   -6.3389   40.6292 O   0  0  0  0  0  0  0  0  0  0  0  0
   12.7278   -3.2343   44.0563 O   0  0  0  0  0  0  0  0  0  0  0  0
   22.0389   -4.4518   49.9656 C   0  0  1  0  0  0  0  0  0  0  0  0
   22.2613   -4.0216   51.4597 C   0  0  1  0  0  0  0  0  0  0  0  0
   23.6311   -3.2603   51.5719 C   0  0  2  0  0  0  0  0  0  0  0  0
   24.7690   -4.1951   51.1348 C   0  0  1  0  0  0  0  0  0  0  0  0
   24.5520   -4.6148   49.6298 C   0  0  0  0  0  0  0  0  0  0  0  0
   23.1682   -5.3668   49.5114 C   0  0  2  0  0  0  0  0  0  0  0  0
   26.0315   -3.4857   51.2610 N   0  0  0  0  0  0  0  0  0  0  0  0
   22.9150   -5.7608   48.1005 N   0  0  0  0  0  0  0  0  0  0  0  0
   21.1840   -3.1354   51.8788 O   0  0  0  0  0  0  0  0  0  0  0  0
   23.8425   -2.8903   52.9086 O   0  0  0  0  0  0  0  0  0  0  0  0
  1  2  1  0  0  0  0
  1 12  1  6  0  0  0
  1 13  1  0  0  0  0
  2  3  1  0  0  0  0
  2 10  1  1  0  0  0
  4  3  1  1  0  0  0
  4  5  1  0  0  0  0
  4 14  1  0  0  0  0
  5  6  1  0  0  0  0
  5 13  1  1  0  0  0
  6  7  1  0  0  0  0
  6 15  1  1  0  0  0
  7  8  1  0  0  0  0
  7 11  1  6  0  0  0
  8 14  1  0  0  0  0
  8 16  1  6  0  0  0
  9 11  1  0  0  0  0
 17 16  1  6  0  0  0
 17 18  1  0  0  0  0
 17 24  1  0  0  0  0
 18 19  1  0  0  0  0
 18 25  1  6  0  0  0
 19 20  1  0  0  0  0
 19 26  1  6  0  0  0
 20 21  1  0  0  0  0
 20 23  1  6  0  0  0
 21 22  1  1  0  0  0
 21 24  1  0  0  0  0
 22 27  1  0  0  0  0
 28 12  1  1  0  0  0
 28 29  1  0  0  0  0
 28 33  1  0  0  0  0
 29 30  1  0  0  0  0
 29 36  1  6  0  0  0
 30 31  1  0  0  0  0
 30 37  1  1  0  0  0
 31 32  1  0  0  0  0
 31 34  1  6  0  0  0
 32 33  1  0  0  0  0
 33 35  1  6  0  0  0
M  END
>  <CHROM.1>
-169.73624352,166.68855383,-171.16509830,-177.34566758,61.22397660,66.67907668
18.82890393,-4.36925651,46.86719047,0.82191983,-0.04311601,1.46567772

>  <Name>
2oe5_lig

>  <RI>
0

>  <Rbt.Current_Directory>
/home/itssahil/PROJECTS/Mol_Feturizer/New_Systems/rnas/2oe5

>  <Rbt.Executable>
rbdock ($Id: //depot/dev/client3/rdock/2013.1/src/exe/rbdock.cxx#4 $)

>  <Rbt.Library>
libRbt.so (2013.1, Build901 2013/11/27)

>  <Rbt.Parameter_File>
/export/apps/rDock/src/rDock_2013.1_src/data/scripts/dock_solv.prm

>  <Rbt.Receptor>
prm/blind_docking_60.prm

>  <SCORE>
-19.0221

>  <SCORE.INTER>
-12.1985

>  <SCORE.INTER.CONST>
1

>  <SCORE.INTER.POLAR>
-1.02246

>  <SCORE.INTER.ROT>
6

>  <SCORE.INTER.SOLV>
15.6297

>  <SCORE.INTER.VDW>
-17.534

>  <SCORE.INTER.norm>
-0.329688

>  <SCORE.INTRA>
-6.82362

>  <SCORE.INTRA.DIHEDRAL>
-14.8385

>  <SCORE.INTRA.DIHEDRAL.0>
16.2083

>  <SCORE.INTRA.POLAR>
0

>  <SCORE.INTRA.POLAR.0>
0

>  <SCORE.INTRA.REPUL>
0

>  <SCORE.INTRA.REPUL.0>
0

>  <SCORE.INTRA.SOLV>
-2.14084

>  <SCORE.INTRA.SOLV.lig_0>
-89.8095

>  <SCORE.INTRA.VDW>
1.66603

>  <SCORE.INTRA.VDW.0>
-3.19502

>  <SCORE.INTRA.norm>
-0.184422

>  <SCORE.RESTR>
0

>  <SCORE.RESTR.CAVITY>
0

>  <SCORE.RESTR.norm>
0

>  <SCORE.SYSTEM>
0

>  <SCORE.SYSTEM.CONST>
0

>  <SCORE.SYSTEM.DIHEDRAL>
0

>  <SCORE.SYSTEM.SOLV>
0

>  <SCORE.SYSTEM.norm>
0

>  <SCORE.heavy>
37

>  <SCORE.norm>
-0.51411

>  <RMSD>
7.730

$$$$
2oe5_lig
 OpenBabel11021811463D
libRbt.so/2013.1/901 2013/11/27
 37 40  0  0  0  0  0  0  0  0999 V2000
   21.0679   -2.5160   48.7759 C   0  0  1  0  0  0  0  0  0  0  0  0
   19.7350   -2.0588   49.4096 C   0  0  1  0  0  0  0  0  0  0  0  0
   18.5980   -3.0738   49.0168 C   0  0  0  0  0  0  0  0  0  0  0  0
   18.5492   -3.0540   47.4726 C   0  0  1  0  0  0  0  0  0  0  0  0
   19.9320   -3.5231   46.8370 C   0  0  1  0  0  0  0  0  0  0  0  0
   19.9019   -3.5175   45.2841 C   0  0  1  0  0  0  0  0  0  0  0  0
   18.7620   -4.4831   44.8518 C   0  0  1  0  0  0  0  0  0  0  0  0
   17.4241   -4.0099   45.5369 C   0  0  2  0  0  0  0  0  0  0  0  0
   19.7700   -4.9597   42.4812 C   0  0  0  0  0  0  0  0  0  0  0  0
   19.8657   -2.0114   50.8841 N   0  0  0  0  0  0  0  0  0  0  0  0
   18.6285   -4.4988   43.3463 N   0  0  0  0  0  0  0  0  0  0  0  0
   21.4900   -3.7954   49.2760 O   0  0  0  0  0  0  0  0  0  0  0  0
   20.9810   -2.6182   47.3114 O   0  0  0  0  0  0  0  0  0  0  0  0
   17.5179   -3.9663   47.0091 O   0  0  0  0  0  0  0  0  0  0  0  0
   19.6532   -2.1757   44.8529 O   0  0  0  0  0  0  0  0  0  0  0  0
   16.3752   -4.9026   45.2170 O   0  0  0  0  0  0  0  0  0  0  0  0
   15.1429   -4.4014   45.6999 C   0  0  2  0  0  0  0  0  0  0  0  0
   14.0845   -5.4954   45.8360 C   0  0  1  0  0  0  0  0  0  0  0  0
   13.7230   -6.1016   44.4521 C   0  0  2  0  0  0  0  0  0  0  0  0
   13.2391   -4.9347   43.5410 C   0  0  1  0  0  0  0  0  0  0  0  0
   14.4001   -3.8931   43.4250 C   0  0  1  0  0  0  0  0  0  0  0  0
   14.0214   -2.6836   42.5997 C   0  0  0  0  0  0  0  0  0  0  0  0
   12.8819   -5.5149   42.1920 N   0  0  0  0  0  0  0  0  0  0  0  0
   14.6737   -3.3747   44.7706 O   0  0  0  0  0  0  0  0  0  0  0  0
   14.6166   -6.5060   46.7153 O   0  0  0  0  0  0  0  0  0  0  0  0
   12.6497   -7.0409   44.6434 O   0  0  0  0  0  0  0  0  0  0  0  0
   13.1243   -1.8612   43.2642 O   0  0  0  0  0  0  0  0  0  0  0  0
   22.8803   -4.0646   49.0941 C   0  0  1  0  0  0  0  0  0  0  0  0
   23.7360   -2.9860   49.8500 C   0  0  1  0  0  0  0  0  0  0  0  0
   25.2597   -3.3107   49.6465 C   0  0  2  0  0  0  0  0  0  0  0  0
   25.5644   -4.7011   50.2242 C   0  0  1  0  0  0  0  0  0  0  0  0
   24.7150   -5.7847   49.4544 C   0  0  0  0  0  0  0  0  0  0  0  0
   23.1829   -5.4517   49.6446 C   0  0  2  0  0  0  0  0  0  0  0  0
   26.9796   -4.9813   50.0466 N   0  0  0  0  0  0  0  0  0  0  0  0
   22.3464   -6.4398   48.9140 N   0  0  0  0  0  0  0  0  0  0  0  0
   23.4498   -1.6656   49.3058 O   0  0  0  0  0  0  0  0  0  0  0  0
   26.0277   -2.3601   50.3356 O   0  0  0  0  0  0  0  0  0  0  0  0
  1  2  1  0  0  0  0
  1 12  1  1  0  0  0
  1 13  1  0  0  0  0
  2  3  1  0  0  0  0
  2 10  1  1  0  0  0
  4  3  1  1  0  0  0
  4  5  1  0  0  0  0
  4 14  1  0  0  0  0
  5  6  1  0  0  0  0
  5 13  1  6  0  0  0
  6  7  1  0  0  0  0
  6 15  1  1  0  0  0
  7  8  1  0  0  0  0
  7 11  1  6  0  0  0
  8 14  1  0  0  0  0
  8 16  1  1  0  0  0
  9 11  1  0  0  0  0
 17 16  1  6  0  0  0
 17 18  1  0  0  0  0
 17 24  1  0  0  0  0
 18 19  1  0  0  0  0
 18 25  1  1  0  0  0
 19 20  1  0  0  0  0
 19 26  1  1  0  0  0
 20 21  1  0  0  0  0
 20 23  1  6  0  0  0
 21 22  1  6  0  0  0
 21 24  1  0  0  0  0
 22 27  1  0  0  0  0
 28 12  1  1  0  0  0
 28 29  1  0  0  0  0
 28 33  1  0  0  0  0
 29 30  1  0  0  0  0
 29 36  1  6  0  0  0
 30 31  1  0  0  0  0
 30 37  1  1  0  0  0
 31 32  1  0  0  0  0
 31 34  1  6  0  0  0
 32 33  1  0  0  0  0
 33 35  1  6  0  0  0
M  END
>  <CHROM.1>
-159.97314258,61.65202671,-173.27753603,-159.72042831,71.87114016,60.46171995
19.01478418,-4.00588248,46.76587565,0.42659976,0.31080437,2.00210088

>  <Name>
2oe5_lig

>  <RI>
0

>  <Rbt.Current_Directory>
/home/itssahil/PROJECTS/Mol_Feturizer/New_Systems/rnas/2oe5

>  <Rbt.Executable>
rbdock ($Id: //depot/dev/client3/rdock/2013.1/src/exe/rbdock.cxx#4 $)

>  <Rbt.Library>
libRbt.so (2013.1, Build901 2013/11/27)

>  <Rbt.Parameter_File>
/export/apps/rDock/src/rDock_2013.1_src/data/scripts/dock_solv.prm

>  <Rbt.Receptor>
prm/blind_docking_80.prm

>  <SCORE>
-21.8156

>  <SCORE.INTER>
-17.3122

>  <SCORE.INTER.CONST>
1

>  <SCORE.INTER.POLAR>
-1

>  <SCORE.INTER.ROT>
6

>  <SCORE.INTER.SOLV>
11.5232

>  <SCORE.INTER.VDW>
-19.6492

>  <SCORE.INTER.norm>
-0.467897

>  <SCORE.INTRA>
-4.5034

>  <SCORE.INTRA.DIHEDRAL>
-11.7838

>  <SCORE.INTRA.DIHEDRAL.0>
16.2083

>  <SCORE.INTRA.POLAR>
0

>  <SCORE.INTRA.POLAR.0>
0

>  <SCORE.INTRA.REPUL>
0

>  <SCORE.INTRA.REPUL.0>
0

>  <SCORE.INTRA.SOLV>
-2.29141

>  <SCORE.INTRA.SOLV.lig_0>
-89.8095

>  <SCORE.INTRA.VDW>
2.53423

>  <SCORE.INTRA.VDW.0>
-3.19502

>  <SCORE.INTRA.norm>
-0.121713

>  <SCORE.RESTR>
0

>  <SCORE.RESTR.CAVITY>
0

>  <SCORE.RESTR.norm>
0

>  <SCORE.SYSTEM>
0

>  <SCORE.SYSTEM.CONST>
0

>  <SCORE.SYSTEM.DIHEDRAL>
0

>  <SCORE.SYSTEM.SOLV>
0

>  <SCORE.SYSTEM.norm>
0

>  <SCORE.heavy>
37

>  <SCORE.norm>
-0.589611

>  <RMSD>
7.848

$$$$
2oe5_lig
 OpenBabel11021811463D
libRbt.so/2013.1/901 2013/11/27
 37 40  0  0  0  0  0  0  0  0999 V2000
   21.1589   -2.4409   48.7134 C   0  0  1  0  0  0  0  0  0  0  0  0
   19.8357   -2.0112   49.3856 C   0  0  1  0  0  0  0  0  0  0  0  0
   18.6967   -3.0199   48.9825 C   0  0  0  0  0  0  0  0  0  0  0  0
   18.6189   -2.9523   47.4408 C   0  0  1  0  0  0  0  0  0  0  0  0
   19.9920   -3.3936   46.7653 C   0  0  1  0  0  0  0  0  0  0  0  0
   19.9329   -3.3398   45.2142 C   0  0  1  0  0  0  0  0  0  0  0  0
   18.7900   -4.2978   44.7731 C   0  0  1  0  0  0  0  0  0  0  0  0
   17.4627   -3.8539   45.4974 C   0  0  2  0  0  0  0  0  0  0  0  0
   19.5106   -5.1086   42.3885 C   0  0  0  0  0  0  0  0  0  0  0  0
   19.9937   -2.0090   50.8582 N   0  0  0  0  0  0  0  0  0  0  0  0
   18.6285   -4.2674   43.2706 N   0  0  0  0  0  0  0  0  0  0  0  0
   21.5966   -3.7328   49.1654 O   0  0  0  0  0  0  0  0  0  0  0  0
   21.0450   -2.4980   47.2483 O   0  0  0  0  0  0  0  0  0  0  0  0
   17.5838   -3.8555   46.9682 O   0  0  0  0  0  0  0  0  0  0  0  0
   19.6693   -1.9867   44.8298 O   0  0  0  0  0  0  0  0  0  0  0  0
   16.4126   -4.7420   45.1692 O   0  0  0  0  0  0  0  0  0  0  0  0
   15.1773   -4.2305   45.6331 C   0  0  2  0  0  0  0  0  0  0  0  0
   14.0504   -5.2583   45.5369 C   0  0  1  0  0  0  0  0  0  0  0  0
   13.7635   -5.6396   44.0587 C   0  0  2  0  0  0  0  0  0  0  0  0
   13.4199   -4.3270   43.2940 C   0  0  1  0  0  0  0  0  0  0  0  0
   14.6443   -3.3607   43.4095 C   0  0  1  0  0  0  0  0  0  0  0  0
   14.4011   -2.0250   42.7429 C   0  0  0  0  0  0  0  0  0  0  0  0
   13.1360   -4.6878   41.8541 N   0  0  0  0  0  0  0  0  0  0  0  0
   14.8416   -3.0547   44.8314 O   0  0  0  0  0  0  0  0  0  0  0  0
   14.4534   -6.4154   46.2961 O   0  0  0  0  0  0  0  0  0  0  0  0
   12.6263   -6.5213   44.0382 O   0  0  0  0  0  0  0  0  0  0  0  0
   14.2523   -2.1488   41.3699 O   0  0  0  0  0  0  0  0  0  0  0  0
   22.9994   -3.9578   49.0226 C   0  0  1  0  0  0  0  0  0  0  0  0
   23.7907   -3.0500   50.0308 C   0  0  1  0  0  0  0  0  0  0  0  0
   25.3286   -3.3247   49.8643 C   0  0  2  0  0  0  0  0  0  0  0  0
   25.6170   -4.8018   50.1723 C   0  0  1  0  0  0  0  0  0  0  0  0
   24.8329   -5.7119   49.1500 C   0  0  0  0  0  0  0  0  0  0  0  0
   23.2873   -5.4263   49.3045 C   0  0  2  0  0  0  0  0  0  0  0  0
   27.0445   -5.0384   50.0332 N   0  0  0  0  0  0  0  0  0  0  0  0
   22.5122   -6.2505   48.3402 N   0  0  0  0  0  0  0  0  0  0  0  0
   23.5197   -1.6481   49.7429 O   0  0  0  0  0  0  0  0  0  0  0  0
   26.0384   -2.5291   50.7762 O   0  0  0  0  0  0  0  0  0  0  0  0
  1  2  1  0  0  0  0
  1 12  1  1  0  0  0
  1 13  1  0  0  0  0
  2  3  1  0  0  0  0
  2 10  1  1  0  0  0
  4  3  1  1  0  0  0
  4  5  1  0  0  0  0
  4 14  1  0  0  0  0
  5  6  1  0  0  0  0
  5 13  1  1  0  0  0
  6  7  1  0  0  0  0
  6 15  1  1  0  0  0
  7  8  1  0  0  0  0
  7 11  1  6  0  0  0
  8 14  1  0  0  0  0
  8 16  1  1  0  0  0
  9 11  1  0  0  0  0
 17 16  1  6  0  0  0
 17 18  1  0  0  0  0
 17 24  1  0  0  0  0
 18 19  1  0  0  0  0
 18 25  1  1  0  0  0
 19 20  1  0  0  0  0
 19 26  1  1  0  0  0
 20 21  1  0  0  0  0
 20 23  1  6  0  0  0
 21 22  1  6  0  0  0
 21 24  1  0  0  0  0
 22 27  1  0  0  0  0
 28 12  1  1  0  0  0
 28 29  1  0  0  0  0
 28 33  1  0  0  0  0
 29 30  1  0  0  0  0
 29 36  1  6  0  0  0
 30 31  1  0  0  0  0
 30 37  1  1  0  0  0
 31 32  1  0  0  0  0
 31 34  1  6  0  0  0
 32 33  1  0  0  0  0
 33 35  1  6  0  0  0
M  END
>  <CHROM.1>
-156.42509721,83.07394515,-170.41112014,-169.47066486,-65.28050796,69.29362353
19.11669959,-3.85228086,46.62508589,0.55778866,-0.03203443,1.42158386

>  <Name>
2oe5_lig

>  <RI>
0

>  <Rbt.Current_Directory>
/home/itssahil/PROJECTS/Mol_Feturizer/New_Systems/rnas/2oe5

>  <Rbt.Executable>
rbdock ($Id: //depot/dev/client3/rdock/2013.1/src/exe/rbdock.cxx#4 $)

>  <Rbt.Library>
libRbt.so (2013.1, Build901 2013/11/27)

>  <Rbt.Parameter_File>
/export/apps/rDock/src/rDock_2013.1_src/data/scripts/dock_solv.prm

>  <Rbt.Receptor>
prm/blind_docking_80.prm

>  <SCORE>
-25.6683

>  <SCORE.INTER>
-20.3349

>  <SCORE.INTER.CONST>
1

>  <SCORE.INTER.POLAR>
-1

>  <SCORE.INTER.ROT>
6

>  <SCORE.INTER.SOLV>
10.6082

>  <SCORE.INTER.VDW>
-21.3594

>  <SCORE.INTER.norm>
-0.549593

>  <SCORE.INTRA>
-5.34337

>  <SCORE.INTRA.DIHEDRAL>
-11.848

>  <SCORE.INTRA.DIHEDRAL.0>
16.2083

>  <SCORE.INTRA.POLAR>
0

>  <SCORE.INTRA.POLAR.0>
0

>  <SCORE.INTRA.REPUL>
0

>  <SCORE.INTRA.REPUL.0>
0

>  <SCORE.INTRA.SOLV>
-1.34614

>  <SCORE.INTRA.SOLV.lig_0>
-89.8095

>  <SCORE.INTRA.VDW>
1.25371

>  <SCORE.INTRA.VDW.0>
-3.19502

>  <SCORE.INTRA.norm>
-0.144415

>  <SCORE.RESTR>
0.00998791

>  <SCORE.RESTR.CAVITY>
0.00998791

>  <SCORE.RESTR.norm>
0.000269944

>  <SCORE.SYSTEM>
0

>  <SCORE.SYSTEM.CONST>
0

>  <SCORE.SYSTEM.DIHEDRAL>
0

>  <SCORE.SYSTEM.SOLV>
0

>  <SCORE.SYSTEM.norm>
0

>  <SCORE.heavy>
37

>  <SCORE.norm>
-0.693738

>  <RMSD>
7.848

$$$$
2oe5_lig
 OpenBabel11021811463D
libRbt.so/2013.1/901 2013/11/27
 37 40  0  0  0  0  0  0  0  0999 V2000
   20.1015   -4.4692   50.5675 C   0  0  1  0  0  0  0  0  0  0  0  0
   18.8120   -5.1034   51.1353 C   0  0  1  0  0  0  0  0  0  0  0  0
   18.0344   -5.8273   49.9741 C   0  0  0  0  0  0  0  0  0  0  0  0
   17.7354   -4.7245   48.9340 C   0  0  1  0  0  0  0  0  0  0  0  0
   19.0748   -4.0790   48.3635 C   0  0  1  0  0  0  0  0  0  0  0  0
   18.7966   -2.9722   47.3100 C   0  0  1  0  0  0  0  0  0  0  0  0
   17.9932   -3.6387   46.1572 C   0  0  1  0  0  0  0  0  0  0  0  0
   16.7021   -4.3019   46.7706 C   0  0  2  0  0  0  0  0  0  0  0  0
   17.2683   -3.0445   43.7109 C   0  0  0  0  0  0  0  0  0  0  0  0
   19.1534   -6.0874   52.1883 N   0  0  0  0  0  0  0  0  0  0  0  0
   17.6338   -2.6142   45.1056 N   0  0  0  0  0  0  0  0  0  0  0  0
   21.0026   -5.4593   50.0453 O   0  0  0  0  0  0  0  0  0  0  0  0
   19.8208   -3.5106   49.4881 O   0  0  0  0  0  0  0  0  0  0  0  0
   17.0100   -5.2991   47.8140 O   0  0  0  0  0  0  0  0  0  0  0  0
   18.0464   -1.9342   47.9488 O   0  0  0  0  0  0  0  0  0  0  0  0
   15.9768   -4.9735   45.7597 O   0  0  0  0  0  0  0  0  0  0  0  0
   14.7458   -5.4462   46.2737 C   0  0  2  0  0  0  0  0  0  0  0  0
   14.4964   -6.9133   45.9260 C   0  0  1  0  0  0  0  0  0  0  0  0
   14.3590   -7.1106   44.3913 C   0  0  2  0  0  0  0  0  0  0  0  0
   13.2001   -6.1922   43.9022 C   0  0  1  0  0  0  0  0  0  0  0  0
   13.5656   -4.7140   44.2596 C   0  0  1  0  0  0  0  0  0  0  0  0
   12.4806   -3.7331   43.8750 C   0  0  0  0  0  0  0  0  0  0  0  0
   13.0563   -6.3791   42.4094 N   0  0  0  0  0  0  0  0  0  0  0  0
   13.6741   -4.6195   45.7204 O   0  0  0  0  0  0  0  0  0  0  0  0
   15.6045   -7.6758   46.4439 O   0  0  0  0  0  0  0  0  0  0  0  0
   14.0187   -8.4875   44.1474 O   0  0  0  0  0  0  0  0  0  0  0  0
   12.8287   -2.4264   44.1816 O   0  0  0  0  0  0  0  0  0  0  0  0
   22.3120   -4.9661   49.7607 C   0  0  1  0  0  0  0  0  0  0  0  0
   22.9805   -4.4353   51.0791 C   0  0  1  0  0  0  0  0  0  0  0  0
   24.4230   -3.9110   50.7432 C   0  0  2  0  0  0  0  0  0  0  0  0
   25.2626   -5.0642   50.1733 C   0  0  1  0  0  0  0  0  0  0  0  0
   24.5978   -5.5867   48.8417 C   0  0  0  0  0  0  0  0  0  0  0  0
   23.1416   -6.1001   49.1738 C   0  0  2  0  0  0  0  0  0  0  0  0
   26.5993   -4.5712   49.8845 N   0  0  0  0  0  0  0  0  0  0  0  0
   22.4708   -6.5819   47.9378 N   0  0  0  0  0  0  0  0  0  0  0  0
   22.1872   -3.3418   51.6236 O   0  0  0  0  0  0  0  0  0  0  0  0
   25.0309   -3.4529   51.9217 O   0  0  0  0  0  0  0  0  0  0  0  0
  1  2  1  0  0  0  0
  1 12  1  6  0  0  0
  1 13  1  0  0  0  0
  2  3  1  0  0  0  0
  2 10  1  1  0  0  0
  4  3  1  1  0  0  0
  4  5  1  0  0  0  0
  4 14  1  0  0  0  0
  5  6  1  0  0  0  0
  5 13  1  1  0  0  0
  6  7  1  0  0  0  0
  6 15  1  1  0  0  0
  7  8  1  0  0  0  0
  7 11  1  6  0  0  0
  8 14  1  0  0  0  0
  8 16  1  6  0  0  0
  9 11  1  0  0  0  0
 17 16  1  6  0  0  0
 17 18  1  0  0  0  0
 17 24  1  0  0  0  0
 18 19  1  0  0  0  0
 18 25  1  6  0  0  0
 19 20  1  0  0  0  0
 19 26  1  1  0  0  0
 20 21  1  0  0  0  0
 20 23  1  6  0  0  0
 21 22  1  1  0  0  0
 21 24  1  0  0  0  0
 22 27  1  0  0  0  0
 28 12  1  1  0  0  0
 28 29  1  0  0  0  0
 28 33  1  0  0  0  0
 29 30  1  0  0  0  0
 29 36  1  6  0  0  0
 30 31  1  0  0  0  0
 30 37  1  1  0  0  0
 31 32  1  0  0  0  0
 31 34  1  6  0  0  0
 32 33  1  0  0  0  0
 33 35  1  6  0  0  0
M  END
>  <CHROM.1>
-167.86339442,159.93197558,-173.66626860,-131.15065331,-179.15002224,61.44908740
18.45192199,-4.84299334,47.66052405,0.08771903,0.56039945,2.86218842

>  <Name>
2oe5_lig

>  <RI>
0

>  <Rbt.Current_Directory>
/home/itssahil/PROJECTS/Mol_Feturizer/New_Systems/rnas/2oe5

>  <Rbt.Executable>
rbdock ($Id: //depot/dev/client3/rdock/2013.1/src/exe/rbdock.cxx#4 $)

>  <Rbt.Library>
libRbt.so (2013.1, Build901 2013/11/27)

>  <Rbt.Parameter_File>
/export/apps/rDock/src/rDock_2013.1_src/data/scripts/dock_solv.prm

>  <Rbt.Receptor>
prm/blind_docking_100.prm

>  <SCORE>
-17.0031

>  <SCORE.INTER>
-13.2265

>  <SCORE.INTER.CONST>
1

>  <SCORE.INTER.POLAR>
-0.453978

>  <SCORE.INTER.ROT>
6

>  <SCORE.INTER.SOLV>
19.5972

>  <SCORE.INTER.VDW>
-21.4368

>  <SCORE.INTER.norm>
-0.357472

>  <SCORE.INTRA>
-4.02927

>  <SCORE.INTRA.DIHEDRAL>
-8.31411

>  <SCORE.INTRA.DIHEDRAL.0>
16.2083

>  <SCORE.INTRA.POLAR>
0

>  <SCORE.INTRA.POLAR.0>
0

>  <SCORE.INTRA.REPUL>
0

>  <SCORE.INTRA.REPUL.0>
0

>  <SCORE.INTRA.SOLV>
-3.00356

>  <SCORE.INTRA.SOLV.lig_0>
-89.8095

>  <SCORE.INTRA.VDW>
1.62956

>  <SCORE.INTRA.VDW.0>
-3.19502

>  <SCORE.INTRA.norm>
-0.108899

>  <SCORE.RESTR>
0.25263

>  <SCORE.RESTR.CAVITY>
0.25263

>  <SCORE.RESTR.norm>
0.00682783

>  <SCORE.SYSTEM>
0

>  <SCORE.SYSTEM.CONST>
0

>  <SCORE.SYSTEM.DIHEDRAL>
0

>  <SCORE.SYSTEM.SOLV>
0

>  <SCORE.SYSTEM.norm>
0

>  <SCORE.heavy>
37

>  <SCORE.norm>
-0.459544

>  <RMSD>
7.907

$$$$
2oe5_lig
 OpenBabel11021811463D
libRbt.so/2013.1/901 2013/11/27
 37 40  0  0  0  0  0  0  0  0999 V2000
   21.1701   -2.4351   48.7352 C   0  0  1  0  0  0  0  0  0  0  0  0
   19.8528   -1.7999   49.2338 C   0  0  1  0  0  0  0  0  0  0  0  0
   18.6418   -2.7058   48.7978 C   0  0  0  0  0  0  0  0  0  0  0  0
   18.7141   -2.7691   47.2557 C   0  0  1  0  0  0  0  0  0  0  0  0
   20.0796   -3.4217   46.7599 C   0  0  1  0  0  0  0  0  0  0  0  0
   20.1696   -3.5016   45.2115 C   0  0  1  0  0  0  0  0  0  0  0  0
   18.9643   -4.3604   44.7335 C   0  0  1  0  0  0  0  0  0  0  0  0
   17.6399   -3.7059   45.2821 C   0  0  2  0  0  0  0  0  0  0  0  0
   18.5508   -3.2569   42.3938 C   0  0  0  0  0  0  0  0  0  0  0  0
   19.8745   -1.6828   50.7100 N   0  0  0  0  0  0  0  0  0  0  0  0
   18.9458   -4.4475   43.2246 N   0  0  0  0  0  0  0  0  0  0  0  0
   21.4050   -3.7221   49.3296 O   0  0  0  0  0  0  0  0  0  0  0  0
   21.1847   -2.6108   47.2752 O   0  0  0  0  0  0  0  0  0  0  0  0
   17.6248   -3.5886   46.7532 O   0  0  0  0  0  0  0  0  0  0  0  0
   20.1082   -2.1676   44.6969 O   0  0  0  0  0  0  0  0  0  0  0  0
   16.5245   -4.4958   44.9201 O   0  0  0  0  0  0  0  0  0  0  0  0
   15.3268   -3.7661   45.1105 C   0  0  2  0  0  0  0  0  0  0  0  0
   14.0973   -4.6721   45.1645 C   0  0  1  0  0  0  0  0  0  0  0  0
   13.8776   -5.4011   43.8105 C   0  0  2  0  0  0  0  0  0  0  0  0
   13.7478   -4.3103   42.7063 C   0  0  1  0  0  0  0  0  0  0  0  0
   15.0652   -3.4674   42.6964 C   0  0  1  0  0  0  0  0  0  0  0  0
   15.0304   -2.3381   41.6911 C   0  0  0  0  0  0  0  0  0  0  0  0
   13.5306   -5.0096   41.3843 N   0  0  0  0  0  0  0  0  0  0  0  0
   15.1915   -2.8172   44.0063 O   0  0  0  0  0  0  0  0  0  0  0  0
   14.3046   -5.6207   46.2299 O   0  0  0  0  0  0  0  0  0  0  0  0
   12.6494   -6.1459   43.8992 O   0  0  0  0  0  0  0  0  0  0  0  0
   13.8817   -1.5708   41.8109 O   0  0  0  0  0  0  0  0  0  0  0  0
   22.7270   -4.2244   49.1332 C   0  0  1  0  0  0  0  0  0  0  0  0
   23.6984   -3.6011   50.1984 C   0  0  1  0  0  0  0  0  0  0  0  0
   25.1418   -4.1783   49.9705 C   0  0  2  0  0  0  0  0  0  0  0  0
   25.1109   -5.7049   50.1389 C   0  0  1  0  0  0  0  0  0  0  0  0
   24.1460   -6.3306   49.0592 C   0  0  0  0  0  0  0  0  0  0  0  0
   22.6973   -5.7401   49.2763 C   0  0  2  0  0  0  0  0  0  0  0  0
   26.4546   -6.2240   49.9444 N   0  0  0  0  0  0  0  0  0  0  0  0
   21.7597   -6.2895   48.2618 N   0  0  0  0  0  0  0  0  0  0  0  0
   23.7304   -2.1533   50.0429 O   0  0  0  0  0  0  0  0  0  0  0  0
   26.0092   -3.6381   50.9318 O   0  0  0  0  0  0  0  0  0  0  0  0
  1  2  1  0  0  0  0
  1 12  1  1  0  0  0
  1 13  1  0  0  0  0
  2  3  1  0  0  0  0
  2 10  1  1  0  0  0
  4  3  1  1  0  0  0
  4  5  1  0  0  0  0
  4 14  1  0  0  0  0
  5  6  1  0  0  0  0
  5 13  1  6  0  0  0
  6  7  1  0  0  0  0
  6 15  1  6  0  0  0
  7  8  1  0  0  0  0
  7 11  1  6  0  0  0
  8 14  1  0  0  0  0
  8 16  1  1  0  0  0
  9 11  1  0  0  0  0
 17 16  1  6  0  0  0
 17 18  1  0  0  0  0
 17 24  1  0  0  0  0
 18 19  1  0  0  0  0
 18 25  1  1  0  0  0
 19 20  1  0  0  0  0
 19 26  1  1  0  0  0
 20 21  1  0  0  0  0
 20 23  1  6  0  0  0
 21 22  1  6  0  0  0
 21 24  1  0  0  0  0
 22 27  1  0  0  0  0
 28 12  1  1  0  0  0
 28 29  1  0  0  0  0
 28 33  1  0  0  0  0
 29 30  1  0  0  0  0
 29 36  1  6  0  0  0
 30 31  1  0  0  0  0
 30 37  1  1  0  0  0
 31 32  1  0  0  0  0
 31 34  1  6  0  0  0
 32 33  1  0  0  0  0
 33 35  1  6  0  0  0
M  END
>  <CHROM.1>
-167.25965149,-72.63523336,-165.56177735,-162.00211202,50.35966626,82.43879864
19.08892629,-3.86935461,46.48407837,0.25707049,-0.56032617,0.49175812

>  <Name>
2oe5_lig

>  <RI>
0

>  <Rbt.Current_Directory>
/home/itssahil/PROJECTS/Mol_Feturizer/New_Systems/rnas/2oe5

>  <Rbt.Executable>
rbdock ($Id: //depot/dev/client3/rdock/2013.1/src/exe/rbdock.cxx#4 $)

>  <Rbt.Library>
libRbt.so (2013.1, Build901 2013/11/27)

>  <Rbt.Parameter_File>
/export/apps/rDock/src/rDock_2013.1_src/data/scripts/dock_solv.prm

>  <Rbt.Receptor>
prm/blind_docking_100.prm

>  <SCORE>
-25.2855

>  <SCORE.INTER>
-21.0809

>  <SCORE.INTER.CONST>
1

>  <SCORE.INTER.POLAR>
-1.59997

>  <SCORE.INTER.ROT>
6

>  <SCORE.INTER.SOLV>
10.1013

>  <SCORE.INTER.VDW>
-19.6878

>  <SCORE.INTER.norm>
-0.569755

>  <SCORE.INTRA>
-4.69737

>  <SCORE.INTRA.DIHEDRAL>
-10.2219

>  <SCORE.INTRA.DIHEDRAL.0>
16.2083

>  <SCORE.INTRA.POLAR>
0

>  <SCORE.INTRA.POLAR.0>
0

>  <SCORE.INTRA.REPUL>
0

>  <SCORE.INTRA.REPUL.0>
0

>  <SCORE.INTRA.SOLV>
-1.03233

>  <SCORE.INTRA.SOLV.lig_0>
-89.8095

>  <SCORE.INTRA.VDW>
0.929753

>  <SCORE.INTRA.VDW.0>
-3.19502

>  <SCORE.INTRA.norm>
-0.126956

>  <SCORE.RESTR>
0.492751

>  <SCORE.RESTR.CAVITY>
0.492751

>  <SCORE.RESTR.norm>
0.0133176

>  <SCORE.SYSTEM>
0

>  <SCORE.SYSTEM.CONST>
0

>  <SCORE.SYSTEM.DIHEDRAL>
0

>  <SCORE.SYSTEM.SOLV>
0

>  <SCORE.SYSTEM.norm>
0

>  <SCORE.heavy>
37

>  <SCORE.norm>
-0.683393

>  <RMSD>
7.924

$$$$
2oe5_lig
 OpenBabel11021811463D
libRbt.so/2013.1/901 2013/11/27
 37 40  0  0  0  0  0  0  0  0999 V2000
   18.8021   -4.2024   49.5971 C   0  0  1  0  0  0  0  0  0  0  0  0
   19.8455   -5.0073   48.7904 C   0  0  1  0  0  0  0  0  0  0  0  0
   19.7993   -4.5544   47.2838 C   0  0  0  0  0  0  0  0  0  0  0  0
   18.3537   -4.8369   46.8171 C   0  0  1  0  0  0  0  0  0  0  0  0
   17.2920   -4.0031   47.6622 C   0  0  1  0  0  0  0  0  0  0  0  0
   15.8318   -4.2672   47.2038 C   0  0  1  0  0  0  0  0  0  0  0  0
   15.7509   -3.8670   45.7031 C   0  0  1  0  0  0  0  0  0  0  0  0
   16.8451   -4.6801   44.9128 C   0  0  2  0  0  0  0  0  0  0  0  0
   13.7946   -3.2901   44.0591 C   0  0  0  0  0  0  0  0  0  0  0  0
   21.2014   -4.7676   49.3359 N   0  0  0  0  0  0  0  0  0  0  0  0
   14.3677   -4.1417   45.1592 N   0  0  0  0  0  0  0  0  0  0  0  0
   19.0927   -2.7951   49.5983 O   0  0  0  0  0  0  0  0  0  0  0  0
   17.4396   -4.3742   49.0710 O   0  0  0  0  0  0  0  0  0  0  0  0
   18.2105   -4.4508   45.4238 O   0  0  0  0  0  0  0  0  0  0  0  0
   15.5533   -5.6574   47.3982 O   0  0  0  0  0  0  0  0  0  0  0  0
   16.8443   -4.2955   43.5522 O   0  0  0  0  0  0  0  0  0  0  0  0
   17.4750   -5.2874   42.7639 C   0  0  2  0  0  0  0  0  0  0  0  0
   18.0705   -4.7151   41.4780 C   0  0  1  0  0  0  0  0  0  0  0  0
   16.9611   -4.1510   40.5485 C   0  0  2  0  0  0  0  0  0  0  0  0
   15.9580   -5.3071   40.2603 C   0  0  1  0  0  0  0  0  0  0  0  0
   15.3696   -5.7935   41.6254 C   0  0  1  0  0  0  0  0  0  0  0  0
   14.4157   -6.9570   41.4706 C   0  0  0  0  0  0  0  0  0  0  0  0
   14.8753   -4.7689   39.3536 N   0  0  0  0  0  0  0  0  0  0  0  0
   16.4807   -6.3077   42.4350 O   0  0  0  0  0  0  0  0  0  0  0  0
   18.9999   -3.6796   41.8543 O   0  0  0  0  0  0  0  0  0  0  0  0
   17.5801   -3.7320   39.3187 O   0  0  0  0  0  0  0  0  0  0  0  0
   15.0199   -8.0471   40.8628 O   0  0  0  0  0  0  0  0  0  0  0  0
   20.2567   -2.4390   50.3445 C   0  0  1  0  0  0  0  0  0  0  0  0
   21.0267   -1.2822   49.6124 C   0  0  1  0  0  0  0  0  0  0  0  0
   22.2942   -0.8994   50.4582 C   0  0  2  0  0  0  0  0  0  0  0  0
   21.8511   -0.4183   51.8481 C   0  0  1  0  0  0  0  0  0  0  0  0
   21.0905   -1.5857   52.5876 C   0  0  0  0  0  0  0  0  0  0  0  0
   19.8242   -1.9831   51.7316 C   0  0  2  0  0  0  0  0  0  0  0  0
   23.0308   -0.0496   52.6133 N   0  0  0  0  0  0  0  0  0  0  0  0
   19.0900   -3.0984   52.3850 N   0  0  0  0  0  0  0  0  0  0  0  0
   21.4483   -1.7338   48.2934 O   0  0  0  0  0  0  0  0  0  0  0  0
   22.9751    0.1465   49.8171 O   0  0  0  0  0  0  0  0  0  0  0  0
  1  2  1  0  0  0  0
  1 12  1  6  0  0  0
  1 13  1  0  0  0  0
  2  3  1  0  0  0  0
  2 10  1  1  0  0  0
  4  3  1  1  0  0  0
  4  5  1  0  0  0  0
  4 14  1  0  0  0  0
  5  6  1  0  0  0  0
  5 13  1  1  0  0  0
  6  7  1  0  0  0  0
  6 15  1  6  0  0  0
  7  8  1  0  0  0  0
  7 11  1  6  0  0  0
  8 14  1  0  0  0  0
  8 16  1  6  0  0  0
  9 11  1  0  0  0  0
 17 16  1  6  0  0  0
 17 18  1  0  0  0  0
 17 24  1  0  0  0  0
 18 19  1  0  0  0  0
 18 25  1  1  0  0  0
 19 20  1  0  0  0  0
 19 26  1  6  0  0  0
 20 21  1  0  0  0  0
 20 23  1  6  0  0  0
 21 22  1  6  0  0  0
 21 24  1  0  0  0  0
 22 27  1  0  0  0  0
 28 12  1  6  0  0  0
 28 29  1  0  0  0  0
 28 33  1  0  0  0  0
 29 30  1  0  0  0  0
 29 36  1  6  0  0  0
 30 31  1  0  0  0  0
 30 37  1  6  0  0  0
 31 32  1  0  0  0  0
 31 34  1  1  0  0  0
 32 33  1  0  0  0  0
 33 35  1  1  0  0  0
M  END
>  <CHROM.1>
-69.16782457,149.28930778,-160.70293858,-153.97453052,58.46476051,142.51824744
18.17721702,-3.83185455,46.24679580,1.00390233,0.55898740,1.53795475

>  <Name>
2oe5_lig

>  <RI>
0

>  <Rbt.Current_Directory>
/home/itssahil/PROJECTS/Mol_Feturizer/New_Systems/rnas/2oe5

>  <Rbt.Executable>
rbdock ($Id: //depot/dev/client3/rdock/2013.1/src/exe/rbdock.cxx#4 $)

>  <Rbt.Library>
libRbt.so (2013.1, Build901 2013/11/27)

>  <Rbt.Parameter_File>
/export/apps/rDock/src/rDock_2013.1_src/data/scripts/dock_solv.prm

>  <Rbt.Receptor>
prm/blind_docking_100.prm

>  <SCORE>
-22.2402

>  <SCORE.INTER>
-20.3602

>  <SCORE.INTER.CONST>
1

>  <SCORE.INTER.POLAR>
-2.77736

>  <SCORE.INTER.ROT>
6

>  <SCORE.INTER.SOLV>
14.4477

>  <SCORE.INTER.VDW>
-16.7315

>  <SCORE.INTER.norm>
-0.550275

>  <SCORE.INTRA>
-1.8863

>  <SCORE.INTRA.DIHEDRAL>
-5.57833

>  <SCORE.INTRA.DIHEDRAL.0>
16.2083

>  <SCORE.INTRA.POLAR>
0

>  <SCORE.INTRA.POLAR.0>
0

>  <SCORE.INTRA.REPUL>
0

>  <SCORE.INTRA.REPUL.0>
0

>  <SCORE.INTRA.SOLV>
1.77391

>  <SCORE.INTRA.SOLV.lig_0>
-89.8095

>  <SCORE.INTRA.VDW>
0.0159186

>  <SCORE.INTRA.VDW.0>
-3.19502

>  <SCORE.INTRA.norm>
-0.0509809

>  <SCORE.RESTR>
0.0063205

>  <SCORE.RESTR.CAVITY>
0.0063205

>  <SCORE.RESTR.norm>
0.000170824

>  <SCORE.SYSTEM>
0

>  <SCORE.SYSTEM.CONST>
0

>  <SCORE.SYSTEM.DIHEDRAL>
0

>  <SCORE.SYSTEM.SOLV>
0

>  <SCORE.SYSTEM.norm>
0

>  <SCORE.heavy>
37

>  <SCORE.norm>
-0.601085

>  <RMSD>
7.982

$$$$
2oe5_lig
 OpenBabel11021811463D
libRbt.so/2013.1/901 2013/11/27
 37 40  0  0  0  0  0  0  0  0999 V2000
   21.1809   -2.6533   48.3337 C   0  0  1  0  0  0  0  0  0  0  0  0
   19.8764   -1.9719   48.8045 C   0  0  1  0  0  0  0  0  0  0  0  0
   18.6432   -2.8257   48.3277 C   0  0  0  0  0  0  0  0  0  0  0  0
   18.7537   -2.8772   46.7874 C   0  0  1  0  0  0  0  0  0  0  0  0
   20.1056   -3.5778   46.3205 C   0  0  1  0  0  0  0  0  0  0  0  0
   20.2333   -3.6465   44.7741 C   0  0  1  0  0  0  0  0  0  0  0  0
   19.0086   -4.4530   44.2560 C   0  0  1  0  0  0  0  0  0  0  0  0
   17.6966   -3.7526   44.7768 C   0  0  2  0  0  0  0  0  0  0  0  0
   18.6672   -5.8020   42.0364 C   0  0  0  0  0  0  0  0  0  0  0  0
   19.8637   -1.8698   50.2819 N   0  0  0  0  0  0  0  0  0  0  0  0
   19.0266   -4.5251   42.7463 N   0  0  0  0  0  0  0  0  0  0  0  0
   21.3499   -3.9540   48.9205 O   0  0  0  0  0  0  0  0  0  0  0  0
   21.2273   -2.8155   46.8728 O   0  0  0  0  0  0  0  0  0  0  0  0
   17.6472   -3.6488   46.2481 O   0  0  0  0  0  0  0  0  0  0  0  0
   20.2372   -2.3063   44.2721 O   0  0  0  0  0  0  0  0  0  0  0  0
   16.5613   -4.4949   44.3776 O   0  0  0  0  0  0  0  0  0  0  0  0
   15.4111   -3.6704   44.3853 C   0  0  2  0  0  0  0  0  0  0  0  0
   14.1156   -4.4810   44.3774 C   0  0  1  0  0  0  0  0  0  0  0  0
   13.9757   -5.3024   43.0664 C   0  0  2  0  0  0  0  0  0  0  0  0
   14.0417   -4.3003   41.8758 C   0  0  1  0  0  0  0  0  0  0  0  0
   15.4152   -3.5550   41.9415 C   0  0  1  0  0  0  0  0  0  0  0  0
   15.5686   -2.5130   40.8561 C   0  0  0  0  0  0  0  0  0  0  0  0
   13.9035   -5.0899   40.5946 N   0  0  0  0  0  0  0  0  0  0  0  0
   15.4606   -2.8090   43.2048 O   0  0  0  0  0  0  0  0  0  0  0  0
   14.1413   -5.3502   45.5269 O   0  0  0  0  0  0  0  0  0  0  0  0
   12.6905   -5.9499   43.0808 O   0  0  0  0  0  0  0  0  0  0  0  0
   16.8618   -2.0173   40.7906 O   0  0  0  0  0  0  0  0  0  0  0  0
   22.6982   -4.4240   48.9221 C   0  0  1  0  0  0  0  0  0  0  0  0
   23.5956   -3.4679   49.7866 C   0  0  1  0  0  0  0  0  0  0  0  0
   25.0693   -4.0124   49.7840 C   0  0  2  0  0  0  0  0  0  0  0  0
   25.0910   -5.4225   50.3930 C   0  0  1  0  0  0  0  0  0  0  0  0
   24.2008   -6.3848   49.5155 C   0  0  0  0  0  0  0  0  0  0  0  0
   22.7218   -5.8311   49.5038 C   0  0  2  0  0  0  0  0  0  0  0  0
   26.4615   -5.9069   50.4021 N   0  0  0  0  0  0  0  0  0  0  0  0
   21.8530   -6.7000   48.6670 N   0  0  0  0  0  0  0  0  0  0  0  0
   23.5775   -2.1292   49.2131 O   0  0  0  0  0  0  0  0  0  0  0  0
   25.8708   -3.1714   50.5705 O   0  0  0  0  0  0  0  0  0  0  0  0
  1  2  1  0  0  0  0
  1 12  1  1  0  0  0
  1 13  1  0  0  0  0
  2  3  1  0  0  0  0
  2 10  1  1  0  0  0
  4  3  1  1  0  0  0
  4  5  1  0  0  0  0
  4 14  1  0  0  0  0
  5  6  1  0  0  0  0
  5 13  1  6  0  0  0
  6  7  1  0  0  0  0
  6 15  1  6  0  0  0
  7  8  1  0  0  0  0
  7 11  1  6  0  0  0
  8 14  1  0  0  0  0
  8 16  1  1  0  0  0
  9 11  1  0  0  0  0
 17 16  1  6  0  0  0
 17 18  1  0  0  0  0
 17 24  1  0  0  0  0
 18 19  1  0  0  0  0
 18 25  1  1  0  0  0
 19 20  1  0  0  0  0
 19 26  1  1  0  0  0
 20 21  1  0  0  0  0
 20 23  1  6  0  0  0
 21 22  1  6  0  0  0
 21 24  1  0  0  0  0
 22 27  1  0  0  0  0
 28 12  1  1  0  0  0
 28 29  1  0  0  0  0
 28 33  1  0  0  0  0
 29 30  1  0  0  0  0
 29 36  1  6  0  0  0
 30 31  1  0  0  0  0
 30 37  1  1  0  0  0
 31 32  1  0  0  0  0
 31 34  1  6  0  0  0
 32 33  1  0  0  0  0
 33 35  1  6  0  0  0
M  END
>  <CHROM.1>
-158.80154988,138.92120570,-158.28820382,-162.81911222,-170.20436503,62.35430340
19.23711649,-3.97532065,46.03897562,0.67298112,0.09561832,1.69089026

>  <Name>
2oe5_lig

>  <RI>
0

>  <Rbt.Current_Directory>
/home/itssahil/PROJECTS/Mol_Feturizer/New_Systems/rnas/2oe5

>  <Rbt.Executable>
rbdock ($Id: //depot/dev/client3/rdock/2013.1/src/exe/rbdock.cxx#4 $)

>  <Rbt.Library>
libRbt.so (2013.1, Build901 2013/11/27)

>  <Rbt.Parameter_File>
/export/apps/rDock/src/rDock_2013.1_src/data/scripts/dock_solv.prm

>  <Rbt.Receptor>
prm/blind_docking_100.prm

>  <SCORE>
-21.8386

>  <SCORE.INTER>
-17.307

>  <SCORE.INTER.CONST>
1

>  <SCORE.INTER.POLAR>
-1

>  <SCORE.INTER.ROT>
6

>  <SCORE.INTER.SOLV>
11.216

>  <SCORE.INTER.VDW>
-19.5433

>  <SCORE.INTER.norm>
-0.467757

>  <SCORE.INTRA>
-4.89305

>  <SCORE.INTRA.DIHEDRAL>
-9.42327

>  <SCORE.INTRA.DIHEDRAL.0>
16.2083

>  <SCORE.INTRA.POLAR>
0

>  <SCORE.INTRA.POLAR.0>
0

>  <SCORE.INTRA.REPUL>
0

>  <SCORE.INTRA.REPUL.0>
0

>  <SCORE.INTRA.SOLV>
-2.14484

>  <SCORE.INTRA.SOLV.lig_0>
-89.8095

>  <SCORE.INTRA.VDW>
0.891007

>  <SCORE.INTRA.VDW.0>
-3.19502

>  <SCORE.INTRA.norm>
-0.132245

>  <SCORE.RESTR>
0.361498

>  <SCORE.RESTR.CAVITY>
0.361498

>  <SCORE.RESTR.norm>
0.00977021

>  <SCORE.SYSTEM>
0

>  <SCORE.SYSTEM.CONST>
0

>  <SCORE.SYSTEM.DIHEDRAL>
0

>  <SCORE.SYSTEM.SOLV>
0

>  <SCORE.SYSTEM.norm>
0

>  <SCORE.heavy>
37

>  <SCORE.norm>
-0.590231

>  <RMSD>
8.070

$$$$
2oe5_lig
 OpenBabel11021811463D
libRbt.so/2013.1/901 2013/11/27
 37 40  0  0  0  0  0  0  0  0999 V2000
   20.2005   -4.9958   48.8223 C   0  0  1  0  0  0  0  0  0  0  0  0
   20.9523   -5.8205   47.7537 C   0  0  1  0  0  0  0  0  0  0  0  0
   20.7752   -5.1342   46.3485 C   0  0  0  0  0  0  0  0  0  0  0  0
   19.2507   -5.1034   46.0986 C   0  0  1  0  0  0  0  0  0  0  0  0
   18.4920   -4.2537   47.2116 C   0  0  1  0  0  0  0  0  0  0  0  0
   16.9578   -4.2040   46.9748 C   0  0  1  0  0  0  0  0  0  0  0  0
   16.7382   -3.5644   45.5743 C   0  0  1  0  0  0  0  0  0  0  0  0
   17.5404   -4.4079   44.5121 C   0  0  2  0  0  0  0  0  0  0  0  0
   14.7736   -2.7652   44.0368 C   0  0  0  0  0  0  0  0  0  0  0  0
   22.3929   -5.8909   48.0899 N   0  0  0  0  0  0  0  0  0  0  0  0
   15.2649   -3.5240   45.2395 N   0  0  0  0  0  0  0  0  0  0  0  0
   20.7416   -3.6715   48.9582 O   0  0  0  0  0  0  0  0  0  0  0  0
   18.7687   -4.8612   48.5149 O   0  0  0  0  0  0  0  0  0  0  0  0
   18.9834   -4.4846   44.8117 O   0  0  0  0  0  0  0  0  0  0  0  0
   16.4596   -5.5445   47.0302 O   0  0  0  0  0  0  0  0  0  0  0  0
   17.4157   -3.8185   43.2329 O   0  0  0  0  0  0  0  0  0  0  0  0
   18.0305   -4.6373   42.2558 C   0  0  2  0  0  0  0  0  0  0  0  0
   18.2725   -3.8929   40.9432 C   0  0  1  0  0  0  0  0  0  0  0  0
   16.9317   -3.4689   40.2832 C   0  0  2  0  0  0  0  0  0  0  0  0
   16.0843   -4.7585   40.0724 C   0  0  1  0  0  0  0  0  0  0  0  0
   15.8510   -5.4224   41.4692 C   0  0  1  0  0  0  0  0  0  0  0  0
   15.0780   -6.7193   41.3795 C   0  0  0  0  0  0  0  0  0  0  0  0
   14.7778   -4.3569   39.4275 N   0  0  0  0  0  0  0  0  0  0  0  0
   17.1627   -5.7894   42.0161 O   0  0  0  0  0  0  0  0  0  0  0  0
   19.0841   -2.7398   41.2424 O   0  0  0  0  0  0  0  0  0  0  0  0
   17.2311   -2.8747   39.0072 O   0  0  0  0  0  0  0  0  0  0  0  0
   14.8814   -7.2944   42.6257 O   0  0  0  0  0  0  0  0  0  0  0  0
   20.8072   -3.2019   50.3050 C   0  0  1  0  0  0  0  0  0  0  0  0
   21.9475   -3.9562   51.0781 C   0  0  1  0  0  0  0  0  0  0  0  0
   22.0088   -3.4138   52.5513 C   0  0  2  0  0  0  0  0  0  0  0  0
   22.3176   -1.9092   52.5261 C   0  0  1  0  0  0  0  0  0  0  0  0
   21.1644   -1.1514   51.7619 C   0  0  0  0  0  0  0  0  0  0  0  0
   21.0903   -1.7059   50.2849 C   0  0  2  0  0  0  0  0  0  0  0  0
   22.3903   -1.4239   53.8945 N   0  0  0  0  0  0  0  0  0  0  0  0
   19.9981   -1.0311   49.5355 N   0  0  0  0  0  0  0  0  0  0  0  0
   21.6591   -5.3837   51.1039 O   0  0  0  0  0  0  0  0  0  0  0  0
   23.0386   -4.0719   53.2403 O   0  0  0  0  0  0  0  0  0  0  0  0
  1  2  1  0  0  0  0
  1 12  1  6  0  0  0
  1 13  1  0  0  0  0
  2  3  1  0  0  0  0
  2 10  1  1  0  0  0
  4  3  1  1  0  0  0
  4  5  1  0  0  0  0
  4 14  1  0  0  0  0
  5  6  1  0  0  0  0
  5 13  1  1  0  0  0
  6  7  1  0  0  0  0
  6 15  1  6  0  0  0
  7  8  1  0  0  0  0
  7 11  1  6  0  0  0
  8 14  1  0  0  0  0
  8 16  1  6  0  0  0
  9 11  1  0  0  0  0
 17 16  1  1  0  0  0
 17 18  1  0  0  0  0
 17 24  1  0  0  0  0
 18 19  1  0  0  0  0
 18 25  1  1  0  0  0
 19 20  1  0  0  0  0
 19 26  1  6  0  0  0
 20 21  1  0  0  0  0
 20 23  1  1  0  0  0
 21 22  1  6  0  0  0
 21 24  1  0  0  0  0
 22 27  1  0  0  0  0
 28 12  1  6  0  0  0
 28 29  1  0  0  0  0
 28 33  1  0  0  0  0
 29 30  1  0  0  0  0
 29 36  1  1  0  0  0
 30 31  1  0  0  0  0
 30 37  1  1  0  0  0
 31 32  1  0  0  0  0
 31 34  1  1  0  0  0
 32 33  1  0  0  0  0
 33 35  1  6  0  0  0
M  END
>  <CHROM.1>
-140.44911636,170.63186148,-174.64316658,-164.10093699,179.94006232,72.23326675
18.77733197,-4.10783860,46.18688462,0.56759886,0.98976816,2.35653004

>  <Name>
2oe5_lig

>  <RI>
0

>  <Rbt.Current_Directory>
/home/itssahil/PROJECTS/Mol_Feturizer/New_Systems/rnas/2oe5

>  <Rbt.Executable>
rbdock ($Id: //depot/dev/client3/rdock/2013.1/src/exe/rbdock.cxx#4 $)

>  <Rbt.Library>
libRbt.so (2013.1, Build901 2013/11/27)

>  <Rbt.Parameter_File>
/export/apps/rDock/src/rDock_2013.1_src/data/scripts/dock_solv.prm

>  <Rbt.Receptor>
prm/blind_docking_100.prm

>  <SCORE>
-19.216

>  <SCORE.INTER>
-14.9174

>  <SCORE.INTER.CONST>
1

>  <SCORE.INTER.POLAR>
-1.86833

>  <SCORE.INTER.ROT>
6

>  <SCORE.INTER.SOLV>
13.582

>  <SCORE.INTER.VDW>
-15.8445

>  <SCORE.INTER.norm>
-0.403174

>  <SCORE.INTRA>
-4.29851

>  <SCORE.INTRA.DIHEDRAL>
-8.75372

>  <SCORE.INTRA.DIHEDRAL.0>
16.2083

>  <SCORE.INTRA.POLAR>
0

>  <SCORE.INTRA.POLAR.0>
0

>  <SCORE.INTRA.REPUL>
0

>  <SCORE.INTRA.REPUL.0>
0

>  <SCORE.INTRA.SOLV>
-1.63451

>  <SCORE.INTRA.SOLV.lig_0>
-89.8095

>  <SCORE.INTRA.VDW>
0.895604

>  <SCORE.INTRA.VDW.0>
-3.19502

>  <SCORE.INTRA.norm>
-0.116176

>  <SCORE.RESTR>
0

>  <SCORE.RESTR.CAVITY>
0

>  <SCORE.RESTR.norm>
0

>  <SCORE.SYSTEM>
0

>  <SCORE.SYSTEM.CONST>
0

>  <SCORE.SYSTEM.DIHEDRAL>
0

>  <SCORE.SYSTEM.SOLV>
0

>  <SCORE.SYSTEM.norm>
0

>  <SCORE.heavy>
37

>  <SCORE.norm>
-0.51935

>  <RMSD>
8.079

$$$$
2oe5_lig
 OpenBabel11021811463D
libRbt.so/2013.1/901 2013/11/27
 37 40  0  0  0  0  0  0  0  0999 V2000
   21.2717   -2.6961   48.2995 C   0  0  1  0  0  0  0  0  0  0  0  0
   19.9909   -1.9939   48.8031 C   0  0  1  0  0  0  0  0  0  0  0  0
   18.7315   -2.8183   48.3432 C   0  0  0  0  0  0  0  0  0  0  0  0
   18.8101   -2.8565   46.8005 C   0  0  1  0  0  0  0  0  0  0  0  0
   20.1380   -3.5789   46.2996 C   0  0  1  0  0  0  0  0  0  0  0  0
   20.2333   -3.6346   44.7504 C   0  0  1  0  0  0  0  0  0  0  0  0
   18.9826   -4.4115   44.2494 C   0  0  1  0  0  0  0  0  0  0  0  0
   17.6956   -3.6906   44.8034 C   0  0  2  0  0  0  0  0  0  0  0  0
   19.1204   -5.7824   42.0213 C   0  0  0  0  0  0  0  0  0  0  0  0
   20.0097   -1.9063   50.2814 N   0  0  0  0  0  0  0  0  0  0  0  0
   18.9689   -4.4687   42.7391 N   0  0  0  0  0  0  0  0  0  0  0  0
   21.4265   -4.0058   48.8702 O   0  0  0  0  0  0  0  0  0  0  0  0
   21.2856   -2.8446   46.8365 O   0  0  0  0  0  0  0  0  0  0  0  0
   17.6777   -3.6006   46.2763 O   0  0  0  0  0  0  0  0  0  0  0  0
   20.2539   -2.2898   44.2614 O   0  0  0  0  0  0  0  0  0  0  0  0
   16.5379   -4.4062   44.4201 O   0  0  0  0  0  0  0  0  0  0  0  0
   15.3753   -3.6903   44.7928 C   0  0  2  0  0  0  0  0  0  0  0  0
   14.1827   -4.6116   45.0468 C   0  0  1  0  0  0  0  0  0  0  0  0
   13.7618   -5.3551   43.7495 C   0  0  2  0  0  0  0  0  0  0  0  0
   13.4437   -4.2758   42.6726 C   0  0  1  0  0  0  0  0  0  0  0  0
   14.7310   -3.4163   42.4487 C   0  0  1  0  0  0  0  0  0  0  0  0
   14.5217   -2.2963   41.4540 C   0  0  0  0  0  0  0  0  0  0  0  0
   13.0300   -4.9895   41.4063 N   0  0  0  0  0  0  0  0  0  0  0  0
   15.0538   -2.7530   43.7177 O   0  0  0  0  0  0  0  0  0  0  0  0
   14.5692   -5.5480   46.0722 O   0  0  0  0  0  0  0  0  0  0  0  0
   12.5737   -6.1148   44.0364 O   0  0  0  0  0  0  0  0  0  0  0  0
   15.6916   -1.9699   40.7851 O   0  0  0  0  0  0  0  0  0  0  0  0
   22.7682   -4.4939   48.8585 C   0  0  1  0  0  0  0  0  0  0  0  0
   23.6652   -3.6117   49.7989 C   0  0  1  0  0  0  0  0  0  0  0  0
   25.1315   -4.1756   49.7797 C   0  0  2  0  0  0  0  0  0  0  0  0
   25.1254   -5.6241   50.2911 C   0  0  1  0  0  0  0  0  0  0  0  0
   24.2359   -6.5116   49.3376 C   0  0  0  0  0  0  0  0  0  0  0  0
   22.7646   -5.9375   49.3430 C   0  0  2  0  0  0  0  0  0  0  0  0
   26.4892   -6.1274   50.2862 N   0  0  0  0  0  0  0  0  0  0  0  0
   21.8971   -6.7350   48.4367 N   0  0  0  0  0  0  0  0  0  0  0  0
   23.6733   -2.2369   49.3179 O   0  0  0  0  0  0  0  0  0  0  0  0
   25.9322   -3.4016   50.6330 O   0  0  0  0  0  0  0  0  0  0  0  0
  1  2  1  0  0  0  0
  1 12  1  1  0  0  0
  1 13  1  0  0  0  0
  2  3  1  0  0  0  0
  2 10  1  1  0  0  0
  4  3  1  1  0  0  0
  4  5  1  0  0  0  0
  4 14  1  0  0  0  0
  5  6  1  0  0  0  0
  5 13  1  6  0  0  0
  6  7  1  0  0  0  0
  6 15  1  6  0  0  0
  7  8  1  0  0  0  0
  7 11  1  6  0  0  0
  8 14  1  0  0  0  0
  8 16  1  1  0  0  0
  9 11  1  0  0  0  0
 17 16  1  6  0  0  0
 17 18  1  0  0  0  0
 17 24  1  0  0  0  0
 18 19  1  0  0  0  0
 18 25  1  1  0  0  0
 19 20  1  0  0  0  0
 19 26  1  1  0  0  0
 20 21  1  0  0  0  0
 20 23  1  6  0  0  0
 21 22  1  6  0  0  0
 21 24  1  0  0  0  0
 22 27  1  0  0  0  0
 28 12  1  1  0  0  0
 28 29  1  0  0  0  0
 28 33  1  0  0  0  0
 29 30  1  0  0  0  0
 29 36  1  6  0  0  0
 30 31  1  0  0  0  0
 30 37  1  1  0  0  0
 31 32  1  0  0  0  0
 31 34  1  6  0  0  0
 32 33  1  0  0  0  0
 33 35  1  6  0  0  0
M  END
>  <CHROM.1>
-157.89075977,114.27282858,-173.85703795,-152.18179215,-151.01961138,65.80010394
19.15456805,-4.00801963,46.19496520,0.59760057,0.16758468,1.84696219

>  <Name>
2oe5_lig

>  <RI>
0

>  <Rbt.Current_Directory>
/home/itssahil/PROJECTS/Mol_Feturizer/New_Systems/rnas/2oe5

>  <Rbt.Executable>
rbdock ($Id: //depot/dev/client3/rdock/2013.1/src/exe/rbdock.cxx#4 $)

>  <Rbt.Library>
libRbt.so (2013.1, Build901 2013/11/27)

>  <Rbt.Parameter_File>
/export/apps/rDock/src/rDock_2013.1_src/data/scripts/dock_solv.prm

>  <Rbt.Receptor>
prm/blind_docking_100.prm

>  <SCORE>
-21.3339

>  <SCORE.INTER>
-18.2612

>  <SCORE.INTER.CONST>
1

>  <SCORE.INTER.POLAR>
-0.995673

>  <SCORE.INTER.ROT>
6

>  <SCORE.INTER.SOLV>
11.0518

>  <SCORE.INTER.VDW>
-20.1392

>  <SCORE.INTER.norm>
-0.493546

>  <SCORE.INTRA>
-3.51657

>  <SCORE.INTRA.DIHEDRAL>
-6.81252

>  <SCORE.INTRA.DIHEDRAL.0>
16.2083

>  <SCORE.INTRA.POLAR>
0

>  <SCORE.INTRA.POLAR.0>
0

>  <SCORE.INTRA.REPUL>
0

>  <SCORE.INTRA.REPUL.0>
0

>  <SCORE.INTRA.SOLV>
-2.55953

>  <SCORE.INTRA.SOLV.lig_0>
-89.8095

>  <SCORE.INTRA.VDW>
1.16945

>  <SCORE.INTRA.VDW.0>
-3.19502

>  <SCORE.INTRA.norm>
-0.0950426

>  <SCORE.RESTR>
0.443853

>  <SCORE.RESTR.CAVITY>
0.443853

>  <SCORE.RESTR.norm>
0.011996

>  <SCORE.SYSTEM>
0

>  <SCORE.SYSTEM.CONST>
0

>  <SCORE.SYSTEM.DIHEDRAL>
0

>  <SCORE.SYSTEM.SOLV>
0

>  <SCORE.SYSTEM.norm>
0

>  <SCORE.heavy>
37

>  <SCORE.norm>
-0.576593

>  <RMSD>
8.126

$$$$
2oe5_lig
 OpenBabel11021811463D
libRbt.so/2013.1/901 2013/11/27
 37 40  0  0  0  0  0  0  0  0999 V2000
   21.1345   -2.7005   48.3651 C   0  0  1  0  0  0  0  0  0  0  0  0
   19.8276   -2.0727   48.8993 C   0  0  1  0  0  0  0  0  0  0  0  0
   18.6085   -2.9757   48.4802 C   0  0  0  0  0  0  0  0  0  0  0  0
   18.6471   -3.0222   46.9362 C   0  0  1  0  0  0  0  0  0  0  0  0
   20.0022   -3.6672   46.4035 C   0  0  1  0  0  0  0  0  0  0  0  0
   20.0583   -3.7302   44.8527 C   0  0  1  0  0  0  0  0  0  0  0  0
   18.8439   -4.5855   44.3920 C   0  0  1  0  0  0  0  0  0  0  0  0
   17.5311   -3.9391   44.9766 C   0  0  2  0  0  0  0  0  0  0  0  0
   19.1354   -5.9328   42.1643 C   0  0  0  0  0  0  0  0  0  0  0  0
   19.8816   -1.9717   50.3759 N   0  0  0  0  0  0  0  0  0  0  0  0
   18.7924   -4.6563   42.8830 N   0  0  0  0  0  0  0  0  0  0  0  0
   21.3840   -3.9935   48.9401 O   0  0  0  0  0  0  0  0  0  0  0  0
   21.1173   -2.8603   46.9032 O   0  0  0  0  0  0  0  0  0  0  0  0
   17.5481   -3.8378   46.4488 O   0  0  0  0  0  0  0  0  0  0  0  0
   19.9839   -2.3907   44.3541 O   0  0  0  0  0  0  0  0  0  0  0  0
   16.4089   -4.7267   44.6305 O   0  0  0  0  0  0  0  0  0  0  0  0
   15.2144   -4.0651   45.0024 C   0  0  2  0  0  0  0  0  0  0  0  0
   14.0140   -5.0102   45.0377 C   0  0  1  0  0  0  0  0  0  0  0  0
   13.7023   -5.5743   43.6243 C   0  0  2  0  0  0  0  0  0  0  0  0
   13.4593   -4.3611   42.6783 C   0  0  1  0  0  0  0  0  0  0  0  0
   14.7523   -3.4811   42.6720 C   0  0  1  0  0  0  0  0  0  0  0  0
   14.6111   -2.2387   41.8212 C   0  0  0  0  0  0  0  0  0  0  0  0
   13.1521   -4.8996   41.3000 N   0  0  0  0  0  0  0  0  0  0  0  0
   14.9691   -2.9928   44.0391 O   0  0  0  0  0  0  0  0  0  0  0  0
   14.3278   -6.0751   45.9571 O   0  0  0  0  0  0  0  0  0  0  0  0
   12.5024   -6.3638   43.7138 O   0  0  0  0  0  0  0  0  0  0  0  0
   14.4266   -2.5445   40.4814 O   0  0  0  0  0  0  0  0  0  0  0  0
   22.7481   -4.4100   48.8728 C   0  0  1  0  0  0  0  0  0  0  0  0
   23.6182   -3.5488   49.8568 C   0  0  1  0  0  0  0  0  0  0  0  0
   25.1103   -4.0339   49.7748 C   0  0  2  0  0  0  0  0  0  0  0  0
   25.1871   -5.5121   50.1853 C   0  0  1  0  0  0  0  0  0  0  0  0
   24.3244   -6.3774   49.1877 C   0  0  0  0  0  0  0  0  0  0  0  0
   22.8266   -5.8814   49.2568 C   0  0  2  0  0  0  0  0  0  0  0  0
   26.5740   -5.9431   50.1234 N   0  0  0  0  0  0  0  0  0  0  0  0
   21.9823   -6.6591   48.3122 N   0  0  0  0  0  0  0  0  0  0  0  0
   23.5477   -2.1459   49.4716 O   0  0  0  0  0  0  0  0  0  0  0  0
   25.8879   -3.2794   50.6660 O   0  0  0  0  0  0  0  0  0  0  0  0
  1  2  1  0  0  0  0
  1 12  1  1  0  0  0
  1 13  1  0  0  0  0
  2  3  1  0  0  0  0
  2 10  1  1  0  0  0
  4  3  1  1  0  0  0
  4  5  1  0  0  0  0
  4 14  1  0  0  0  0
  5  6  1  0  0  0  0
  5 13  1  6  0  0  0
  6  7  1  0  0  0  0
  6 15  1  6  0  0  0
  7  8  1  0  0  0  0
  7 11  1  6  0  0  0
  8 14  1  0  0  0  0
  8 16  1  1  0  0  0
  9 11  1  0  0  0  0
 17 16  1  6  0  0  0
 17 18  1  0  0  0  0
 17 24  1  0  0  0  0
 18 19  1  0  0  0  0
 18 25  1  1  0  0  0
 19 20  1  0  0  0  0
 19 26  1  1  0  0  0
 20 21  1  0  0  0  0
 20 23  1  6  0  0  0
 21 22  1  6  0  0  0
 21 24  1  0  0  0  0
 22 27  1  0  0  0  0
 28 12  1  1  0  0  0
 28 29  1  0  0  0  0
 28 33  1  0  0  0  0
 29 30  1  0  0  0  0
 29 36  1  6  0  0  0
 30 31  1  0  0  0  0
 30 37  1  1  0  0  0
 31 32  1  0  0  0  0
 31 34  1  6  0  0  0
 32 33  1  0  0  0  0
 33 35  1  6  0  0  0
M  END
>  <CHROM.1>
-158.96094138,108.27001076,-172.49660281,-163.19003849,-63.95527357,70.55786779
19.04307729,-4.10928139,46.24075014,0.55441341,-0.26433117,1.15841693

>  <Name>
2oe5_lig

>  <RI>
0

>  <Rbt.Current_Directory>
/home/itssahil/PROJECTS/Mol_Feturizer/New_Systems/rnas/2oe5

>  <Rbt.Executable>
rbdock ($Id: //depot/dev/client3/rdock/2013.1/src/exe/rbdock.cxx#4 $)

>  <Rbt.Library>
libRbt.so (2013.1, Build901 2013/11/27)

>  <Rbt.Parameter_File>
/export/apps/rDock/src/rDock_2013.1_src/data/scripts/dock_solv.prm

>  <Rbt.Receptor>
prm/blind_docking_80.prm

>  <SCORE>
-24.0083

>  <SCORE.INTER>
-18.8381

>  <SCORE.INTER.CONST>
1

>  <SCORE.INTER.POLAR>
-1

>  <SCORE.INTER.ROT>
6

>  <SCORE.INTER.SOLV>
9.42923

>  <SCORE.INTER.VDW>
-19.9685

>  <SCORE.INTER.norm>
-0.509139

>  <SCORE.INTRA>
-5.17696

>  <SCORE.INTRA.DIHEDRAL>
-10.9015

>  <SCORE.INTRA.DIHEDRAL.0>
16.2083

>  <SCORE.INTRA.POLAR>
0

>  <SCORE.INTRA.POLAR.0>
0

>  <SCORE.INTRA.REPUL>
0

>  <SCORE.INTRA.REPUL.0>
0

>  <SCORE.INTRA.SOLV>
-1.44517

>  <SCORE.INTRA.SOLV.lig_0>
-89.8095

>  <SCORE.INTRA.VDW>
0.996349

>  <SCORE.INTRA.VDW.0>
-3.19502

>  <SCORE.INTRA.norm>
-0.139918

>  <SCORE.RESTR>
0.00677214

>  <SCORE.RESTR.CAVITY>
0.00677214

>  <SCORE.RESTR.norm>
0.000183031

>  <SCORE.SYSTEM>
0

>  <SCORE.SYSTEM.CONST>
0

>  <SCORE.SYSTEM.DIHEDRAL>
0

>  <SCORE.SYSTEM.SOLV>
0

>  <SCORE.SYSTEM.norm>
0

>  <SCORE.heavy>
37

>  <SCORE.norm>
-0.648874

>  <RMSD>
8.142

$$$$
2oe5_lig
 OpenBabel11021811463D
libRbt.so/2013.1/901 2013/11/27
 37 40  0  0  0  0  0  0  0  0999 V2000
   21.0128   -2.7106   48.4390 C   0  0  1  0  0  0  0  0  0  0  0  0
   19.7175   -2.1024   49.0217 C   0  0  1  0  0  0  0  0  0  0  0  0
   18.4878   -2.9815   48.5830 C   0  0  0  0  0  0  0  0  0  0  0  0
   18.5013   -2.9596   47.0381 C   0  0  1  0  0  0  0  0  0  0  0  0
   19.8448   -3.5853   46.4553 C   0  0  1  0  0  0  0  0  0  0  0  0
   19.8756   -3.5797   44.9025 C   0  0  1  0  0  0  0  0  0  0  0  0
   18.6502   -4.4093   44.4242 C   0  0  1  0  0  0  0  0  0  0  0  0
   17.3498   -3.7847   45.0583 C   0  0  2  0  0  0  0  0  0  0  0  0
   19.4111   -5.3683   42.1082 C   0  0  0  0  0  0  0  0  0  0  0  0
   19.7957   -2.0671   50.5003 N   0  0  0  0  0  0  0  0  0  0  0  0
   18.5740   -4.4129   42.9147 N   0  0  0  0  0  0  0  0  0  0  0  0
   21.2660   -4.0288   48.9521 O   0  0  0  0  0  0  0  0  0  0  0  0
   20.9714   -2.8054   46.9720 O   0  0  0  0  0  0  0  0  0  0  0  0
   17.3910   -3.7488   46.5331 O   0  0  0  0  0  0  0  0  0  0  0  0
   19.7990   -2.2192   44.4650 O   0  0  0  0  0  0  0  0  0  0  0  0
   16.2188   -4.5521   44.6961 O   0  0  0  0  0  0  0  0  0  0  0  0
   15.0405   -3.7801   44.8329 C   0  0  2  0  0  0  0  0  0  0  0  0
   13.7814   -4.6451   44.8757 C   0  0  1  0  0  0  0  0  0  0  0  0
   13.5758   -5.4033   43.5355 C   0  0  2  0  0  0  0  0  0  0  0  0
   13.5119   -4.3394   42.3998 C   0  0  1  0  0  0  0  0  0  0  0  0
   14.8557   -3.5391   42.4054 C   0  0  1  0  0  0  0  0  0  0  0  0
   14.8851   -2.4369   41.3701 C   0  0  0  0  0  0  0  0  0  0  0  0
   13.3090   -5.0672   41.0909 N   0  0  0  0  0  0  0  0  0  0  0  0
   14.9665   -2.8578   43.7008 O   0  0  0  0  0  0  0  0  0  0  0  0
   13.9283   -5.5704   45.9711 O   0  0  0  0  0  0  0  0  0  0  0  0
   12.3223   -6.1064   43.6086 O   0  0  0  0  0  0  0  0  0  0  0  0
   13.8105   -1.5707   41.5024 O   0  0  0  0  0  0  0  0  0  0  0  0
   22.6269   -4.4470   48.8438 C   0  0  1  0  0  0  0  0  0  0  0  0
   23.5216   -3.6122   49.8284 C   0  0  1  0  0  0  0  0  0  0  0  0
   25.0099   -4.0989   49.7009 C   0  0  2  0  0  0  0  0  0  0  0  0
   25.0915   -5.5869   50.0737 C   0  0  1  0  0  0  0  0  0  0  0  0
   24.2038   -6.4255   49.0752 C   0  0  0  0  0  0  0  0  0  0  0  0
   22.7094   -5.9275   49.1902 C   0  0  2  0  0  0  0  0  0  0  0  0
   26.4753   -6.0198   49.9699 N   0  0  0  0  0  0  0  0  0  0  0  0
   21.8416   -6.6799   48.2463 N   0  0  0  0  0  0  0  0  0  0  0  0
   23.4468   -2.2001   49.4790 O   0  0  0  0  0  0  0  0  0  0  0  0
   25.8099   -3.3683   50.5923 O   0  0  0  0  0  0  0  0  0  0  0  0
  1  2  1  0  0  0  0
  1 12  1  1  0  0  0
  1 13  1  0  0  0  0
  2  3  1  0  0  0  0
  2 10  1  1  0  0  0
  4  3  1  1  0  0  0
  4  5  1  0  0  0  0
  4 14  1  0  0  0  0
  5  6  1  0  0  0  0
  5 13  1  1  0  0  0
  6  7  1  0  0  0  0
  6 15  1  6  0  0  0
  7  8  1  0  0  0  0
  7 11  1  6  0  0  0
  8 14  1  0  0  0  0
  8 16  1  1  0  0  0
  9 11  1  0  0  0  0
 17 16  1  6  0  0  0
 17 18  1  0  0  0  0
 17 24  1  0  0  0  0
 18 19  1  0  0  0  0
 18 25  1  1  0  0  0
 19 20  1  0  0  0  0
 19 26  1  1  0  0  0
 20 21  1  0  0  0  0
 20 23  1  6  0  0  0
 21 22  1  6  0  0  0
 21 24  1  0  0  0  0
 22 27  1  0  0  0  0
 28 12  1  1  0  0  0
 28 29  1  0  0  0  0
 28 33  1  0  0  0  0
 29 30  1  0  0  0  0
 29 36  1  6  0  0  0
 30 31  1  0  0  0  0
 30 37  1  1  0  0  0
 31 32  1  0  0  0  0
 31 34  1  6  0  0  0
 32 33  1  0  0  0  0
 33 35  1  6  0  0  0
M  END
>  <CHROM.1>
-158.97717295,82.02895090,-159.13512710,-162.48769763,54.94277080,69.35760255
18.92555660,-4.00948620,46.22708937,0.54979548,-0.26753370,1.19334140

>  <Name>
2oe5_lig

>  <RI>
0

>  <Rbt.Current_Directory>
/home/itssahil/PROJECTS/Mol_Feturizer/New_Systems/rnas/2oe5

>  <Rbt.Executable>
rbdock ($Id: //depot/dev/client3/rdock/2013.1/src/exe/rbdock.cxx#4 $)

>  <Rbt.Library>
libRbt.so (2013.1, Build901 2013/11/27)

>  <Rbt.Parameter_File>
/export/apps/rDock/src/rDock_2013.1_src/data/scripts/dock_solv.prm

>  <Rbt.Receptor>
prm/blind_docking_80.prm

>  <SCORE>
-27.209

>  <SCORE.INTER>
-22.4362

>  <SCORE.INTER.CONST>
1

>  <SCORE.INTER.POLAR>
-1.75834

>  <SCORE.INTER.ROT>
6

>  <SCORE.INTER.SOLV>
10.2916

>  <SCORE.INTER.VDW>
-20.1268

>  <SCORE.INTER.norm>
-0.606383

>  <SCORE.INTRA>
-4.84865

>  <SCORE.INTRA.DIHEDRAL>
-9.9547

>  <SCORE.INTRA.DIHEDRAL.0>
16.2083

>  <SCORE.INTRA.POLAR>
0

>  <SCORE.INTRA.POLAR.0>
0

>  <SCORE.INTRA.REPUL>
0

>  <SCORE.INTRA.REPUL.0>
0

>  <SCORE.INTRA.SOLV>
-1.4656

>  <SCORE.INTRA.SOLV.lig_0>
-89.8095

>  <SCORE.INTRA.VDW>
0.861497

>  <SCORE.INTRA.VDW.0>
-3.19502

>  <SCORE.INTRA.norm>
-0.131045

>  <SCORE.RESTR>
0.0757878

>  <SCORE.RESTR.CAVITY>
0.0757878

>  <SCORE.RESTR.norm>
0.00204832

>  <SCORE.SYSTEM>
0

>  <SCORE.SYSTEM.CONST>
0

>  <SCORE.SYSTEM.DIHEDRAL>
0

>  <SCORE.SYSTEM.SOLV>
0

>  <SCORE.SYSTEM.norm>
0

>  <SCORE.heavy>
37

>  <SCORE.norm>
-0.735379

>  <RMSD>
8.178

$$$$
2oe5_lig
 OpenBabel11021811463D
libRbt.so/2013.1/901 2013/11/27
 37 40  0  0  0  0  0  0  0  0999 V2000
   18.8938   -4.2896   49.0583 C   0  0  1  0  0  0  0  0  0  0  0  0
   19.9796   -4.9227   48.1597 C   0  0  1  0  0  0  0  0  0  0  0  0
   19.8838   -4.3044   46.7154 C   0  0  0  0  0  0  0  0  0  0  0  0
   18.4552   -4.6310   46.2258 C   0  0  1  0  0  0  0  0  0  0  0  0
   17.3497   -3.9750   47.1660 C   0  0  1  0  0  0  0  0  0  0  0  0
   15.9053   -4.2852   46.6868 C   0  0  1  0  0  0  0  0  0  0  0  0
   15.7786   -3.7223   45.2426 C   0  0  1  0  0  0  0  0  0  0  0  0
   16.9160   -4.3619   44.3590 C   0  0  2  0  0  0  0  0  0  0  0  0
   13.6516   -2.9845   43.9032 C   0  0  0  0  0  0  0  0  0  0  0  0
   21.3226   -4.6537   48.7230 N   0  0  0  0  0  0  0  0  0  0  0  0
   14.4108   -4.0280   44.6769 N   0  0  0  0  0  0  0  0  0  0  0  0
   19.0876   -2.8749   49.2202 O   0  0  0  0  0  0  0  0  0  0  0  0
   17.5398   -4.4939   48.5220 O   0  0  0  0  0  0  0  0  0  0  0  0
   18.2688   -4.0987   44.8869 O   0  0  0  0  0  0  0  0  0  0  0  0
   15.7248   -5.7045   46.7211 O   0  0  0  0  0  0  0  0  0  0  0  0
   16.8720   -3.8250   43.0517 O   0  0  0  0  0  0  0  0  0  0  0  0
   17.6493   -4.6159   42.1724 C   0  0  2  0  0  0  0  0  0  0  0  0
   18.1118   -3.8341   40.9435 C   0  0  1  0  0  0  0  0  0  0  0  0
   16.9036   -3.3894   40.0741 C   0  0  2  0  0  0  0  0  0  0  0  0
   16.1102   -4.6713   39.6829 C   0  0  1  0  0  0  0  0  0  0  0  0
   15.6415   -5.3750   40.9987 C   0  0  1  0  0  0  0  0  0  0  0  0
   14.9005   -6.6677   40.7395 C   0  0  0  0  0  0  0  0  0  0  0  0
   14.9333   -4.2494   38.8338 N   0  0  0  0  0  0  0  0  0  0  0  0
   16.8403   -5.7595   41.7533 O   0  0  0  0  0  0  0  0  0  0  0  0
   18.8551   -2.6912   41.4114 O   0  0  0  0  0  0  0  0  0  0  0  0
   17.4168   -2.7588   38.8866 O   0  0  0  0  0  0  0  0  0  0  0  0
   13.6939   -6.4540   40.0905 O   0  0  0  0  0  0  0  0  0  0  0  0
   20.1932   -2.5279   50.0544 C   0  0  1  0  0  0  0  0  0  0  0  0
   21.0309   -1.3826   49.3811 C   0  0  1  0  0  0  0  0  0  0  0  0
   22.2321   -1.0095   50.3226 C   0  0  2  0  0  0  0  0  0  0  0  0
   21.6864   -0.5177   51.6717 C   0  0  1  0  0  0  0  0  0  0  0  0
   20.8574   -1.6738   52.3531 C   0  0  0  0  0  0  0  0  0  0  0  0
   19.6580   -2.0615   51.4015 C   0  0  2  0  0  0  0  0  0  0  0  0
   22.8062   -0.1582   52.5260 N   0  0  0  0  0  0  0  0  0  0  0  0
   18.8626   -3.1661   51.9991 N   0  0  0  0  0  0  0  0  0  0  0  0
   21.5500   -1.8443   48.1009 O   0  0  0  0  0  0  0  0  0  0  0  0
   22.9726    0.0263   49.7334 O   0  0  0  0  0  0  0  0  0  0  0  0
  1  2  1  0  0  0  0
  1 12  1  6  0  0  0
  1 13  1  0  0  0  0
  2  3  1  0  0  0  0
  2 10  1  1  0  0  0
  4  3  1  1  0  0  0
  4  5  1  0  0  0  0
  4 14  1  0  0  0  0
  5  6  1  0  0  0  0
  5 13  1  1  0  0  0
  6  7  1  0  0  0  0
  6 15  1  6  0  0  0
  7  8  1  0  0  0  0
  7 11  1  6  0  0  0
  8 14  1  0  0  0  0
  8 16  1  6  0  0  0
  9 11  1  0  0  0  0
 17 16  1  1  0  0  0
 17 18  1  0  0  0  0
 17 24  1  0  0  0  0
 18 19  1  0  0  0  0
 18 25  1  1  0  0  0
 19 20  1  0  0  0  0
 19 26  1  6  0  0  0
 20 21  1  0  0  0  0
 20 23  1  6  0  0  0
 21 22  1  6  0  0  0
 21 24  1  0  0  0  0
 22 27  1  0  0  0  0
 28 12  1  6  0  0  0
 28 29  1  0  0  0  0
 28 33  1  0  0  0  0
 29 30  1  0  0  0  0
 29 36  1  6  0  0  0
 30 31  1  0  0  0  0
 30 37  1  6  0  0  0
 31 32  1  0  0  0  0
 31 34  1  1  0  0  0
 32 33  1  0  0  0  0
 33 35  1  1  0  0  0
M  END
>  <CHROM.1>
-72.25399071,137.23614195,-165.41852036,-156.67714156,-66.01724553,134.59421006
18.16792671,-3.57154040,45.79293385,1.00571924,0.56109717,1.61935373

>  <Name>
2oe5_lig

>  <RI>
0

>  <Rbt.Current_Directory>
/home/itssahil/PROJECTS/Mol_Feturizer/New_Systems/rnas/2oe5

>  <Rbt.Executable>
rbdock ($Id: //depot/dev/client3/rdock/2013.1/src/exe/rbdock.cxx#4 $)

>  <Rbt.Library>
libRbt.so (2013.1, Build901 2013/11/27)

>  <Rbt.Parameter_File>
/export/apps/rDock/src/rDock_2013.1_src/data/scripts/dock_solv.prm

>  <Rbt.Receptor>
prm/blind_docking_60.prm

>  <SCORE>
-20.1433

>  <SCORE.INTER>
-18.4313

>  <SCORE.INTER.CONST>
1

>  <SCORE.INTER.POLAR>
-1.9059

>  <SCORE.INTER.ROT>
6

>  <SCORE.INTER.SOLV>
14.2936

>  <SCORE.INTER.VDW>
-18.2991

>  <SCORE.INTER.norm>
-0.498144

>  <SCORE.INTRA>
-1.71196

>  <SCORE.INTRA.DIHEDRAL>
-4.74554

>  <SCORE.INTRA.DIHEDRAL.0>
16.2083

>  <SCORE.INTRA.POLAR>
0

>  <SCORE.INTRA.POLAR.0>
0

>  <SCORE.INTRA.REPUL>
0

>  <SCORE.INTRA.REPUL.0>
0

>  <SCORE.INTRA.SOLV>
1.60349

>  <SCORE.INTRA.SOLV.lig_0>
-89.8095

>  <SCORE.INTRA.VDW>
-0.140933

>  <SCORE.INTRA.VDW.0>
-3.19502

>  <SCORE.INTRA.norm>
-0.0462692

>  <SCORE.RESTR>
0

>  <SCORE.RESTR.CAVITY>
0

>  <SCORE.RESTR.norm>
0

>  <SCORE.SYSTEM>
0

>  <SCORE.SYSTEM.CONST>
0

>  <SCORE.SYSTEM.DIHEDRAL>
0

>  <SCORE.SYSTEM.SOLV>
0

>  <SCORE.SYSTEM.norm>
0

>  <SCORE.heavy>
37

>  <SCORE.norm>
-0.544413

>  <RMSD>
8.280

$$$$
2oe5_lig
 OpenBabel11021811463D
libRbt.so/2013.1/901 2013/11/27
 37 40  0  0  0  0  0  0  0  0999 V2000
   19.3703   -5.9184   49.0633 C   0  0  1  0  0  0  0  0  0  0  0  0
   19.9274   -6.9653   48.0728 C   0  0  1  0  0  0  0  0  0  0  0  0
   20.0063   -6.3297   46.6351 C   0  0  0  0  0  0  0  0  0  0  0  0
   18.5581   -5.9131   46.2933 C   0  0  1  0  0  0  0  0  0  0  0  0
   17.9987   -4.8381   47.3266 C   0  0  1  0  0  0  0  0  0  0  0  0
   16.5457   -4.4000   46.9965 C   0  0  1  0  0  0  0  0  0  0  0  0
   16.5709   -3.7981   45.5627 C   0  0  1  0  0  0  0  0  0  0  0  0
   17.1713   -4.8759   44.5824 C   0  0  2  0  0  0  0  0  0  0  0  0
   14.9612   -2.6200   43.8646 C   0  0  0  0  0  0  0  0  0  0  0  0
   21.2801   -7.3937   48.4972 N   0  0  0  0  0  0  0  0  0  0  0  0
   15.1787   -3.3899   45.1389 N   0  0  0  0  0  0  0  0  0  0  0  0
   20.2354   -4.7773   49.1823 O   0  0  0  0  0  0  0  0  0  0  0  0
   18.0417   -5.4291   48.6657 O   0  0  0  0  0  0  0  0  0  0  0  0
   18.5264   -5.3128   44.9707 O   0  0  0  0  0  0  0  0  0  0  0  0
   15.7083   -5.5582   47.0714 O   0  0  0  0  0  0  0  0  0  0  0  0
   17.2689   -4.3410   43.2771 O   0  0  0  0  0  0  0  0  0  0  0  0
   17.8055   -5.3066   42.3924 C   0  0  2  0  0  0  0  0  0  0  0  0
   18.1961   -4.7043   41.0433 C   0  0  1  0  0  0  0  0  0  0  0  0
   16.9511   -4.1606   40.2900 C   0  0  2  0  0  0  0  0  0  0  0  0
   15.9469   -5.3406   40.1310 C   0  0  1  0  0  0  0  0  0  0  0  0
   15.5724   -5.8578   41.5587 C   0  0  1  0  0  0  0  0  0  0  0  0
   14.6363   -7.0451   41.5246 C   0  0  0  0  0  0  0  0  0  0  0  0
   14.7322   -4.8224   39.3961 N   0  0  0  0  0  0  0  0  0  0  0  0
   16.8007   -6.3501   42.1938 O   0  0  0  0  0  0  0  0  0  0  0  0
   19.1430   -3.6479   41.2982 O   0  0  0  0  0  0  0  0  0  0  0  0
   17.3769   -3.7116   38.9907 O   0  0  0  0  0  0  0  0  0  0  0  0
   14.3029   -7.4809   42.7981 O   0  0  0  0  0  0  0  0  0  0  0  0
   20.0479   -4.0239   50.3807 C   0  0  1  0  0  0  0  0  0  0  0  0
   21.4207   -3.8545   51.1247 C   0  0  1  0  0  0  0  0  0  0  0  0
   21.1913   -3.0123   52.4310 C   0  0  2  0  0  0  0  0  0  0  0  0
   20.6408   -1.6287   52.0533 C   0  0  1  0  0  0  0  0  0  0  0  0
   19.2553   -1.7999   51.3189 C   0  0  0  0  0  0  0  0  0  0  0  0
   19.4805   -2.6595   50.0132 C   0  0  2  0  0  0  0  0  0  0  0  0
   20.4509   -0.8535   53.2682 N   0  0  0  0  0  0  0  0  0  0  0  0
   18.1912   -2.8630   49.3017 N   0  0  0  0  0  0  0  0  0  0  0  0
   21.9468   -5.1642   51.4843 O   0  0  0  0  0  0  0  0  0  0  0  0
   22.4185   -2.8427   53.0894 O   0  0  0  0  0  0  0  0  0  0  0  0
  1  2  1  0  0  0  0
  1 12  1  6  0  0  0
  1 13  1  0  0  0  0
  2  3  1  0  0  0  0
  2 10  1  1  0  0  0
  4  3  1  1  0  0  0
  4  5  1  0  0  0  0
  4 14  1  0  0  0  0
  5  6  1  0  0  0  0
  5 13  1  1  0  0  0
  6  7  1  0  0  0  0
  6 15  1  6  0  0  0
  7  8  1  0  0  0  0
  7 11  1  6  0  0  0
  8 14  1  0  0  0  0
  8 16  1  6  0  0  0
  9 11  1  0  0  0  0
 17 16  1  1  0  0  0
 17 18  1  0  0  0  0
 17 24  1  0  0  0  0
 18 19  1  0  0  0  0
 18 25  1  1  0  0  0
 19 20  1  0  0  0  0
 19 26  1  6  0  0  0
 20 21  1  0  0  0  0
 20 23  1  1  0  0  0
 21 22  1  6  0  0  0
 21 24  1  0  0  0  0
 22 27  1  0  0  0  0
 28 12  1  6  0  0  0
 28 29  1  0  0  0  0
 28 33  1  0  0  0  0
 29 30  1  0  0  0  0
 29 36  1  1  0  0  0
 30 31  1  0  0  0  0
 30 37  1  6  0  0  0
 31 32  1  0  0  0  0
 31 34  1  1  0  0  0
 32 33  1  0  0  0  0
 33 35  1  1  0  0  0
M  END
>  <CHROM.1>
-158.95502256,172.10205857,-179.88986144,-168.42631086,-179.31977752,126.63680875
18.20428031,-4.58090409,46.21869161,-0.85371068,0.91626930,-2.33963966

>  <Name>
2oe5_lig

>  <RI>
0

>  <Rbt.Current_Directory>
/home/itssahil/PROJECTS/Mol_Feturizer/New_Systems/rnas/2oe5

>  <Rbt.Executable>
rbdock ($Id: //depot/dev/client3/rdock/2013.1/src/exe/rbdock.cxx#4 $)

>  <Rbt.Library>
libRbt.so (2013.1, Build901 2013/11/27)

>  <Rbt.Parameter_File>
/export/apps/rDock/src/rDock_2013.1_src/data/scripts/dock_solv.prm

>  <Rbt.Receptor>
prm/blind_docking_100.prm

>  <SCORE>
-18.0126

>  <SCORE.INTER>
-15.7297

>  <SCORE.INTER.CONST>
1

>  <SCORE.INTER.POLAR>
-1.63942

>  <SCORE.INTER.ROT>
6

>  <SCORE.INTER.SOLV>
14.0955

>  <SCORE.INTER.VDW>
-17.3202

>  <SCORE.INTER.norm>
-0.425126

>  <SCORE.INTRA>
-2.2829

>  <SCORE.INTRA.DIHEDRAL>
-6.48815

>  <SCORE.INTRA.DIHEDRAL.0>
16.2083

>  <SCORE.INTRA.POLAR>
0

>  <SCORE.INTRA.POLAR.0>
0

>  <SCORE.INTRA.REPUL>
0

>  <SCORE.INTRA.REPUL.0>
0

>  <SCORE.INTRA.SOLV>
0.42257

>  <SCORE.INTRA.SOLV.lig_0>
-89.8095

>  <SCORE.INTRA.VDW>
0.749893

>  <SCORE.INTRA.VDW.0>
-3.19502

>  <SCORE.INTRA.norm>
-0.0616999

>  <SCORE.RESTR>
0

>  <SCORE.RESTR.CAVITY>
0

>  <SCORE.RESTR.norm>
0

>  <SCORE.SYSTEM>
0

>  <SCORE.SYSTEM.CONST>
0

>  <SCORE.SYSTEM.DIHEDRAL>
0

>  <SCORE.SYSTEM.SOLV>
0

>  <SCORE.SYSTEM.norm>
0

>  <SCORE.heavy>
37

>  <SCORE.norm>
-0.486826

>  <RMSD>
8.332

$$$$
2oe5_lig
 OpenBabel11021811463D
libRbt.so/2013.1/901 2013/11/27
 37 40  0  0  0  0  0  0  0  0999 V2000
   20.1292   -4.4790   48.3537 C   0  0  1  0  0  0  0  0  0  0  0  0
   20.9185   -5.2972   47.3074 C   0  0  1  0  0  0  0  0  0  0  0  0
   20.6296   -4.7208   45.8717 C   0  0  0  0  0  0  0  0  0  0  0  0
   19.1013   -4.8466   45.6815 C   0  0  1  0  0  0  0  0  0  0  0  0
   18.3043   -4.0013   46.7708 C   0  0  1  0  0  0  0  0  0  0  0  0
   16.7651   -4.1082   46.5929 C   0  0  1  0  0  0  0  0  0  0  0  0
   16.4384   -3.5819   45.1664 C   0  0  1  0  0  0  0  0  0  0  0  0
   17.2798   -4.4137   44.1256 C   0  0  2  0  0  0  0  0  0  0  0  0
   14.2733   -2.7310   43.9617 C   0  0  0  0  0  0  0  0  0  0  0  0
   22.3700   -5.2132   47.5895 N   0  0  0  0  0  0  0  0  0  0  0  0
   14.9572   -3.6987   44.8890 N   0  0  0  0  0  0  0  0  0  0  0  0
   20.5472   -3.1045   48.3880 O   0  0  0  0  0  0  0  0  0  0  0  0
   18.6814   -4.4967   48.0962 O   0  0  0  0  0  0  0  0  0  0  0  0
   18.7329   -4.3380   44.3714 O   0  0  0  0  0  0  0  0  0  0  0  0
   16.3977   -5.4827   46.7487 O   0  0  0  0  0  0  0  0  0  0  0  0
   17.0564   -3.9209   42.8193 O   0  0  0  0  0  0  0  0  0  0  0  0
   17.8284   -4.6498   41.8836 C   0  0  2  0  0  0  0  0  0  0  0  0
   18.2437   -3.7980   40.6845 C   0  0  1  0  0  0  0  0  0  0  0  0
   17.0053   -3.3382   39.8673 C   0  0  2  0  0  0  0  0  0  0  0  0
   16.2299   -4.6167   39.4314 C   0  0  1  0  0  0  0  0  0  0  0  0
   15.8088   -5.3948   40.7212 C   0  0  1  0  0  0  0  0  0  0  0  0
   15.0892   -6.6895   40.4153 C   0  0  0  0  0  0  0  0  0  0  0  0
   15.0237   -4.1799   38.6324 N   0  0  0  0  0  0  0  0  0  0  0  0
   17.0338   -5.7891   41.4271 O   0  0  0  0  0  0  0  0  0  0  0  0
   18.9740   -2.6633   41.1912 O   0  0  0  0  0  0  0  0  0  0  0  0
   17.4755   -2.6384   38.7009 O   0  0  0  0  0  0  0  0  0  0  0  0
   13.8287   -6.4698   39.8810 O   0  0  0  0  0  0  0  0  0  0  0  0
   20.7926   -2.6006   49.7012 C   0  0  1  0  0  0  0  0  0  0  0  0
   21.7772   -1.3790   49.6285 C   0  0  1  0  0  0  0  0  0  0  0  0
   22.0210   -0.8345   51.0820 C   0  0  2  0  0  0  0  0  0  0  0  0
   20.6837   -0.3775   51.6842 C   0  0  1  0  0  0  0  0  0  0  0  0
   19.7010   -1.6084   51.7697 C   0  0  0  0  0  0  0  0  0  0  0  0
   19.4664   -2.1676   50.3113 C   0  0  2  0  0  0  0  0  0  0  0  0
   20.9256    0.1411   53.0204 N   0  0  0  0  0  0  0  0  0  0  0  0
   18.5605   -3.3456   50.3508 N   0  0  0  0  0  0  0  0  0  0  0  0
   23.0467   -1.8076   49.0574 O   0  0  0  0  0  0  0  0  0  0  0  0
   22.8856    0.2687   51.0198 O   0  0  0  0  0  0  0  0  0  0  0  0
  1  2  1  0  0  0  0
  1 12  1  6  0  0  0
  1 13  1  0  0  0  0
  2  3  1  0  0  0  0
  2 10  1  1  0  0  0
  4  3  1  1  0  0  0
  4  5  1  0  0  0  0
  4 14  1  0  0  0  0
  5  6  1  0  0  0  0
  5 13  1  1  0  0  0
  6  7  1  0  0  0  0
  6 15  1  6  0  0  0
  7  8  1  0  0  0  0
  7 11  1  6  0  0  0
  8 14  1  0  0  0  0
  8 16  1  6  0  0  0
  9 11  1  0  0  0  0
 17 16  1  1  0  0  0
 17 18  1  0  0  0  0
 17 24  1  0  0  0  0
 18 19  1  0  0  0  0
 18 25  1  1  0  0  0
 19 20  1  0  0  0  0
 19 26  1  6  0  0  0
 20 21  1  0  0  0  0
 20 23  1  1  0  0  0
 21 22  1  6  0  0  0
 21 24  1  0  0  0  0
 22 27  1  0  0  0  0
 28 12  1  6  0  0  0
 28 29  1  0  0  0  0
 28 33  1  0  0  0  0
 29 30  1  0  0  0  0
 29 36  1  1  0  0  0
 30 31  1  0  0  0  0
 30 37  1  6  0  0  0
 31 32  1  0  0  0  0
 31 34  1  1  0  0  0
 32 33  1  0  0  0  0
 33 35  1  1  0  0  0
M  END
>  <CHROM.1>
-132.23667521,150.34027010,178.96790126,-149.11630468,-69.67045636,156.35404048
18.50095223,-3.58197308,45.55194671,1.08420276,0.37663137,1.48210761

>  <Name>
2oe5_lig

>  <RI>
0

>  <Rbt.Current_Directory>
/home/itssahil/PROJECTS/Mol_Feturizer/New_Systems/rnas/2oe5

>  <Rbt.Executable>
rbdock ($Id: //depot/dev/client3/rdock/2013.1/src/exe/rbdock.cxx#4 $)

>  <Rbt.Library>
libRbt.so (2013.1, Build901 2013/11/27)

>  <Rbt.Parameter_File>
/export/apps/rDock/src/rDock_2013.1_src/data/scripts/dock_solv.prm

>  <Rbt.Receptor>
prm/blind_docking_100.prm

>  <SCORE>
-18.3888

>  <SCORE.INTER>
-18.4648

>  <SCORE.INTER.CONST>
1

>  <SCORE.INTER.POLAR>
-1.81995

>  <SCORE.INTER.ROT>
6

>  <SCORE.INTER.SOLV>
12.9452

>  <SCORE.INTER.VDW>
-18.1585

>  <SCORE.INTER.norm>
-0.49905

>  <SCORE.INTRA>
-0.0533642

>  <SCORE.INTRA.DIHEDRAL>
-2.59088

>  <SCORE.INTRA.DIHEDRAL.0>
16.2083

>  <SCORE.INTRA.POLAR>
0

>  <SCORE.INTRA.POLAR.0>
0

>  <SCORE.INTRA.REPUL>
0

>  <SCORE.INTRA.REPUL.0>
0

>  <SCORE.INTRA.SOLV>
0.494048

>  <SCORE.INTRA.SOLV.lig_0>
-89.8095

>  <SCORE.INTRA.VDW>
0.995049

>  <SCORE.INTRA.VDW.0>
-3.19502

>  <SCORE.INTRA.norm>
-0.00144228

>  <SCORE.RESTR>
0.129438

>  <SCORE.RESTR.CAVITY>
0.129438

>  <SCORE.RESTR.norm>
0.00349832

>  <SCORE.SYSTEM>
0

>  <SCORE.SYSTEM.CONST>
0

>  <SCORE.SYSTEM.DIHEDRAL>
0

>  <SCORE.SYSTEM.SOLV>
0

>  <SCORE.SYSTEM.norm>
0

>  <SCORE.heavy>
37

>  <SCORE.norm>
-0.496994

>  <RMSD>
8.360

$$$$
2oe5_lig
 OpenBabel11021811463D
libRbt.so/2013.1/901 2013/11/27
 37 40  0  0  0  0  0  0  0  0999 V2000
   20.6977   -4.8750   48.1831 C   0  0  1  0  0  0  0  0  0  0  0  0
   21.4380   -5.3885   46.9279 C   0  0  1  0  0  0  0  0  0  0  0  0
   21.0088   -4.5267   45.6828 C   0  0  0  0  0  0  0  0  0  0  0  0
   19.4778   -4.7034   45.5726 C   0  0  1  0  0  0  0  0  0  0  0  0
   18.7319   -4.1737   46.8762 C   0  0  1  0  0  0  0  0  0  0  0  0
   17.1900   -4.3355   46.7828 C   0  0  1  0  0  0  0  0  0  0  0  0
   16.7263   -3.5268   45.5380 C   0  0  1  0  0  0  0  0  0  0  0  0
   17.5196   -4.0514   44.2815 C   0  0  2  0  0  0  0  0  0  0  0  0
   14.4805   -2.7105   44.4644 C   0  0  0  0  0  0  0  0  0  0  0  0
   22.9019   -5.2777   47.1232 N   0  0  0  0  0  0  0  0  0  0  0  0
   15.2347   -3.6724   45.3417 N   0  0  0  0  0  0  0  0  0  0  0  0
   21.0527   -3.5190   48.4995 O   0  0  0  0  0  0  0  0  0  0  0  0
   19.2363   -4.9265   48.0264 O   0  0  0  0  0  0  0  0  0  0  0  0
   18.9827   -3.9406   44.4396 O   0  0  0  0  0  0  0  0  0  0  0  0
   16.9006   -5.7305   46.6477 O   0  0  0  0  0  0  0  0  0  0  0  0
   17.1700   -3.2955   43.1389 O   0  0  0  0  0  0  0  0  0  0  0  0
   17.0201   -4.1460   42.0176 C   0  0  2  0  0  0  0  0  0  0  0  0
   17.6751   -3.5719   40.7618 C   0  0  1  0  0  0  0  0  0  0  0  0
   16.9843   -2.2518   40.3224 C   0  0  2  0  0  0  0  0  0  0  0  0
   15.4747   -2.5638   40.0999 C   0  0  1  0  0  0  0  0  0  0  0  0
   14.8841   -3.0994   41.4454 C   0  0  1  0  0  0  0  0  0  0  0  0
   13.4264   -3.4864   41.3323 C   0  0  0  0  0  0  0  0  0  0  0  0
   14.7937   -1.2854   39.6688 N   0  0  0  0  0  0  0  0  0  0  0  0
   15.5903   -4.3413   41.7824 O   0  0  0  0  0  0  0  0  0  0  0  0
   19.0666   -3.3471   41.0630 O   0  0  0  0  0  0  0  0  0  0  0  0
   17.5775   -1.8299   39.0809 O   0  0  0  0  0  0  0  0  0  0  0  0
   13.2267   -4.4925   40.3993 O   0  0  0  0  0  0  0  0  0  0  0  0
   20.9901   -3.2078   49.8916 C   0  0  1  0  0  0  0  0  0  0  0  0
   22.1748   -3.9080   50.6487 C   0  0  1  0  0  0  0  0  0  0  0  0
   22.0923   -3.5404   52.1740 C   0  0  2  0  0  0  0  0  0  0  0  0
   22.2113   -2.0175   52.3366 C   0  0  1  0  0  0  0  0  0  0  0  0
   21.0129   -1.3165   51.5878 C   0  0  0  0  0  0  0  0  0  0  0  0
   21.0845   -1.6970   50.0566 C   0  0  2  0  0  0  0  0  0  0  0  0
   22.1525   -1.6924   53.7522 N   0  0  0  0  0  0  0  0  0  0  0  0
   19.9562   -1.0723   49.3173 N   0  0  0  0  0  0  0  0  0  0  0  0
   22.0664   -5.3525   50.4967 O   0  0  0  0  0  0  0  0  0  0  0  0
   23.1597   -4.1489   52.8512 O   0  0  0  0  0  0  0  0  0  0  0  0
  1  2  1  0  0  0  0
  1 12  1  6  0  0  0
  1 13  1  0  0  0  0
  2  3  1  0  0  0  0
  2 10  1  1  0  0  0
  4  3  1  1  0  0  0
  4  5  1  0  0  0  0
  4 14  1  0  0  0  0
  5  6  1  0  0  0  0
  5 13  1  1  0  0  0
  6  7  1  0  0  0  0
  6 15  1  6  0  0  0
  7  8  1  0  0  0  0
  7 11  1  6  0  0  0
  8 14  1  0  0  0  0
  8 16  1  6  0  0  0
  9 11  1  0  0  0  0
 17 16  1  1  0  0  0
 17 18  1  0  0  0  0
 17 24  1  0  0  0  0
 18 19  1  0  0  0  0
 18 25  1  1  0  0  0
 19 20  1  0  0  0  0
 19 26  1  6  0  0  0
 20 21  1  0  0  0  0
 20 23  1  1  0  0  0
 21 22  1  6  0  0  0
 21 24  1  0  0  0  0
 22 27  1  0  0  0  0
 28 12  1  6  0  0  0
 28 29  1  0  0  0  0
 28 33  1  0  0  0  0
 29 30  1  0  0  0  0
 29 36  1  1  0  0  0
 30 31  1  0  0  0  0
 30 37  1  1  0  0  0
 31 32  1  0  0  0  0
 31 34  1  1  0  0  0
 32 33  1  0  0  0  0
 33 35  1  6  0  0  0
M  END
>  <CHROM.1>
-149.94435958,162.93630315,-138.48692560,-136.31125878,60.48070680,71.85088271
18.66277399,-3.56054669,45.86657045,-1.00115307,0.21556890,-1.69099878

>  <Name>
2oe5_lig

>  <RI>
0

>  <Rbt.Current_Directory>
/home/itssahil/PROJECTS/Mol_Feturizer/New_Systems/rnas/2oe5

>  <Rbt.Executable>
rbdock ($Id: //depot/dev/client3/rdock/2013.1/src/exe/rbdock.cxx#4 $)

>  <Rbt.Library>
libRbt.so (2013.1, Build901 2013/11/27)

>  <Rbt.Parameter_File>
/export/apps/rDock/src/rDock_2013.1_src/data/scripts/dock_solv.prm

>  <Rbt.Receptor>
prm/blind_docking_100.prm

>  <SCORE>
-12.2177

>  <SCORE.INTER>
-12.6097

>  <SCORE.INTER.CONST>
1

>  <SCORE.INTER.POLAR>
-1.94788

>  <SCORE.INTER.ROT>
6

>  <SCORE.INTER.SOLV>
19.2115

>  <SCORE.INTER.VDW>
-15.9174

>  <SCORE.INTER.norm>
-0.340804

>  <SCORE.INTRA>
0.39204

>  <SCORE.INTRA.DIHEDRAL>
-0.0968077

>  <SCORE.INTRA.DIHEDRAL.0>
16.2083

>  <SCORE.INTRA.POLAR>
0

>  <SCORE.INTRA.POLAR.0>
0

>  <SCORE.INTRA.REPUL>
0

>  <SCORE.INTRA.REPUL.0>
0

>  <SCORE.INTRA.SOLV>
-0.718174

>  <SCORE.INTRA.SOLV.lig_0>
-89.8095

>  <SCORE.INTRA.VDW>
0.799531

>  <SCORE.INTRA.VDW.0>
-3.19502

>  <SCORE.INTRA.norm>
0.0105957

>  <SCORE.RESTR>
0

>  <SCORE.RESTR.CAVITY>
0

>  <SCORE.RESTR.norm>
0

>  <SCORE.SYSTEM>
0

>  <SCORE.SYSTEM.CONST>
0

>  <SCORE.SYSTEM.DIHEDRAL>
0

>  <SCORE.SYSTEM.SOLV>
0

>  <SCORE.SYSTEM.norm>
0

>  <SCORE.heavy>
37

>  <SCORE.norm>
-0.330208

>  <RMSD>
8.421

$$$$
2oe5_lig
 OpenBabel11021811463D
libRbt.so/2013.1/901 2013/11/27
 37 40  0  0  0  0  0  0  0  0999 V2000
   20.9169   -2.8392   48.2871 C   0  0  1  0  0  0  0  0  0  0  0  0
   19.6836   -2.0318   48.7500 C   0  0  1  0  0  0  0  0  0  0  0  0
   18.3744   -2.7669   48.2778 C   0  0  0  0  0  0  0  0  0  0  0  0
   18.4811   -2.8414   46.7382 C   0  0  1  0  0  0  0  0  0  0  0  0
   19.7598   -3.6725   46.2794 C   0  0  1  0  0  0  0  0  0  0  0  0
   19.8819   -3.7658   44.7339 C   0  0  1  0  0  0  0  0  0  0  0  0
   18.5859   -4.4550   44.2200 C   0  0  1  0  0  0  0  0  0  0  0  0
   17.3468   -3.6275   44.7328 C   0  0  2  0  0  0  0  0  0  0  0  0
   19.1588   -5.7529   42.0177 C   0  0  0  0  0  0  0  0  0  0  0  0
   19.6791   -1.9168   50.2266 N   0  0  0  0  0  0  0  0  0  0  0  0
   18.5985   -4.5408   42.7110 N   0  0  0  0  0  0  0  0  0  0  0  0
   20.9595   -4.1454   48.8847 O   0  0  0  0  0  0  0  0  0  0  0  0
   20.9490   -3.0171   46.8277 O   0  0  0  0  0  0  0  0  0  0  0  0
   17.3060   -3.5074   46.2031 O   0  0  0  0  0  0  0  0  0  0  0  0
   20.0152   -2.4363   44.2212 O   0  0  0  0  0  0  0  0  0  0  0  0
   16.1458   -4.2604   44.3374 O   0  0  0  0  0  0  0  0  0  0  0  0
   15.1003   -3.3109   44.2463 C   0  0  2  0  0  0  0  0  0  0  0  0
   13.7196   -3.9660   44.2431 C   0  0  1  0  0  0  0  0  0  0  0  0
   13.5241   -4.8565   42.9853 C   0  0  2  0  0  0  0  0  0  0  0  0
   13.7429   -3.9552   41.7340 C   0  0  1  0  0  0  0  0  0  0  0  0
   15.1915   -3.3696   41.8023 C   0  0  1  0  0  0  0  0  0  0  0  0
   15.4985   -2.4314   40.6564 C   0  0  0  0  0  0  0  0  0  0  0  0
   13.5519   -4.8122   40.5039 N   0  0  0  0  0  0  0  0  0  0  0  0
   15.2859   -2.5464   43.0138 O   0  0  0  0  0  0  0  0  0  0  0  0
   13.6088   -4.7491   45.4481 O   0  0  0  0  0  0  0  0  0  0  0  0
   12.1722   -5.3497   42.9938 O   0  0  0  0  0  0  0  0  0  0  0  0
   16.8335   -2.0573   40.6343 O   0  0  0  0  0  0  0  0  0  0  0  0
   22.1486   -4.8816   48.5969 C   0  0  1  0  0  0  0  0  0  0  0  0
   23.3191   -4.3866   49.5198 C   0  0  1  0  0  0  0  0  0  0  0  0
   24.6111   -5.2193   49.1942 C   0  0  2  0  0  0  0  0  0  0  0  0
   24.3392   -6.7063   49.4673 C   0  0  1  0  0  0  0  0  0  0  0  0
   23.1731   -7.2055   48.5296 C   0  0  0  0  0  0  0  0  0  0  0  0
   21.8771   -6.3594   48.8440 C   0  0  2  0  0  0  0  0  0  0  0  0
   25.5469   -7.4628   49.1805 N   0  0  0  0  0  0  0  0  0  0  0  0
   20.7577   -6.7851   47.9633 N   0  0  0  0  0  0  0  0  0  0  0  0
   23.5800   -2.9765   49.2647 O   0  0  0  0  0  0  0  0  0  0  0  0
   25.6546   -4.7929   50.0295 O   0  0  0  0  0  0  0  0  0  0  0  0
  1  2  1  0  0  0  0
  1 12  1  1  0  0  0
  1 13  1  0  0  0  0
  2  3  1  0  0  0  0
  2 10  1  1  0  0  0
  4  3  1  1  0  0  0
  4  5  1  0  0  0  0
  4 14  1  0  0  0  0
  5  6  1  0  0  0  0
  5 13  1  6  0  0  0
  6  7  1  0  0  0  0
  6 15  1  6  0  0  0
  7  8  1  0  0  0  0
  7 11  1  6  0  0  0
  8 14  1  0  0  0  0
  8 16  1  1  0  0  0
  9 11  1  0  0  0  0
 17 16  1  6  0  0  0
 17 18  1  0  0  0  0
 17 24  1  0  0  0  0
 18 19  1  0  0  0  0
 18 25  1  1  0  0  0
 19 20  1  0  0  0  0
 19 26  1  6  0  0  0
 20 21  1  0  0  0  0
 20 23  1  6  0  0  0
 21 22  1  6  0  0  0
 21 24  1  0  0  0  0
 22 27  1  0  0  0  0
 28 12  1  1  0  0  0
 28 29  1  0  0  0  0
 28 33  1  0  0  0  0
 29 30  1  0  0  0  0
 29 36  1  6  0  0  0
 30 31  1  0  0  0  0
 30 37  1  1  0  0  0
 31 32  1  0  0  0  0
 31 34  1  6  0  0  0
 32 33  1  0  0  0  0
 33 35  1  6  0  0  0
M  END
>  <CHROM.1>
-173.96860928,91.55258689,-154.22890419,-162.66383198,-172.23782401,79.31114493
18.87239574,-4.13717155,45.81972243,0.56715458,-0.36544755,1.22816792

>  <Name>
2oe5_lig

>  <RI>
0

>  <Rbt.Current_Directory>
/home/itssahil/PROJECTS/Mol_Feturizer/New_Systems/rnas/2oe5

>  <Rbt.Executable>
rbdock ($Id: //depot/dev/client3/rdock/2013.1/src/exe/rbdock.cxx#4 $)

>  <Rbt.Library>
libRbt.so (2013.1, Build901 2013/11/27)

>  <Rbt.Parameter_File>
/export/apps/rDock/src/rDock_2013.1_src/data/scripts/dock_solv.prm

>  <Rbt.Receptor>
prm/blind_docking_80.prm

>  <SCORE>
-22.5502

>  <SCORE.INTER>
-17.4627

>  <SCORE.INTER.CONST>
1

>  <SCORE.INTER.POLAR>
-1

>  <SCORE.INTER.ROT>
6

>  <SCORE.INTER.SOLV>
11.5907

>  <SCORE.INTER.VDW>
-19.772

>  <SCORE.INTER.norm>
-0.471965

>  <SCORE.INTRA>
-5.71798

>  <SCORE.INTRA.DIHEDRAL>
-9.2219

>  <SCORE.INTRA.DIHEDRAL.0>
16.2083

>  <SCORE.INTRA.POLAR>
0

>  <SCORE.INTRA.POLAR.0>
0

>  <SCORE.INTRA.REPUL>
0

>  <SCORE.INTRA.REPUL.0>
0

>  <SCORE.INTRA.SOLV>
-1.80828

>  <SCORE.INTRA.SOLV.lig_0>
-89.8095

>  <SCORE.INTRA.VDW>
-0.202888

>  <SCORE.INTRA.VDW.0>
-3.19502

>  <SCORE.INTRA.norm>
-0.15454

>  <SCORE.RESTR>
0.630535

>  <SCORE.RESTR.CAVITY>
0.630535

>  <SCORE.RESTR.norm>
0.0170415

>  <SCORE.SYSTEM>
0

>  <SCORE.SYSTEM.CONST>
0

>  <SCORE.SYSTEM.DIHEDRAL>
0

>  <SCORE.SYSTEM.SOLV>
0

>  <SCORE.SYSTEM.norm>
0

>  <SCORE.heavy>
37

>  <SCORE.norm>
-0.609464

>  <RMSD>
8.510

$$$$
2oe5_lig
 OpenBabel11021811463D
libRbt.so/2013.1/901 2013/11/27
 37 40  0  0  0  0  0  0  0  0999 V2000
   20.2975   -3.2433   48.6623 C   0  0  1  0  0  0  0  0  0  0  0  0
   18.9298   -2.5435   48.8263 C   0  0  1  0  0  0  0  0  0  0  0  0
   17.8462   -3.3180   47.9878 C   0  0  0  0  0  0  0  0  0  0  0  0
   18.3535   -3.2770   46.5288 C   0  0  1  0  0  0  0  0  0  0  0  0
   19.7656   -3.9980   46.3794 C   0  0  1  0  0  0  0  0  0  0  0  0
   20.2906   -3.9744   44.9179 C   0  0  1  0  0  0  0  0  0  0  0  0
   19.2271   -4.6995   44.0450 C   0  0  1  0  0  0  0  0  0  0  0  0
   17.8394   -3.9836   44.2567 C   0  0  2  0  0  0  0  0  0  0  0  0
   19.0872   -5.6920   41.6247 C   0  0  0  0  0  0  0  0  0  0  0  0
   18.5343   -2.5338   50.2536 N   0  0  0  0  0  0  0  0  0  0  0  0
   19.6367   -4.6773   42.5902 N   0  0  0  0  0  0  0  0  0  0  0  0
   20.2810   -4.5838   49.1797 O   0  0  0  0  0  0  0  0  0  0  0  0
   20.7199   -3.3152   47.2555 O   0  0  0  0  0  0  0  0  0  0  0  0
   17.4102   -3.9704   45.6686 O   0  0  0  0  0  0  0  0  0  0  0  0
   20.4528   -2.6064   44.5298 O   0  0  0  0  0  0  0  0  0  0  0  0
   16.8325   -4.6555   43.5260 O   0  0  0  0  0  0  0  0  0  0  0  0
   15.7633   -3.7726   43.2422 C   0  0  2  0  0  0  0  0  0  0  0  0
   14.4004   -4.4530   43.3648 C   0  0  1  0  0  0  0  0  0  0  0  0
   14.2402   -5.5823   42.3103 C   0  0  2  0  0  0  0  0  0  0  0  0
   14.4470   -4.9442   40.9047 C   0  0  1  0  0  0  0  0  0  0  0  0
   15.8791   -4.3171   40.8599 C   0  0  1  0  0  0  0  0  0  0  0  0
   16.1721   -3.6192   39.5505 C   0  0  0  0  0  0  0  0  0  0  0  0
   14.2901   -6.0351   39.8706 N   0  0  0  0  0  0  0  0  0  0  0  0
   15.9404   -3.2657   41.8822 O   0  0  0  0  0  0  0  0  0  0  0  0
   14.2988   -4.9816   44.7019 O   0  0  0  0  0  0  0  0  0  0  0  0
   12.9016   -6.1009   42.4122 O   0  0  0  0  0  0  0  0  0  0  0  0
   17.5097   -3.2728   39.4341 O   0  0  0  0  0  0  0  0  0  0  0  0
   21.5758   -5.1253   49.4420 C   0  0  1  0  0  0  0  0  0  0  0  0
   22.3266   -5.3926   48.0885 C   0  0  1  0  0  0  0  0  0  0  0  0
   23.7516   -5.9747   48.4031 C   0  0  2  0  0  0  0  0  0  0  0  0
   24.5447   -4.9550   49.2344 C   0  0  1  0  0  0  0  0  0  0  0  0
   23.7969   -4.6985   50.5994 C   0  0  0  0  0  0  0  0  0  0  0  0
   22.3581   -4.1278   50.2856 C   0  0  2  0  0  0  0  0  0  0  0  0
   25.8665   -5.4973   49.5025 N   0  0  0  0  0  0  0  0  0  0  0  0
   21.6104   -3.8926   51.5488 N   0  0  0  0  0  0  0  0  0  0  0  0
   21.5777   -6.3586   47.2965 O   0  0  0  0  0  0  0  0  0  0  0  0
   24.4329   -6.1976   47.1971 O   0  0  0  0  0  0  0  0  0  0  0  0
  1  2  1  0  0  0  0
  1 12  1  6  0  0  0
  1 13  1  0  0  0  0
  2  3  1  0  0  0  0
  2 10  1  1  0  0  0
  4  3  1  1  0  0  0
  4  5  1  0  0  0  0
  4 14  1  0  0  0  0
  5  6  1  0  0  0  0
  5 13  1  1  0  0  0
  6  7  1  0  0  0  0
  6 15  1  6  0  0  0
  7  8  1  0  0  0  0
  7 11  1  6  0  0  0
  8 14  1  0  0  0  0
  8 16  1  6  0  0  0
  9 11  1  0  0  0  0
 17 16  1  6  0  0  0
 17 18  1  0  0  0  0
 17 24  1  0  0  0  0
 18 19  1  0  0  0  0
 18 25  1  1  0  0  0
 19 20  1  0  0  0  0
 19 26  1  6  0  0  0
 20 21  1  0  0  0  0
 20 23  1  6  0  0  0
 21 22  1  6  0  0  0
 21 24  1  0  0  0  0
 22 27  1  0  0  0  0
 28 12  1  6  0  0  0
 28 29  1  0  0  0  0
 28 33  1  0  0  0  0
 29 30  1  0  0  0  0
 29 36  1  6  0  0  0
 30 31  1  0  0  0  0
 30 37  1  6  0  0  0
 31 32  1  0  0  0  0
 31 34  1  1  0  0  0
 32 33  1  0  0  0  0
 33 35  1  1  0  0  0
M  END
>  <CHROM.1>
-161.39554386,157.80245098,-155.68298291,-140.93248754,-169.59259607,-69.81170934
18.97812416,-4.42907420,45.52898662,0.80048641,-0.17413419,1.40936474

>  <Name>
2oe5_lig

>  <RI>
0

>  <Rbt.Current_Directory>
/home/itssahil/PROJECTS/Mol_Feturizer/New_Systems/rnas/2oe5

>  <Rbt.Executable>
rbdock ($Id: //depot/dev/client3/rdock/2013.1/src/exe/rbdock.cxx#4 $)

>  <Rbt.Library>
libRbt.so (2013.1, Build901 2013/11/27)

>  <Rbt.Parameter_File>
/export/apps/rDock/src/rDock_2013.1_src/data/scripts/dock_solv.prm

>  <Rbt.Receptor>
prm/blind_docking_100.prm

>  <SCORE>
-18.9264

>  <SCORE.INTER>
-16.5655

>  <SCORE.INTER.CONST>
1

>  <SCORE.INTER.POLAR>
-2.17506

>  <SCORE.INTER.ROT>
6

>  <SCORE.INTER.SOLV>
17.4055

>  <SCORE.INTER.VDW>
-17.1953

>  <SCORE.INTER.norm>
-0.447717

>  <SCORE.INTRA>
-2.36089

>  <SCORE.INTRA.DIHEDRAL>
-5.59341

>  <SCORE.INTRA.DIHEDRAL.0>
16.2083

>  <SCORE.INTRA.POLAR>
0

>  <SCORE.INTRA.POLAR.0>
0

>  <SCORE.INTRA.REPUL>
0

>  <SCORE.INTRA.REPUL.0>
0

>  <SCORE.INTRA.SOLV>
-0.487465

>  <SCORE.INTRA.SOLV.lig_0>
-89.8095

>  <SCORE.INTRA.VDW>
0.679551

>  <SCORE.INTRA.VDW.0>
-3.19502

>  <SCORE.INTRA.norm>
-0.0638078

>  <SCORE.RESTR>
0

>  <SCORE.RESTR.CAVITY>
0

>  <SCORE.RESTR.norm>
0

>  <SCORE.SYSTEM>
0

>  <SCORE.SYSTEM.CONST>
0

>  <SCORE.SYSTEM.DIHEDRAL>
0

>  <SCORE.SYSTEM.SOLV>
0

>  <SCORE.SYSTEM.norm>
0

>  <SCORE.heavy>
37

>  <SCORE.norm>
-0.511524

>  <RMSD>
8.528

$$$$
2oe5_lig
 OpenBabel11021811463D
libRbt.so/2013.1/901 2013/11/27
 37 40  0  0  0  0  0  0  0  0999 V2000
   20.5599   -3.8320   47.0056 C   0  0  1  0  0  0  0  0  0  0  0  0
   21.1377   -4.0178   45.5847 C   0  0  1  0  0  0  0  0  0  0  0  0
   20.0904   -3.5062   44.5271 C   0  0  0  0  0  0  0  0  0  0  0  0
   18.8244   -4.3607   44.7604 C   0  0  1  0  0  0  0  0  0  0  0  0
   18.2456   -4.1606   46.2306 C   0  0  1  0  0  0  0  0  0  0  0  0
   16.9675   -5.0059   46.4837 C   0  0  1  0  0  0  0  0  0  0  0  0
   15.9144   -4.5573   45.4309 C   0  0  1  0  0  0  0  0  0  0  0  0
   16.5426   -4.7291   43.9960 C   0  0  2  0  0  0  0  0  0  0  0  0
   13.9725   -5.5066   46.9109 C   0  0  0  0  0  0  0  0  0  0  0  0
   22.3953   -3.2480   45.4453 N   0  0  0  0  0  0  0  0  0  0  0  0
   14.6484   -5.3705   45.5736 N   0  0  0  0  0  0  0  0  0  0  0  0
   20.3290   -2.4479   47.3153 O   0  0  0  0  0  0  0  0  0  0  0  0
   19.2867   -4.5458   47.1856 O   0  0  0  0  0  0  0  0  0  0  0  0
   17.7908   -3.9615   43.8206 O   0  0  0  0  0  0  0  0  0  0  0  0
   17.3146   -6.3860   46.3326 O   0  0  0  0  0  0  0  0  0  0  0  0
   15.6354   -4.2708   43.0131 O   0  0  0  0  0  0  0  0  0  0  0  0
   15.5648   -2.8575   43.0345 C   0  0  2  0  0  0  0  0  0  0  0  0
   14.1307   -2.3457   42.9040 C   0  0  1  0  0  0  0  0  0  0  0  0
   13.5218   -2.7278   41.5270 C   0  0  2  0  0  0  0  0  0  0  0  0
   14.4512   -2.1403   40.4239 C   0  0  1  0  0  0  0  0  0  0  0  0
   15.8775   -2.7544   40.6103 C   0  0  1  0  0  0  0  0  0  0  0  0
   16.8828   -2.2121   39.6190 C   0  0  0  0  0  0  0  0  0  0  0  0
   13.8655   -2.5043   39.0791 N   0  0  0  0  0  0  0  0  0  0  0  0
   16.3734   -2.3446   41.9296 O   0  0  0  0  0  0  0  0  0  0  0  0
   13.3653   -2.9221   43.9809 O   0  0  0  0  0  0  0  0  0  0  0  0
   12.2192   -2.1233   41.4322 O   0  0  0  0  0  0  0  0  0  0  0  0
   18.0435   -2.9700   39.5884 O   0  0  0  0  0  0  0  0  0  0  0  0
   20.4351   -2.1339   48.7041 C   0  0  1  0  0  0  0  0  0  0  0  0
   19.3915   -2.9752   49.5227 C   0  0  1  0  0  0  0  0  0  0  0  0
   19.5365   -2.6227   51.0468 C   0  0  2  0  0  0  0  0  0  0  0  0
   20.9564   -2.9735   51.5165 C   0  0  1  0  0  0  0  0  0  0  0  0
   22.0025   -2.1174   50.7036 C   0  0  0  0  0  0  0  0  0  0  0  0
   21.8483   -2.4585   49.1692 C   0  0  2  0  0  0  0  0  0  0  0  0
   21.0715   -2.6605   52.9314 N   0  0  0  0  0  0  0  0  0  0  0  0
   22.8043   -1.6538   48.3640 N   0  0  0  0  0  0  0  0  0  0  0  0
   18.0434   -2.6462   49.0801 O   0  0  0  0  0  0  0  0  0  0  0  0
   18.6185   -3.3858   51.7839 O   0  0  0  0  0  0  0  0  0  0  0  0
  1  2  1  0  0  0  0
  1 12  1  6  0  0  0
  1 13  1  0  0  0  0
  2  3  1  0  0  0  0
  2 10  1  1  0  0  0
  4  3  1  1  0  0  0
  4  5  1  0  0  0  0
  4 14  1  0  0  0  0
  5  6  1  0  0  0  0
  5 13  1  1  0  0  0
  6  7  1  0  0  0  0
  6 15  1  6  0  0  0
  7  8  1  0  0  0  0
  7 11  1  6  0  0  0
  8 14  1  0  0  0  0
  8 16  1  6  0  0  0
  9 11  1  0  0  0  0
 17 16  1  6  0  0  0
 17 18  1  0  0  0  0
 17 24  1  0  0  0  0
 18 19  1  0  0  0  0
 18 25  1  1  0  0  0
 19 20  1  0  0  0  0
 19 26  1  1  0  0  0
 20 21  1  0  0  0  0
 20 23  1  6  0  0  0
 21 22  1  6  0  0  0
 21 24  1  0  0  0  0
 22 27  1  0  0  0  0
 28 12  1  6  0  0  0
 28 29  1  0  0  0  0
 28 33  1  0  0  0  0
 29 30  1  0  0  0  0
 29 36  1  6  0  0  0
 30 31  1  0  0  0  0
 30 37  1  1  0  0  0
 31 32  1  0  0  0  0
 31 34  1  1  0  0  0
 32 33  1  0  0  0  0
 33 35  1  6  0  0  0
M  END
>  <CHROM.1>
-150.99217393,51.64900908,72.81811188,-137.38034895,-166.24322716,-59.46334737
17.75846919,-3.34538131,45.55708431,-0.95570995,-0.18717494,-1.44462728

>  <Name>
2oe5_lig

>  <RI>
0

>  <Rbt.Current_Directory>
/home/itssahil/PROJECTS/Mol_Feturizer/New_Systems/rnas/2oe5

>  <Rbt.Executable>
rbdock ($Id: //depot/dev/client3/rdock/2013.1/src/exe/rbdock.cxx#4 $)

>  <Rbt.Library>
libRbt.so (2013.1, Build901 2013/11/27)

>  <Rbt.Parameter_File>
/export/apps/rDock/src/rDock_2013.1_src/data/scripts/dock_solv.prm

>  <Rbt.Receptor>
prm/blind_docking_100.prm

>  <SCORE>
-20.3045

>  <SCORE.INTER>
-20.1553

>  <SCORE.INTER.CONST>
1

>  <SCORE.INTER.POLAR>
-1.98423

>  <SCORE.INTER.ROT>
6

>  <SCORE.INTER.SOLV>
19.2693

>  <SCORE.INTER.VDW>
-20.8459

>  <SCORE.INTER.norm>
-0.544738

>  <SCORE.INTRA>
-0.149229

>  <SCORE.INTRA.DIHEDRAL>
-5.46721

>  <SCORE.INTRA.DIHEDRAL.0>
16.2083

>  <SCORE.INTRA.POLAR>
0

>  <SCORE.INTRA.POLAR.0>
0

>  <SCORE.INTRA.REPUL>
0

>  <SCORE.INTRA.REPUL.0>
0

>  <SCORE.INTRA.SOLV>
0.540767

>  <SCORE.INTRA.SOLV.lig_0>
-89.8095

>  <SCORE.INTRA.VDW>
2.31399

>  <SCORE.INTRA.VDW.0>
-3.19502

>  <SCORE.INTRA.norm>
-0.00403322

>  <SCORE.RESTR>
0

>  <SCORE.RESTR.CAVITY>
0

>  <SCORE.RESTR.norm>
0

>  <SCORE.SYSTEM>
0

>  <SCORE.SYSTEM.CONST>
0

>  <SCORE.SYSTEM.DIHEDRAL>
0

>  <SCORE.SYSTEM.SOLV>
0

>  <SCORE.SYSTEM.norm>
0

>  <SCORE.heavy>
37

>  <SCORE.norm>
-0.548772

>  <RMSD>
8.566

$$$$
2oe5_lig
 OpenBabel11021811463D
libRbt.so/2013.1/901 2013/11/27
 37 40  0  0  0  0  0  0  0  0999 V2000
   20.3551   -3.9025   47.3570 C   0  0  1  0  0  0  0  0  0  0  0  0
   21.0690   -4.3842   46.0741 C   0  0  1  0  0  0  0  0  0  0  0  0
   20.3863   -3.7221   44.8200 C   0  0  0  0  0  0  0  0  0  0  0  0
   18.9098   -4.1743   44.8731 C   0  0  1  0  0  0  0  0  0  0  0  0
   18.1915   -3.6736   46.2033 C   0  0  1  0  0  0  0  0  0  0  0  0
   16.7031   -4.1117   46.2732 C   0  0  1  0  0  0  0  0  0  0  0  0
   15.9963   -3.5079   45.0264 C   0  0  1  0  0  0  0  0  0  0  0  0
   16.7641   -3.9912   43.7379 C   0  0  2  0  0  0  0  0  0  0  0  0
   14.1729   -5.3697   44.7589 C   0  0  0  0  0  0  0  0  0  0  0  0
   22.4990   -4.0009   46.1167 N   0  0  0  0  0  0  0  0  0  0  0  0
   14.5455   -3.9301   44.9880 N   0  0  0  0  0  0  0  0  0  0  0  0
   20.4810   -2.4830   47.5416 O   0  0  0  0  0  0  0  0  0  0  0  0
   18.9200   -4.2237   47.3483 O   0  0  0  0  0  0  0  0  0  0  0  0
   18.1901   -3.6113   43.7436 O   0  0  0  0  0  0  0  0  0  0  0  0
   16.6638   -5.5423   46.2648 O   0  0  0  0  0  0  0  0  0  0  0  0
   16.1873   -3.4101   42.5851 O   0  0  0  0  0  0  0  0  0  0  0  0
   16.7400   -3.9888   41.4178 C   0  0  2  0  0  0  0  0  0  0  0  0
   16.4606   -3.1547   40.1681 C   0  0  1  0  0  0  0  0  0  0  0  0
   14.9382   -3.0895   39.8660 C   0  0  2  0  0  0  0  0  0  0  0  0
   14.4271   -4.5529   39.7144 C   0  0  1  0  0  0  0  0  0  0  0  0
   14.7140   -5.3105   41.0523 C   0  0  1  0  0  0  0  0  0  0  0  0
   14.3034   -6.7652   41.0013 C   0  0  0  0  0  0  0  0  0  0  0  0
   12.9462   -4.5004   39.4172 N   0  0  0  0  0  0  0  0  0  0  0  0
   16.1674   -5.3245   41.2570 O   0  0  0  0  0  0  0  0  0  0  0  0
   16.9945   -1.8359   40.3990 O   0  0  0  0  0  0  0  0  0  0  0  0
   14.7599   -2.3855   38.6236 O   0  0  0  0  0  0  0  0  0  0  0  0
   14.5856   -7.4268   42.1867 O   0  0  0  0  0  0  0  0  0  0  0  0
   20.5584   -2.0757   48.9079 C   0  0  1  0  0  0  0  0  0  0  0  0
   19.4858   -2.8479   49.7565 C   0  0  1  0  0  0  0  0  0  0  0  0
   19.5994   -2.3932   51.2561 C   0  0  2  0  0  0  0  0  0  0  0  0
   21.0035   -2.7259   51.7828 C   0  0  1  0  0  0  0  0  0  0  0  0
   22.0787   -1.9385   50.9388 C   0  0  0  0  0  0  0  0  0  0  0  0
   21.9563   -2.3823   49.4280 C   0  0  2  0  0  0  0  0  0  0  0  0
   21.0893   -2.3178   53.1754 N   0  0  0  0  0  0  0  0  0  0  0  0
   22.9405   -1.6447   48.5931 N   0  0  0  0  0  0  0  0  0  0  0  0
   18.1525   -2.5359   49.2600 O   0  0  0  0  0  0  0  0  0  0  0  0
   18.6552   -3.0944   52.0211 O   0  0  0  0  0  0  0  0  0  0  0  0
  1  2  1  0  0  0  0
  1 12  1  6  0  0  0
  1 13  1  0  0  0  0
  2  3  1  0  0  0  0
  2 10  1  1  0  0  0
  4  3  1  1  0  0  0
  4  5  1  0  0  0  0
  4 14  1  0  0  0  0
  5  6  1  0  0  0  0
  5 13  1  1  0  0  0
  6  7  1  0  0  0  0
  6 15  1  6  0  0  0
  7  8  1  0  0  0  0
  7 11  1  6  0  0  0
  8 14  1  0  0  0  0
  8 16  1  6  0  0  0
  9 11  1  0  0  0  0
 17 16  1  1  0  0  0
 17 18  1  0  0  0  0
 17 24  1  0  0  0  0
 18 19  1  0  0  0  0
 18 25  1  1  0  0  0
 19 20  1  0  0  0  0
 19 26  1  6  0  0  0
 20 21  1  0  0  0  0
 20 23  1  1  0  0  0
 21 22  1  6  0  0  0
 21 24  1  0  0  0  0
 22 27  1  0  0  0  0
 28 12  1  6  0  0  0
 28 29  1  0  0  0  0
 28 33  1  0  0  0  0
 29 30  1  0  0  0  0
 29 36  1  6  0  0  0
 30 31  1  0  0  0  0
 30 37  1  1  0  0  0
 31 32  1  0  0  0  0
 31 34  1  1  0  0  0
 32 33  1  0  0  0  0
 33 35  1  6  0  0  0
M  END
>  <CHROM.1>
-146.45622466,-67.10199750,-171.40318789,-163.97877258,178.97180857,-44.19036562
17.86672027,-3.69751511,45.31585345,-0.97288156,-0.41303970,-1.48615789

>  <Name>
2oe5_lig

>  <RI>
0

>  <Rbt.Current_Directory>
/home/itssahil/PROJECTS/Mol_Feturizer/New_Systems/rnas/2oe5

>  <Rbt.Executable>
rbdock ($Id: //depot/dev/client3/rdock/2013.1/src/exe/rbdock.cxx#4 $)

>  <Rbt.Library>
libRbt.so (2013.1, Build901 2013/11/27)

>  <Rbt.Parameter_File>
/export/apps/rDock/src/rDock_2013.1_src/data/scripts/dock_solv.prm

>  <Rbt.Receptor>
prm/blind_docking_100.prm

>  <SCORE>
-15.9327

>  <SCORE.INTER>
-13.72

>  <SCORE.INTER.CONST>
1

>  <SCORE.INTER.POLAR>
-1.57506

>  <SCORE.INTER.ROT>
6

>  <SCORE.INTER.SOLV>
16.5588

>  <SCORE.INTER.VDW>
-17.0161

>  <SCORE.INTER.norm>
-0.37081

>  <SCORE.INTRA>
-2.24441

>  <SCORE.INTRA.DIHEDRAL>
-9.14319

>  <SCORE.INTRA.DIHEDRAL.0>
16.2083

>  <SCORE.INTRA.POLAR>
0

>  <SCORE.INTRA.POLAR.0>
0

>  <SCORE.INTRA.REPUL>
0

>  <SCORE.INTRA.REPUL.0>
0

>  <SCORE.INTRA.SOLV>
-0.335936

>  <SCORE.INTRA.SOLV.lig_0>
-89.8095

>  <SCORE.INTRA.VDW>
2.49515

>  <SCORE.INTRA.VDW.0>
-3.19502

>  <SCORE.INTRA.norm>
-0.0606597

>  <SCORE.RESTR>
0.0316987

>  <SCORE.RESTR.CAVITY>
0.0316987

>  <SCORE.RESTR.norm>
0.000856721

>  <SCORE.SYSTEM>
0

>  <SCORE.SYSTEM.CONST>
0

>  <SCORE.SYSTEM.DIHEDRAL>
0

>  <SCORE.SYSTEM.SOLV>
0

>  <SCORE.SYSTEM.norm>
0

>  <SCORE.heavy>
37

>  <SCORE.norm>
-0.430613

>  <RMSD>
8.728

$$$$
2oe5_lig
 OpenBabel11021811463D
libRbt.so/2013.1/901 2013/11/27
 37 40  0  0  0  0  0  0  0  0999 V2000
   20.2118   -4.5615   47.7454 C   0  0  1  0  0  0  0  0  0  0  0  0
   20.9012   -5.0837   46.4651 C   0  0  1  0  0  0  0  0  0  0  0  0
   20.1400   -4.5313   45.2031 C   0  0  0  0  0  0  0  0  0  0  0  0
   18.6912   -5.0503   45.3409 C   0  0  1  0  0  0  0  0  0  0  0  0
   17.9982   -4.5064   46.6677 C   0  0  1  0  0  0  0  0  0  0  0  0
   16.5374   -5.0109   46.8220 C   0  0  1  0  0  0  0  0  0  0  0  0
   15.7554   -4.5172   45.5716 C   0  0  1  0  0  0  0  0  0  0  0  0
   16.4985   -5.0389   44.2836 C   0  0  2  0  0  0  0  0  0  0  0  0
   14.0159   -6.4711   45.4332 C   0  0  0  0  0  0  0  0  0  0  0  0
   22.3106   -4.6301   46.4284 N   0  0  0  0  0  0  0  0  0  0  0  0
   14.3274   -5.0104   45.6156 N   0  0  0  0  0  0  0  0  0  0  0  0
   20.2726   -3.1291   47.8426 O   0  0  0  0  0  0  0  0  0  0  0  0
   18.7954   -4.9515   47.8126 O   0  0  0  0  0  0  0  0  0  0  0  0
   17.9027   -4.5910   44.2105 O   0  0  0  0  0  0  0  0  0  0  0  0
   16.5701   -6.4396   46.8978 O   0  0  0  0  0  0  0  0  0  0  0  0
   15.8508   -4.5561   43.1231 O   0  0  0  0  0  0  0  0  0  0  0  0
   16.0235   -5.4660   42.0530 C   0  0  2  0  0  0  0  0  0  0  0  0
   17.0281   -4.9612   41.0179 C   0  0  1  0  0  0  0  0  0  0  0  0
   16.5189   -3.6665   40.3269 C   0  0  2  0  0  0  0  0  0  0  0  0
   15.1366   -3.9896   39.6859 C   0  0  1  0  0  0  0  0  0  0  0  0
   14.1677   -4.4512   40.8236 C   0  0  1  0  0  0  0  0  0  0  0  0
   12.8016   -4.8432   40.3063 C   0  0  0  0  0  0  0  0  0  0  0  0
   14.6334   -2.7362   39.0079 N   0  0  0  0  0  0  0  0  0  0  0  0
   14.7232   -5.6732   41.4174 O   0  0  0  0  0  0  0  0  0  0  0  0
   18.2730   -4.7208   41.7036 O   0  0  0  0  0  0  0  0  0  0  0  0
   17.4578   -3.3129   39.2951 O   0  0  0  0  0  0  0  0  0  0  0  0
   12.8607   -5.9432   39.4642 O   0  0  0  0  0  0  0  0  0  0  0  0
   20.6112   -2.6451   49.1425 C   0  0  1  0  0  0  0  0  0  0  0  0
   21.6014   -1.4322   49.0191 C   0  0  1  0  0  0  0  0  0  0  0  0
   21.9482   -0.9095   50.4596 C   0  0  2  0  0  0  0  0  0  0  0  0
   20.6594   -0.4478   51.1564 C   0  0  1  0  0  0  0  0  0  0  0  0
   19.6718   -1.6702   51.2924 C   0  0  0  0  0  0  0  0  0  0  0  0
   19.3337   -2.2075   49.8462 C   0  0  2  0  0  0  0  0  0  0  0  0
   20.9961    0.0506   52.4798 N   0  0  0  0  0  0  0  0  0  0  0  0
   18.4202   -3.3772   49.9318 N   0  0  0  0  0  0  0  0  0  0  0  0
   22.8250   -1.8653   48.3583 O   0  0  0  0  0  0  0  0  0  0  0  0
   22.8183    0.1860   50.3533 O   0  0  0  0  0  0  0  0  0  0  0  0
  1  2  1  0  0  0  0
  1 12  1  6  0  0  0
  1 13  1  0  0  0  0
  2  3  1  0  0  0  0
  2 10  1  6  0  0  0
  4  3  1  6  0  0  0
  4  5  1  0  0  0  0
  4 14  1  0  0  0  0
  5  6  1  0  0  0  0
  5 13  1  1  0  0  0
  6  7  1  0  0  0  0
  6 15  1  6  0  0  0
  7  8  1  0  0  0  0
  7 11  1  1  0  0  0
  8 14  1  0  0  0  0
  8 16  1  6  0  0  0
  9 11  1  0  0  0  0
 17 16  1  1  0  0  0
 17 18  1  0  0  0  0
 17 24  1  0  0  0  0
 18 19  1  0  0  0  0
 18 25  1  1  0  0  0
 19 20  1  0  0  0  0
 19 26  1  6  0  0  0
 20 21  1  0  0  0  0
 20 23  1  1  0  0  0
 21 22  1  6  0  0  0
 21 24  1  0  0  0  0
 22 27  1  0  0  0  0
 28 12  1  6  0  0  0
 28 29  1  0  0  0  0
 28 33  1  0  0  0  0
 29 30  1  0  0  0  0
 29 36  1  1  0  0  0
 30 31  1  0  0  0  0
 30 37  1  6  0  0  0
 31 32  1  0  0  0  0
 31 34  1  1  0  0  0
 32 33  1  0  0  0  0
 33 35  1  1  0  0  0
M  END
>  <CHROM.1>
-136.13386389,-69.41758448,-150.86574304,-105.80593394,63.66599799,139.45382404
17.96766200,-3.86030562,45.43236561,0.91526118,0.48077028,1.59432241

>  <Name>
2oe5_lig

>  <RI>
0

>  <Rbt.Current_Directory>
/home/itssahil/PROJECTS/Mol_Feturizer/New_Systems/rnas/2oe5

>  <Rbt.Executable>
rbdock ($Id: //depot/dev/client3/rdock/2013.1/src/exe/rbdock.cxx#4 $)

>  <Rbt.Library>
libRbt.so (2013.1, Build901 2013/11/27)

>  <Rbt.Parameter_File>
/export/apps/rDock/src/rDock_2013.1_src/data/scripts/dock_solv.prm

>  <Rbt.Receptor>
prm/blind_docking_80.prm

>  <SCORE>
-10.6668

>  <SCORE.INTER>
-14.5225

>  <SCORE.INTER.CONST>
1

>  <SCORE.INTER.POLAR>
-1.79501

>  <SCORE.INTER.ROT>
6

>  <SCORE.INTER.SOLV>
11.2022

>  <SCORE.INTER.VDW>
-15.0324

>  <SCORE.INTER.norm>
-0.392501

>  <SCORE.INTRA>
3.85574

>  <SCORE.INTRA.DIHEDRAL>
5.05915

>  <SCORE.INTRA.DIHEDRAL.0>
16.2083

>  <SCORE.INTRA.POLAR>
0

>  <SCORE.INTRA.POLAR.0>
0

>  <SCORE.INTRA.REPUL>
0

>  <SCORE.INTRA.REPUL.0>
0

>  <SCORE.INTRA.SOLV>
1.12797

>  <SCORE.INTRA.SOLV.lig_0>
-89.8095

>  <SCORE.INTRA.VDW>
0.762185

>  <SCORE.INTRA.VDW.0>
-3.19502

>  <SCORE.INTRA.norm>
0.104209

>  <SCORE.RESTR>
0

>  <SCORE.RESTR.CAVITY>
0

>  <SCORE.RESTR.norm>
0

>  <SCORE.SYSTEM>
0

>  <SCORE.SYSTEM.CONST>
0

>  <SCORE.SYSTEM.DIHEDRAL>
0

>  <SCORE.SYSTEM.SOLV>
0

>  <SCORE.SYSTEM.norm>
0

>  <SCORE.heavy>
37

>  <SCORE.norm>
-0.288292

>  <RMSD>
8.785

$$$$
2oe5_lig
 OpenBabel11021811463D
libRbt.so/2013.1/901 2013/11/27
 37 40  0  0  0  0  0  0  0  0999 V2000
   18.7189   -4.3717   48.4337 C   0  0  1  0  0  0  0  0  0  0  0  0
   19.6949   -5.1395   47.5143 C   0  0  1  0  0  0  0  0  0  0  0  0
   19.6195   -4.5403   46.0609 C   0  0  0  0  0  0  0  0  0  0  0  0
   18.1472   -4.7117   45.6248 C   0  0  1  0  0  0  0  0  0  0  0  0
   17.1556   -3.9182   46.5858 C   0  0  1  0  0  0  0  0  0  0  0  0
   15.6698   -4.0714   46.1603 C   0  0  1  0  0  0  0  0  0  0  0  0
   15.5575   -3.5237   44.7091 C   0  0  1  0  0  0  0  0  0  0  0  0
   16.5845   -4.3034   43.8033 C   0  0  2  0  0  0  0  0  0  0  0  0
   13.4978   -2.5915   43.3858 C   0  0  0  0  0  0  0  0  0  0  0  0
   21.0783   -5.0144   48.0280 N   0  0  0  0  0  0  0  0  0  0  0  0
   14.1453   -3.6826   44.1945 N   0  0  0  0  0  0  0  0  0  0  0  0
   19.0761   -2.9855   48.5586 O   0  0  0  0  0  0  0  0  0  0  0  0
   17.3328   -4.4310   47.9459 O   0  0  0  0  0  0  0  0  0  0  0  0
   17.9757   -4.1857   44.2814 O   0  0  0  0  0  0  0  0  0  0  0  0
   15.3320   -5.4604   46.2310 O   0  0  0  0  0  0  0  0  0  0  0  0
   16.5561   -3.7884   42.4868 O   0  0  0  0  0  0  0  0  0  0  0  0
   17.1131   -4.7250   41.5837 C   0  0  2  0  0  0  0  0  0  0  0  0
   17.7376   -4.0527   40.3617 C   0  0  1  0  0  0  0  0  0  0  0  0
   16.6630   -3.3149   39.5168 C   0  0  2  0  0  0  0  0  0  0  0  0
   15.5820   -4.3619   39.1152 C   0  0  1  0  0  0  0  0  0  0  0  0
   14.9708   -4.9585   40.4255 C   0  0  1  0  0  0  0  0  0  0  0  0
   13.9394   -6.0311   40.1550 C   0  0  0  0  0  0  0  0  0  0  0  0
   14.5324   -3.6541   38.2897 N   0  0  0  0  0  0  0  0  0  0  0  0
   16.0498   -5.6334   41.1568 O   0  0  0  0  0  0  0  0  0  0  0  0
   18.7375   -3.1303   40.8383 O   0  0  0  0  0  0  0  0  0  0  0  0
   17.3010   -2.8024   38.3329 O   0  0  0  0  0  0  0  0  0  0  0  0
   13.3878   -6.5288   41.3257 O   0  0  0  0  0  0  0  0  0  0  0  0
   20.0830   -2.7270   49.5374 C   0  0  1  0  0  0  0  0  0  0  0  0
   21.1362   -1.7125   48.9645 C   0  0  1  0  0  0  0  0  0  0  0  0
   22.2247   -1.4341   50.0628 C   0  0  2  0  0  0  0  0  0  0  0  0
   21.5515   -0.8259   51.3025 C   0  0  1  0  0  0  0  0  0  0  0  0
   20.5044   -1.8518   51.8850 C   0  0  0  0  0  0  0  0  0  0  0  0
   19.4175   -2.1454   50.7774 C   0  0  2  0  0  0  0  0  0  0  0  0
   22.5710   -0.5559   52.3029 N   0  0  0  0  0  0  0  0  0  0  0  0
   18.4215   -3.1276   51.2805 N   0  0  0  0  0  0  0  0  0  0  0  0
   21.7767   -2.2848   47.7882 O   0  0  0  0  0  0  0  0  0  0  0  0
   23.1576   -0.5138   49.5616 O   0  0  0  0  0  0  0  0  0  0  0  0
  1  2  1  0  0  0  0
  1 12  1  6  0  0  0
  1 13  1  0  0  0  0
  2  3  1  0  0  0  0
  2 10  1  1  0  0  0
  4  3  1  1  0  0  0
  4  5  1  0  0  0  0
  4 14  1  0  0  0  0
  5  6  1  0  0  0  0
  5 13  1  1  0  0  0
  6  7  1  0  0  0  0
  6 15  1  6  0  0  0
  7  8  1  0  0  0  0
  7 11  1  6  0  0  0
  8 14  1  0  0  0  0
  8 16  1  6  0  0  0
  9 11  1  0  0  0  0
 17 16  1  1  0  0  0
 17 18  1  0  0  0  0
 17 24  1  0  0  0  0
 18 19  1  0  0  0  0
 18 25  1  1  0  0  0
 19 20  1  0  0  0  0
 19 26  1  6  0  0  0
 20 21  1  0  0  0  0
 20 23  1  1  0  0  0
 21 22  1  6  0  0  0
 21 24  1  0  0  0  0
 22 27  1  0  0  0  0
 28 12  1  6  0  0  0
 28 29  1  0  0  0  0
 28 33  1  0  0  0  0
 29 30  1  0  0  0  0
 29 36  1  6  0  0  0
 30 31  1  0  0  0  0
 30 37  1  6  0  0  0
 31 32  1  0  0  0  0
 31 34  1  1  0  0  0
 32 33  1  0  0  0  0
 33 35  1  1  0  0  0
M  END
>  <CHROM.1>
-83.15984732,139.20340225,-160.75909104,-151.84457551,-178.72659264,136.17350751
17.90227837,-3.60502588,45.31679388,1.01073404,0.44013337,1.59703593

>  <Name>
2oe5_lig

>  <RI>
0

>  <Rbt.Current_Directory>
/home/itssahil/PROJECTS/Mol_Feturizer/New_Systems/rnas/2oe5

>  <Rbt.Executable>
rbdock ($Id: //depot/dev/client3/rdock/2013.1/src/exe/rbdock.cxx#4 $)

>  <Rbt.Library>
libRbt.so (2013.1, Build901 2013/11/27)

>  <Rbt.Parameter_File>
/export/apps/rDock/src/rDock_2013.1_src/data/scripts/dock_solv.prm

>  <Rbt.Receptor>
prm/blind_docking_80.prm

>  <SCORE>
-19.9998

>  <SCORE.INTER>
-18.4601

>  <SCORE.INTER.CONST>
1

>  <SCORE.INTER.POLAR>
-2.02736

>  <SCORE.INTER.ROT>
6

>  <SCORE.INTER.SOLV>
12.6403

>  <SCORE.INTER.VDW>
-17.3623

>  <SCORE.INTER.norm>
-0.498921

>  <SCORE.INTRA>
-1.53969

>  <SCORE.INTRA.DIHEDRAL>
-1.98069

>  <SCORE.INTRA.DIHEDRAL.0>
16.2083

>  <SCORE.INTRA.POLAR>
0

>  <SCORE.INTRA.POLAR.0>
0

>  <SCORE.INTRA.REPUL>
0

>  <SCORE.INTRA.REPUL.0>
0

>  <SCORE.INTRA.SOLV>
0.45209

>  <SCORE.INTRA.SOLV.lig_0>
-89.8095

>  <SCORE.INTRA.VDW>
-0.775394

>  <SCORE.INTRA.VDW.0>
-3.19502

>  <SCORE.INTRA.norm>
-0.0416133

>  <SCORE.RESTR>
0

>  <SCORE.RESTR.CAVITY>
0

>  <SCORE.RESTR.norm>
0

>  <SCORE.SYSTEM>
0

>  <SCORE.SYSTEM.CONST>
0

>  <SCORE.SYSTEM.DIHEDRAL>
0

>  <SCORE.SYSTEM.SOLV>
0

>  <SCORE.SYSTEM.norm>
0

>  <SCORE.heavy>
37

>  <SCORE.norm>
-0.540534

>  <RMSD>
8.814

$$$$
2oe5_lig
 OpenBabel11021811463D
libRbt.so/2013.1/901 2013/11/27
 37 40  0  0  0  0  0  0  0  0999 V2000
   20.1983   -3.2580   47.9967 C   0  0  1  0  0  0  0  0  0  0  0  0
   18.7086   -2.9996   48.3149 C   0  0  1  0  0  0  0  0  0  0  0  0
   17.8213   -4.0246   47.5153 C   0  0  0  0  0  0  0  0  0  0  0  0
   18.1533   -3.7772   46.0267 C   0  0  1  0  0  0  0  0  0  0  0  0
   19.6929   -4.0433   45.7181 C   0  0  1  0  0  0  0  0  0  0  0  0
   20.0466   -3.8072   44.2243 C   0  0  1  0  0  0  0  0  0  0  0  0
   19.1608   -4.7777   43.3923 C   0  0  1  0  0  0  0  0  0  0  0  0
   17.6519   -4.5117   43.7606 C   0  0  2  0  0  0  0  0  0  0  0  0
   18.7074   -3.4748   41.1653 C   0  0  0  0  0  0  0  0  0  0  0  0
   18.4653   -3.1644   49.7665 N   0  0  0  0  0  0  0  0  0  0  0  0
   19.4056   -4.5772   41.9143 N   0  0  0  0  0  0  0  0  0  0  0  0
   20.6206   -4.5636   48.4234 O   0  0  0  0  0  0  0  0  0  0  0  0
   20.4872   -3.1456   46.5591 O   0  0  0  0  0  0  0  0  0  0  0  0
   17.3740   -4.6825   45.1999 O   0  0  0  0  0  0  0  0  0  0  0  0
   19.7674   -2.4377   43.9164 O   0  0  0  0  0  0  0  0  0  0  0  0
   16.8181   -5.4205   43.0691 O   0  0  0  0  0  0  0  0  0  0  0  0
   15.4708   -5.2464   43.4660 C   0  0  2  0  0  0  0  0  0  0  0  0
   14.5443   -6.2948   42.8511 C   0  0  1  0  0  0  0  0  0  0  0  0
   14.4964   -6.1629   41.3040 C   0  0  2  0  0  0  0  0  0  0  0  0
   14.0356   -4.7129   40.9710 C   0  0  1  0  0  0  0  0  0  0  0  0
   15.0654   -3.7176   41.5995 C   0  0  1  0  0  0  0  0  0  0  0  0
   14.6879   -2.2693   41.3819 C   0  0  0  0  0  0  0  0  0  0  0  0
   13.9829   -4.5751   39.4669 N   0  0  0  0  0  0  0  0  0  0  0  0
   15.0442   -3.9098   43.0545 O   0  0  0  0  0  0  0  0  0  0  0  0
   15.0388   -7.5916   43.2402 O   0  0  0  0  0  0  0  0  0  0  0  0
   13.5274   -7.1032   40.8061 O   0  0  0  0  0  0  0  0  0  0  0  0
   13.4737   -1.9542   41.9728 O   0  0  0  0  0  0  0  0  0  0  0  0
   22.0309   -4.7745   48.3516 C   0  0  1  0  0  0  0  0  0  0  0  0
   22.7363   -4.0857   49.5743 C   0  0  1  0  0  0  0  0  0  0  0  0
   24.2835   -4.3426   49.4805 C   0  0  2  0  0  0  0  0  0  0  0  0
   24.5507   -5.8548   49.5220 C   0  0  1  0  0  0  0  0  0  0  0  0
   23.8537   -6.5431   48.2856 C   0  0  0  0  0  0  0  0  0  0  0  0
   22.2998   -6.2732   48.3692 C   0  0  2  0  0  0  0  0  0  0  0  0
   25.9855   -6.0780   49.4535 N   0  0  0  0  0  0  0  0  0  0  0  0
   21.6068   -6.8884   47.2068 N   0  0  0  0  0  0  0  0  0  0  0  0
   22.4850   -2.6514   49.5394 O   0  0  0  0  0  0  0  0  0  0  0  0
   24.9157   -3.7446   50.5809 O   0  0  0  0  0  0  0  0  0  0  0  0
  1  2  1  0  0  0  0
  1 12  1  6  0  0  0
  1 13  1  0  0  0  0
  2  3  1  0  0  0  0
  2 10  1  1  0  0  0
  4  3  1  1  0  0  0
  4  5  1  0  0  0  0
  4 14  1  0  0  0  0
  5  6  1  0  0  0  0
  5 13  1  1  0  0  0
  6  7  1  0  0  0  0
  6 15  1  6  0  0  0
  7  8  1  0  0  0  0
  7 11  1  6  0  0  0
  8 14  1  0  0  0  0
  8 16  1  6  0  0  0
  9 11  1  0  0  0  0
 17 16  1  6  0  0  0
 17 18  1  0  0  0  0
 17 24  1  0  0  0  0
 18 19  1  0  0  0  0
 18 25  1  6  0  0  0
 19 20  1  0  0  0  0
 19 26  1  1  0  0  0
 20 21  1  0  0  0  0
 20 23  1  6  0  0  0
 21 22  1  1  0  0  0
 21 24  1  0  0  0  0
 22 27  1  0  0  0  0
 28 12  1  1  0  0  0
 28 29  1  0  0  0  0
 28 33  1  0  0  0  0
 29 30  1  0  0  0  0
 29 36  1  6  0  0  0
 30 31  1  0  0  0  0
 30 37  1  1  0  0  0
 31 32  1  0  0  0  0
 31 34  1  6  0  0  0
 32 33  1  0  0  0  0
 33 35  1  6  0  0  0
M  END
>  <CHROM.1>
-170.39986215,-82.62094973,175.99927433,-174.40395539,61.65606338,78.27337066
18.80821772,-4.51030296,45.31130046,0.43521326,-0.60985073,0.67209107

>  <Name>
2oe5_lig

>  <RI>
0

>  <Rbt.Current_Directory>
/home/itssahil/PROJECTS/Mol_Feturizer/New_Systems/rnas/2oe5

>  <Rbt.Executable>
rbdock ($Id: //depot/dev/client3/rdock/2013.1/src/exe/rbdock.cxx#4 $)

>  <Rbt.Library>
libRbt.so (2013.1, Build901 2013/11/27)

>  <Rbt.Parameter_File>
/export/apps/rDock/src/rDock_2013.1_src/data/scripts/dock_solv.prm

>  <Rbt.Receptor>
prm/blind_docking_80.prm

>  <SCORE>
-22.1016

>  <SCORE.INTER>
-16.5748

>  <SCORE.INTER.CONST>
1

>  <SCORE.INTER.POLAR>
-1.88325

>  <SCORE.INTER.ROT>
6

>  <SCORE.INTER.SOLV>
14.1641

>  <SCORE.INTER.VDW>
-17.0937

>  <SCORE.INTER.norm>
-0.447967

>  <SCORE.INTRA>
-5.52684

>  <SCORE.INTRA.DIHEDRAL>
-13.5329

>  <SCORE.INTRA.DIHEDRAL.0>
16.2083

>  <SCORE.INTRA.POLAR>
0

>  <SCORE.INTRA.POLAR.0>
0

>  <SCORE.INTRA.REPUL>
0

>  <SCORE.INTRA.REPUL.0>
0

>  <SCORE.INTRA.SOLV>
-1.71081

>  <SCORE.INTRA.SOLV.lig_0>
-89.8095

>  <SCORE.INTRA.VDW>
2.095

>  <SCORE.INTRA.VDW.0>
-3.19502

>  <SCORE.INTRA.norm>
-0.149374

>  <SCORE.RESTR>
0

>  <SCORE.RESTR.CAVITY>
0

>  <SCORE.RESTR.norm>
0

>  <SCORE.SYSTEM>
0

>  <SCORE.SYSTEM.CONST>
0

>  <SCORE.SYSTEM.DIHEDRAL>
0

>  <SCORE.SYSTEM.SOLV>
0

>  <SCORE.SYSTEM.norm>
0

>  <SCORE.heavy>
37

>  <SCORE.norm>
-0.597341

>  <RMSD>
8.854

$$$$
2oe5_lig
 OpenBabel11021811463D
libRbt.so/2013.1/901 2013/11/27
 37 40  0  0  0  0  0  0  0  0999 V2000
   20.3557   -4.6426   47.4891 C   0  0  1  0  0  0  0  0  0  0  0  0
   21.0923   -5.0449   46.1919 C   0  0  1  0  0  0  0  0  0  0  0  0
   20.5669   -4.1607   45.0006 C   0  0  0  0  0  0  0  0  0  0  0  0
   19.0493   -4.4409   44.9230 C   0  0  1  0  0  0  0  0  0  0  0  0
   18.3075   -4.0250   46.2695 C   0  0  1  0  0  0  0  0  0  0  0  0
   16.7786   -4.2920   46.2098 C   0  0  1  0  0  0  0  0  0  0  0  0
   16.2225   -3.4631   45.0171 C   0  0  1  0  0  0  0  0  0  0  0  0
   17.0126   -3.8727   43.7167 C   0  0  2  0  0  0  0  0  0  0  0  0
   13.8606   -2.6689   44.2088 C   0  0  0  0  0  0  0  0  0  0  0  0
   22.5501   -4.8389   46.3531 N   0  0  0  0  0  0  0  0  0  0  0  0
   14.7395   -3.7057   44.8540 N   0  0  0  0  0  0  0  0  0  0  0  0
   20.6243   -3.2804   47.8594 O   0  0  0  0  0  0  0  0  0  0  0  0
   18.8975   -4.7910   47.3692 O   0  0  0  0  0  0  0  0  0  0  0  0
   18.4684   -3.6650   43.8408 O   0  0  0  0  0  0  0  0  0  0  0  0
   16.5836   -5.6966   46.0168 O   0  0  0  0  0  0  0  0  0  0  0  0
   16.5769   -3.0929   42.6206 O   0  0  0  0  0  0  0  0  0  0  0  0
   16.4426   -3.9027   41.4677 C   0  0  2  0  0  0  0  0  0  0  0  0
   16.8778   -3.1775   40.1949 C   0  0  1  0  0  0  0  0  0  0  0  0
   15.9605   -1.9585   39.9022 C   0  0  2  0  0  0  0  0  0  0  0  0
   14.4985   -2.4857   39.7999 C   0  0  1  0  0  0  0  0  0  0  0  0
   14.1299   -3.1674   41.1585 C   0  0  1  0  0  0  0  0  0  0  0  0
   12.7408   -3.7658   41.1556 C   0  0  0  0  0  0  0  0  0  0  0  0
   13.5975   -1.3069   39.5122 N   0  0  0  0  0  0  0  0  0  0  0  0
   15.0408   -4.3019   41.3526 O   0  0  0  0  0  0  0  0  0  0  0  0
   18.2443   -2.7580   40.3808 O   0  0  0  0  0  0  0  0  0  0  0  0
   16.3587   -1.3936   38.6399 O   0  0  0  0  0  0  0  0  0  0  0  0
   12.6116   -4.7749   40.2135 O   0  0  0  0  0  0  0  0  0  0  0  0
   20.6343   -3.0485   49.2683 C   0  0  1  0  0  0  0  0  0  0  0  0
   21.8543   -2.1360   49.6502 C   0  0  1  0  0  0  0  0  0  0  0  0
   21.8361   -1.8845   51.2010 C   0  0  2  0  0  0  0  0  0  0  0  0
   20.5284   -1.1762   51.5855 C   0  0  1  0  0  0  0  0  0  0  0  0
   19.3048   -2.0999   51.2144 C   0  0  0  0  0  0  0  0  0  0  0  0
   19.3295   -2.3671   49.6579 C   0  0  2  0  0  0  0  0  0  0  0  0
   20.5324   -0.9327   53.0186 N   0  0  0  0  0  0  0  0  0  0  0  0
   18.2018   -3.2544   49.2695 N   0  0  0  0  0  0  0  0  0  0  0  0
   23.0968   -2.8035   49.2868 O   0  0  0  0  0  0  0  0  0  0  0  0
   22.9139   -1.0545   51.5441 O   0  0  0  0  0  0  0  0  0  0  0  0
  1  2  1  0  0  0  0
  1 12  1  6  0  0  0
  1 13  1  0  0  0  0
  2  3  1  0  0  0  0
  2 10  1  1  0  0  0
  4  3  1  1  0  0  0
  4  5  1  0  0  0  0
  4 14  1  0  0  0  0
  5  6  1  0  0  0  0
  5 13  1  1  0  0  0
  6  7  1  0  0  0  0
  6 15  1  6  0  0  0
  7  8  1  0  0  0  0
  7 11  1  6  0  0  0
  8 14  1  0  0  0  0
  8 16  1  6  0  0  0
  9 11  1  0  0  0  0
 17 16  1  1  0  0  0
 17 18  1  0  0  0  0
 17 24  1  0  0  0  0
 18 19  1  0  0  0  0
 18 25  1  1  0  0  0
 19 20  1  0  0  0  0
 19 26  1  6  0  0  0
 20 21  1  0  0  0  0
 20 23  1  1  0  0  0
 21 22  1  6  0  0  0
 21 24  1  0  0  0  0
 22 27  1  0  0  0  0
 28 12  1  6  0  0  0
 28 29  1  0  0  0  0
 28 33  1  0  0  0  0
 29 30  1  0  0  0  0
 29 36  1  1  0  0  0
 30 31  1  0  0  0  0
 30 37  1  6  0  0  0
 31 32  1  0  0  0  0
 31 34  1  1  0  0  0
 32 33  1  0  0  0  0
 33 35  1  1  0  0  0
M  END
>  <CHROM.1>
-147.57844681,154.41687104,-137.99557580,-142.46941282,62.39087212,136.21777120
17.99922984,-3.23439877,45.29136212,-0.98732250,0.03754181,-1.66108539

>  <Name>
2oe5_lig

>  <RI>
0

>  <Rbt.Current_Directory>
/home/itssahil/PROJECTS/Mol_Feturizer/New_Systems/rnas/2oe5

>  <Rbt.Executable>
rbdock ($Id: //depot/dev/client3/rdock/2013.1/src/exe/rbdock.cxx#4 $)

>  <Rbt.Library>
libRbt.so (2013.1, Build901 2013/11/27)

>  <Rbt.Parameter_File>
/export/apps/rDock/src/rDock_2013.1_src/data/scripts/dock_solv.prm

>  <Rbt.Receptor>
prm/blind_docking_80.prm

>  <SCORE>
-10.3755

>  <SCORE.INTER>
-13.4404

>  <SCORE.INTER.CONST>
1

>  <SCORE.INTER.POLAR>
-1.67568

>  <SCORE.INTER.ROT>
6

>  <SCORE.INTER.SOLV>
16.2283

>  <SCORE.INTER.VDW>
-16.3841

>  <SCORE.INTER.norm>
-0.363254

>  <SCORE.INTRA>
3.05343

>  <SCORE.INTRA.DIHEDRAL>
4.99923

>  <SCORE.INTRA.DIHEDRAL.0>
16.2083

>  <SCORE.INTRA.POLAR>
0

>  <SCORE.INTRA.POLAR.0>
0

>  <SCORE.INTRA.REPUL>
0

>  <SCORE.INTRA.REPUL.0>
0

>  <SCORE.INTRA.SOLV>
1.47242

>  <SCORE.INTRA.SOLV.lig_0>
-89.8095

>  <SCORE.INTRA.VDW>
-0.182391

>  <SCORE.INTRA.VDW.0>
-3.19502

>  <SCORE.INTRA.norm>
0.0825253

>  <SCORE.RESTR>
0.0115105

>  <SCORE.RESTR.CAVITY>
0.0115105

>  <SCORE.RESTR.norm>
0.000311094

>  <SCORE.SYSTEM>
0

>  <SCORE.SYSTEM.CONST>
0

>  <SCORE.SYSTEM.DIHEDRAL>
0

>  <SCORE.SYSTEM.SOLV>
0

>  <SCORE.SYSTEM.norm>
0

>  <SCORE.heavy>
37

>  <SCORE.norm>
-0.280418

>  <RMSD>
8.901

$$$$
2oe5_lig
 OpenBabel11021811463D
libRbt.so/2013.1/901 2013/11/27
 37 40  0  0  0  0  0  0  0  0999 V2000
   19.7671   -5.8162   47.2212 C   0  0  1  0  0  0  0  0  0  0  0  0
   19.7794   -4.4961   46.4184 C   0  0  1  0  0  0  0  0  0  0  0  0
   18.3110   -3.9399   46.3107 C   0  0  0  0  0  0  0  0  0  0  0  0
   17.5055   -5.0500   45.5993 C   0  0  1  0  0  0  0  0  0  0  0  0
   17.5076   -6.4039   46.4379 C   0  0  1  0  0  0  0  0  0  0  0  0
   16.6965   -7.5317   45.7434 C   0  0  1  0  0  0  0  0  0  0  0  0
   15.2414   -7.0070   45.5822 C   0  0  1  0  0  0  0  0  0  0  0  0
   15.2892   -5.6469   44.7879 C   0  0  2  0  0  0  0  0  0  0  0  0
   12.8983   -8.0550   45.0586 C   0  0  0  0  0  0  0  0  0  0  0  0
   20.6360   -3.4979   47.0992 N   0  0  0  0  0  0  0  0  0  0  0  0
   14.3900   -8.0290   44.8643 N   0  0  0  0  0  0  0  0  0  0  0  0
   19.3186   -5.6195   48.5722 O   0  0  0  0  0  0  0  0  0  0  0  0
   18.8977   -6.8315   46.6080 O   0  0  0  0  0  0  0  0  0  0  0  0
   16.1242   -4.6255   45.4492 O   0  0  0  0  0  0  0  0  0  0  0  0
   17.3078   -7.7987   44.4772 O   0  0  0  0  0  0  0  0  0  0  0  0
   13.9875   -5.1062   44.6763 O   0  0  0  0  0  0  0  0  0  0  0  0
   14.0231   -3.8935   43.9475 C   0  0  2  0  0  0  0  0  0  0  0  0
   12.6363   -3.4599   43.4738 C   0  0  1  0  0  0  0  0  0  0  0  0
   12.0426   -4.4823   42.4662 C   0  0  2  0  0  0  0  0  0  0  0  0
   13.0469   -4.6118   41.2828 C   0  0  1  0  0  0  0  0  0  0  0  0
   14.4165   -5.1023   41.8572 C   0  0  1  0  0  0  0  0  0  0  0  0
   15.4896   -5.2146   40.7973 C   0  0  0  0  0  0  0  0  0  0  0  0
   12.4767   -5.6029   40.2945 N   0  0  0  0  0  0  0  0  0  0  0  0
   14.9015   -4.0815   42.7938 O   0  0  0  0  0  0  0  0  0  0  0  0
   11.7972   -3.3427   44.6399 O   0  0  0  0  0  0  0  0  0  0  0  0
   10.7929   -3.9575   41.9826 O   0  0  0  0  0  0  0  0  0  0  0  0
   16.7138   -5.5832   41.3342 O   0  0  0  0  0  0  0  0  0  0  0  0
   20.1599   -4.7668   49.3492 C   0  0  1  0  0  0  0  0  0  0  0  0
   19.3754   -4.2441   50.6055 C   0  0  1  0  0  0  0  0  0  0  0  0
   20.3246   -3.3203   51.4504 C   0  0  2  0  0  0  0  0  0  0  0  0
   21.5448   -4.1317   51.9115 C   0  0  1  0  0  0  0  0  0  0  0  0
   22.3395   -4.6438   50.6488 C   0  0  0  0  0  0  0  0  0  0  0  0
   21.3827   -5.5604   49.7894 C   0  0  2  0  0  0  0  0  0  0  0  0
   22.4048   -3.2713   52.7072 N   0  0  0  0  0  0  0  0  0  0  0  0
   22.0890   -6.0470   48.5752 N   0  0  0  0  0  0  0  0  0  0  0  0
   18.2168   -3.4745   50.1731 O   0  0  0  0  0  0  0  0  0  0  0  0
   19.6334   -2.8659   52.5837 O   0  0  0  0  0  0  0  0  0  0  0  0
  1  2  1  0  0  0  0
  1 12  1  1  0  0  0
  1 13  1  0  0  0  0
  2  3  1  0  0  0  0
  2 10  1  1  0  0  0
  4  3  1  1  0  0  0
  4  5  1  0  0  0  0
  4 14  1  0  0  0  0
  5  6  1  0  0  0  0
  5 13  1  6  0  0  0
  6  7  1  0  0  0  0
  6 15  1  6  0  0  0
  7  8  1  0  0  0  0
  7 11  1  6  0  0  0
  8 14  1  0  0  0  0
  8 16  1  1  0  0  0
  9 11  1  0  0  0  0
 17 16  1  6  0  0  0
 17 18  1  0  0  0  0
 17 24  1  0  0  0  0
 18 19  1  0  0  0  0
 18 25  1  1  0  0  0
 19 20  1  0  0  0  0
 19 26  1  6  0  0  0
 20 21  1  0  0  0  0
 20 23  1  6  0  0  0
 21 22  1  6  0  0  0
 21 24  1  0  0  0  0
 22 27  1  0  0  0  0
 28 12  1  1  0  0  0
 28 29  1  0  0  0  0
 28 33  1  0  0  0  0
 29 30  1  0  0  0  0
 29 36  1  6  0  0  0
 30 31  1  0  0  0  0
 30 37  1  1  0  0  0
 31 32  1  0  0  0  0
 31 34  1  1  0  0  0
 32 33  1  0  0  0  0
 33 35  1  6  0  0  0
M  END
>  <CHROM.1>
-62.90197522,154.98345694,-179.20058264,164.65333444,176.86745643,161.61971826
16.96595031,-5.05487791,46.12544049,-0.70015923,0.45195761,-2.14442970

>  <Name>
2oe5_lig

>  <RI>
0

>  <Rbt.Current_Directory>
/home/itssahil/PROJECTS/Mol_Feturizer/New_Systems/rnas/2oe5

>  <Rbt.Executable>
rbdock ($Id: //depot/dev/client3/rdock/2013.1/src/exe/rbdock.cxx#4 $)

>  <Rbt.Library>
libRbt.so (2013.1, Build901 2013/11/27)

>  <Rbt.Parameter_File>
/export/apps/rDock/src/rDock_2013.1_src/data/scripts/dock_solv.prm

>  <Rbt.Receptor>
prm/blind_docking_80.prm

>  <SCORE>
-16.9401

>  <SCORE.INTER>
-14.9452

>  <SCORE.INTER.CONST>
1

>  <SCORE.INTER.POLAR>
-2.03456

>  <SCORE.INTER.ROT>
6

>  <SCORE.INTER.SOLV>
8.46927

>  <SCORE.INTER.VDW>
-13.6047

>  <SCORE.INTER.norm>
-0.403924

>  <SCORE.INTRA>
-2.00716

>  <SCORE.INTRA.DIHEDRAL>
-12.9428

>  <SCORE.INTRA.DIHEDRAL.0>
16.2083

>  <SCORE.INTRA.POLAR>
0

>  <SCORE.INTRA.POLAR.0>
0

>  <SCORE.INTRA.REPUL>
0.0131268

>  <SCORE.INTRA.REPUL.0>
0

>  <SCORE.INTRA.SOLV>
2.40462

>  <SCORE.INTRA.SOLV.lig_0>
-89.8095

>  <SCORE.INTRA.VDW>
3.19629

>  <SCORE.INTRA.VDW.0>
-3.19502

>  <SCORE.INTRA.norm>
-0.0542477

>  <SCORE.RESTR>
0.0121965

>  <SCORE.RESTR.CAVITY>
0.0121965

>  <SCORE.RESTR.norm>
0.000329636

>  <SCORE.SYSTEM>
0

>  <SCORE.SYSTEM.CONST>
0

>  <SCORE.SYSTEM.DIHEDRAL>
0

>  <SCORE.SYSTEM.SOLV>
0

>  <SCORE.SYSTEM.norm>
0

>  <SCORE.heavy>
37

>  <SCORE.norm>
-0.457842

>  <RMSD>
8.964

$$$$
2oe5_lig
 OpenBabel11021811463D
libRbt.so/2013.1/901 2013/11/27
 37 40  0  0  0  0  0  0  0  0999 V2000
   21.7288   -5.1646   51.0109 C   0  0  1  0  0  0  0  0  0  0  0  0
   20.2046   -5.0657   51.2439 C   0  0  1  0  0  0  0  0  0  0  0  0
   19.7889   -3.5499   51.3257 C   0  0  0  0  0  0  0  0  0  0  0  0
   20.6002   -2.9674   52.5046 C   0  0  1  0  0  0  0  0  0  0  0  0
   22.1681   -3.0821   52.2498 C   0  0  1  0  0  0  0  0  0  0  0  0
   23.0027   -2.4952   53.4207 C   0  0  1  0  0  0  0  0  0  0  0  0
   22.5936   -1.0014   53.5616 C   0  0  1  0  0  0  0  0  0  0  0  0
   21.0328   -0.9313   53.7670 C   0  0  2  0  0  0  0  0  0  0  0  0
   24.8065   -0.1064   54.6409 C   0  0  0  0  0  0  0  0  0  0  0  0
   19.4790   -5.7164   50.1287 N   0  0  0  0  0  0  0  0  0  0  0  0
   23.3259   -0.3623   54.7191 N   0  0  0  0  0  0  0  0  0  0  0  0
   22.1203   -4.5792   49.7584 O   0  0  0  0  0  0  0  0  0  0  0  0
   22.4977   -4.4979   52.0725 O   0  0  0  0  0  0  0  0  0  0  0  0
   20.2804   -1.5592   52.6636 O   0  0  0  0  0  0  0  0  0  0  0  0
   22.6937   -3.2438   54.6008 O   0  0  0  0  0  0  0  0  0  0  0  0
   20.6145    0.4175   53.8361 O   0  0  0  0  0  0  0  0  0  0  0  0
   19.2353    0.4859   54.1462 C   0  0  2  0  0  0  0  0  0  0  0  0
   18.5874    1.7707   53.6314 C   0  0  1  0  0  0  0  0  0  0  0  0
   19.1884    3.0211   54.3302 C   0  0  2  0  0  0  0  0  0  0  0  0
   18.9872    2.8430   55.8644 C   0  0  1  0  0  0  0  0  0  0  0  0
   19.7204    1.5331   56.3034 C   0  0  1  0  0  0  0  0  0  0  0  0
   19.5474    1.2302   57.7750 C   0  0  0  0  0  0  0  0  0  0  0  0
   19.5663    4.0567   56.5539 N   0  0  0  0  0  0  0  0  0  0  0  0
   19.0912    0.4094   55.5992 O   0  0  0  0  0  0  0  0  0  0  0  0
   18.8047    1.8251   52.2074 O   0  0  0  0  0  0  0  0  0  0  0  0
   18.4596    4.1773   53.8794 O   0  0  0  0  0  0  0  0  0  0  0  0
   20.1265    2.2017   58.5772 O   0  0  0  0  0  0  0  0  0  0  0  0
   23.4023   -5.0001   49.2915 C   0  0  1  0  0  0  0  0  0  0  0  0
   24.5185   -4.5078   50.2808 C   0  0  1  0  0  0  0  0  0  0  0  0
   25.9165   -4.9938   49.7537 C   0  0  2  0  0  0  0  0  0  0  0  0
   25.9301   -6.5287   49.6912 C   0  0  1  0  0  0  0  0  0  0  0  0
   24.8182   -7.0210   48.6865 C   0  0  0  0  0  0  0  0  0  0  0  0
   23.4132   -6.5204   49.2058 C   0  0  2  0  0  0  0  0  0  0  0  0
   27.2341   -6.9658   49.2204 N   0  0  0  0  0  0  0  0  0  0  0  0
   22.3374   -6.9460   48.2723 N   0  0  0  0  0  0  0  0  0  0  0  0
   24.5088   -3.0526   50.3438 O   0  0  0  0  0  0  0  0  0  0  0  0
   26.9149   -4.5719   50.6444 O   0  0  0  0  0  0  0  0  0  0  0  0
  1  2  1  0  0  0  0
  1 12  1  6  0  0  0
  1 13  1  0  0  0  0
  2  3  1  0  0  0  0
  2 10  1  6  0  0  0
  4  3  1  6  0  0  0
  4  5  1  0  0  0  0
  4 14  1  0  0  0  0
  5  6  1  0  0  0  0
  5 13  1  1  0  0  0
  6  7  1  0  0  0  0
  6 15  1  1  0  0  0
  7  8  1  0  0  0  0
  7 11  1  1  0  0  0
  8 14  1  0  0  0  0
  8 16  1  6  0  0  0
  9 11  1  0  0  0  0
 17 16  1  1  0  0  0
 17 18  1  0  0  0  0
 17 24  1  0  0  0  0
 18 19  1  0  0  0  0
 18 25  1  6  0  0  0
 19 20  1  0  0  0  0
 19 26  1  6  0  0  0
 20 21  1  0  0  0  0
 20 23  1  1  0  0  0
 21 22  1  1  0  0  0
 21 24  1  0  0  0  0
 22 27  1  0  0  0  0
 28 12  1  1  0  0  0
 28 29  1  0  0  0  0
 28 33  1  0  0  0  0
 29 30  1  0  0  0  0
 29 36  1  6  0  0  0
 30 31  1  0  0  0  0
 30 37  1  1  0  0  0
 31 32  1  0  0  0  0
 31 34  1  6  0  0  0
 32 33  1  0  0  0  0
 33 35  1  6  0  0  0
M  END
>  <CHROM.1>
-161.15656509,69.90459702,-174.49094247,-153.93092074,-64.07042439,-64.69117818
21.80978114,-2.01721541,52.62095347,1.10748452,0.21389322,-2.40136405

>  <Name>
2oe5_lig

>  <RI>
0

>  <Rbt.Current_Directory>
/home/itssahil/PROJECTS/Mol_Feturizer/New_Systems/rnas/2oe5

>  <Rbt.Executable>
rbdock ($Id: //depot/dev/client3/rdock/2013.1/src/exe/rbdock.cxx#4 $)

>  <Rbt.Library>
libRbt.so (2013.1, Build901 2013/11/27)

>  <Rbt.Parameter_File>
/export/apps/rDock/src/rDock_2013.1_src/data/scripts/dock_solv.prm

>  <Rbt.Receptor>
prm/pocket_docking_8.prm

>  <SCORE>
-18.8914

>  <SCORE.INTER>
-15.2016

>  <SCORE.INTER.CONST>
1

>  <SCORE.INTER.POLAR>
-0.0134024

>  <SCORE.INTER.ROT>
6

>  <SCORE.INTER.SOLV>
9.99482

>  <SCORE.INTER.VDW>
-21.0213

>  <SCORE.INTER.norm>
-0.410853

>  <SCORE.INTRA>
-3.68985

>  <SCORE.INTRA.DIHEDRAL>
-11.2596

>  <SCORE.INTRA.DIHEDRAL.0>
16.2083

>  <SCORE.INTRA.POLAR>
0

>  <SCORE.INTRA.POLAR.0>
0

>  <SCORE.INTRA.REPUL>
0

>  <SCORE.INTRA.REPUL.0>
0

>  <SCORE.INTRA.SOLV>
-0.0620684

>  <SCORE.INTRA.SOLV.lig_0>
-89.8095

>  <SCORE.INTRA.VDW>
1.971

>  <SCORE.INTRA.VDW.0>
-3.19502

>  <SCORE.INTRA.norm>
-0.0997257

>  <SCORE.RESTR>
0

>  <SCORE.RESTR.CAVITY>
0

>  <SCORE.RESTR.norm>
0

>  <SCORE.SYSTEM>
0

>  <SCORE.SYSTEM.CONST>
0

>  <SCORE.SYSTEM.DIHEDRAL>
0

>  <SCORE.SYSTEM.SOLV>
0

>  <SCORE.SYSTEM.norm>
0

>  <SCORE.heavy>
37

>  <SCORE.norm>
-0.510579

>  <RMSD>
9.126

$$$$
2oe5_lig
 OpenBabel11021811463D
libRbt.so/2013.1/901 2013/11/27
 37 40  0  0  0  0  0  0  0  0999 V2000
   20.4734   -3.8317   46.9479 C   0  0  1  0  0  0  0  0  0  0  0  0
   21.3741   -4.0164   45.7061 C   0  0  1  0  0  0  0  0  0  0  0  0
   20.6772   -3.3602   44.4568 C   0  0  0  0  0  0  0  0  0  0  0  0
   19.3244   -4.0926   44.3128 C   0  0  1  0  0  0  0  0  0  0  0  0
   18.4116   -3.8957   45.6029 C   0  0  1  0  0  0  0  0  0  0  0  0
   17.0429   -4.6186   45.4756 C   0  0  1  0  0  0  0  0  0  0  0  0
   16.3337   -4.0246   44.2254 C   0  0  1  0  0  0  0  0  0  0  0  0
   17.2877   -4.1998   42.9835 C   0  0  2  0  0  0  0  0  0  0  0  0
   13.8350   -4.4340   44.8975 C   0  0  0  0  0  0  0  0  0  0  0  0
   22.6877   -3.3711   45.9334 N   0  0  0  0  0  0  0  0  0  0  0  0
   15.0074   -4.7123   43.9965 N   0  0  0  0  0  0  0  0  0  0  0  0
   20.2922   -2.4453   47.2792 O   0  0  0  0  0  0  0  0  0  0  0  0
   19.1395   -4.4215   46.7596 O   0  0  0  0  0  0  0  0  0  0  0  0
   18.6012   -3.5543   43.1735 O   0  0  0  0  0  0  0  0  0  0  0  0
   17.2963   -6.0192   45.3267 O   0  0  0  0  0  0  0  0  0  0  0  0
   16.7022   -3.6136   41.8377 O   0  0  0  0  0  0  0  0  0  0  0  0
   15.6425   -4.4224   41.3626 C   0  0  2  0  0  0  0  0  0  0  0  0
   15.5667   -4.4425   39.8364 C   0  0  1  0  0  0  0  0  0  0  0  0
   15.2402   -3.0324   39.2723 C   0  0  2  0  0  0  0  0  0  0  0  0
   13.8992   -2.5692   39.9149 C   0  0  1  0  0  0  0  0  0  0  0  0
   14.0883   -2.5360   41.4671 C   0  0  1  0  0  0  0  0  0  0  0  0
   12.8253   -2.1471   42.2028 C   0  0  0  0  0  0  0  0  0  0  0  0
   13.5708   -1.1983   39.3700 N   0  0  0  0  0  0  0  0  0  0  0  0
   14.3913   -3.9017   41.9114 O   0  0  0  0  0  0  0  0  0  0  0  0
   16.8390   -4.9092   39.3454 O   0  0  0  0  0  0  0  0  0  0  0  0
   15.0770   -3.1490   37.8472 O   0  0  0  0  0  0  0  0  0  0  0  0
   12.3584   -0.9015   41.8113 O   0  0  0  0  0  0  0  0  0  0  0  0
   20.4139   -2.1562   48.6721 C   0  0  1  0  0  0  0  0  0  0  0  0
   19.3766   -3.0091   49.4867 C   0  0  1  0  0  0  0  0  0  0  0  0
   19.5387   -2.6839   51.0152 C   0  0  2  0  0  0  0  0  0  0  0  0
   20.9625   -3.0468   51.4635 C   0  0  1  0  0  0  0  0  0  0  0  0
   22.0024   -2.1791   50.6548 C   0  0  0  0  0  0  0  0  0  0  0  0
   21.8310   -2.4926   49.1163 C   0  0  2  0  0  0  0  0  0  0  0  0
   21.0935   -2.7591   52.8824 N   0  0  0  0  0  0  0  0  0  0  0  0
   22.7807   -1.6762   48.3153 N   0  0  0  0  0  0  0  0  0  0  0  0
   18.0248   -2.6688   49.0643 O   0  0  0  0  0  0  0  0  0  0  0  0
   18.6264   -3.4576   51.7483 O   0  0  0  0  0  0  0  0  0  0  0  0
  1  2  1  0  0  0  0
  1 12  1  6  0  0  0
  1 13  1  0  0  0  0
  2  3  1  0  0  0  0
  2 10  1  1  0  0  0
  4  3  1  1  0  0  0
  4  5  1  0  0  0  0
  4 14  1  0  0  0  0
  5  6  1  0  0  0  0
  5 13  1  1  0  0  0
  6  7  1  0  0  0  0
  6 15  1  6  0  0  0
  7  8  1  0  0  0  0
  7 11  1  6  0  0  0
  8 14  1  0  0  0  0
  8 16  1  6  0  0  0
  9 11  1  0  0  0  0
 17 16  1  6  0  0  0
 17 18  1  0  0  0  0
 17 24  1  0  0  0  0
 18 19  1  0  0  0  0
 18 25  1  6  0  0  0
 19 20  1  0  0  0  0
 19 26  1  6  0  0  0
 20 21  1  0  0  0  0
 20 23  1  6  0  0  0
 21 22  1  1  0  0  0
 21 24  1  0  0  0  0
 22 27  1  0  0  0  0
 28 12  1  6  0  0  0
 28 29  1  0  0  0  0
 28 33  1  0  0  0  0
 29 30  1  0  0  0  0
 29 36  1  6  0  0  0
 30 31  1  0  0  0  0
 30 37  1  1  0  0  0
 31 32  1  0  0  0  0
 31 34  1  1  0  0  0
 32 33  1  0  0  0  0
 33 35  1  6  0  0  0
M  END
>  <CHROM.1>
-135.68621765,73.25277757,-73.99611251,-142.98762634,-58.47508136,-57.56373264
17.75321290,-3.35635725,44.98062145,-0.98135962,0.10513938,-1.67348181

>  <Name>
2oe5_lig

>  <RI>
0

>  <Rbt.Current_Directory>
/home/itssahil/PROJECTS/Mol_Feturizer/New_Systems/rnas/2oe5

>  <Rbt.Executable>
rbdock ($Id: //depot/dev/client3/rdock/2013.1/src/exe/rbdock.cxx#4 $)

>  <Rbt.Library>
libRbt.so (2013.1, Build901 2013/11/27)

>  <Rbt.Parameter_File>
/export/apps/rDock/src/rDock_2013.1_src/data/scripts/dock_solv.prm

>  <Rbt.Receptor>
prm/blind_docking_80.prm

>  <SCORE>
-15.7089

>  <SCORE.INTER>
-18.5073

>  <SCORE.INTER.CONST>
1

>  <SCORE.INTER.POLAR>
-2.5718

>  <SCORE.INTER.ROT>
6

>  <SCORE.INTER.SOLV>
19.3204

>  <SCORE.INTER.VDW>
-17.8057

>  <SCORE.INTER.norm>
-0.500197

>  <SCORE.INTRA>
2.71719

>  <SCORE.INTRA.DIHEDRAL>
-4.15798

>  <SCORE.INTRA.DIHEDRAL.0>
16.2083

>  <SCORE.INTRA.POLAR>
0

>  <SCORE.INTRA.POLAR.0>
0

>  <SCORE.INTRA.REPUL>
0

>  <SCORE.INTRA.REPUL.0>
0

>  <SCORE.INTRA.SOLV>
3.01818

>  <SCORE.INTRA.SOLV.lig_0>
-89.8095

>  <SCORE.INTRA.VDW>
3.28709

>  <SCORE.INTRA.VDW.0>
-3.19502

>  <SCORE.INTRA.norm>
0.0734376

>  <SCORE.RESTR>
0.0812246

>  <SCORE.RESTR.CAVITY>
0.0812246

>  <SCORE.RESTR.norm>
0.00219526

>  <SCORE.SYSTEM>
0

>  <SCORE.SYSTEM.CONST>
0

>  <SCORE.SYSTEM.DIHEDRAL>
0

>  <SCORE.SYSTEM.SOLV>
0

>  <SCORE.SYSTEM.norm>
0

>  <SCORE.heavy>
37

>  <SCORE.norm>
-0.424564

>  <RMSD>
9.161

$$$$
2oe5_lig
 OpenBabel11021811463D
libRbt.so/2013.1/901 2013/11/27
 37 40  0  0  0  0  0  0  0  0999 V2000
   19.5056   -4.3887   47.3160 C   0  0  1  0  0  0  0  0  0  0  0  0
   20.1952   -4.8718   46.0205 C   0  0  1  0  0  0  0  0  0  0  0  0
   19.6137   -4.0748   44.7943 C   0  0  0  0  0  0  0  0  0  0  0  0
   18.0974   -4.3723   44.7963 C   0  0  1  0  0  0  0  0  0  0  0  0
   17.4044   -3.8723   46.1402 C   0  0  1  0  0  0  0  0  0  0  0  0
   15.8774   -4.1554   46.1596 C   0  0  1  0  0  0  0  0  0  0  0  0
   15.2658   -3.4140   44.9369 C   0  0  1  0  0  0  0  0  0  0  0  0
   16.0088   -3.9042   43.6366 C   0  0  2  0  0  0  0  0  0  0  0  0
   12.8894   -2.7846   44.0317 C   0  0  0  0  0  0  0  0  0  0  0  0
   21.6557   -4.6432   46.1092 N   0  0  0  0  0  0  0  0  0  0  0  0
   13.7804   -3.6794   44.8499 N   0  0  0  0  0  0  0  0  0  0  0  0
   19.7735   -3.0023   47.5827 O   0  0  0  0  0  0  0  0  0  0  0  0
   18.0456   -4.5571   47.2646 O   0  0  0  0  0  0  0  0  0  0  0  0
   17.4660   -3.6764   43.6883 O   0  0  0  0  0  0  0  0  0  0  0  0
   15.6905   -5.5715   46.0697 O   0  0  0  0  0  0  0  0  0  0  0  0
   15.5219   -3.2041   42.5087 O   0  0  0  0  0  0  0  0  0  0  0  0
   15.1573   -4.1148   41.4886 C   0  0  2  0  0  0  0  0  0  0  0  0
   16.3238   -4.4397   40.5563 C   0  0  1  0  0  0  0  0  0  0  0  0
   16.7896   -3.1777   39.7794 C   0  0  2  0  0  0  0  0  0  0  0  0
   15.5590   -2.6260   39.0003 C   0  0  1  0  0  0  0  0  0  0  0  0
   14.4403   -2.2804   40.0372 C   0  0  1  0  0  0  0  0  0  0  0  0
   13.1706   -1.7812   39.3844 C   0  0  0  0  0  0  0  0  0  0  0  0
   16.0027   -1.3986   38.2381 N   0  0  0  0  0  0  0  0  0  0  0  0
   14.0627   -3.5234   40.7205 O   0  0  0  0  0  0  0  0  0  0  0  0
   17.3928   -4.9664   41.3672 O   0  0  0  0  0  0  0  0  0  0  0  0
   17.8100   -3.5791   38.8474 O   0  0  0  0  0  0  0  0  0  0  0  0
   12.6300   -2.7174   38.5161 O   0  0  0  0  0  0  0  0  0  0  0  0
   20.2170   -2.7380   48.9139 C   0  0  1  0  0  0  0  0  0  0  0  0
   21.3188   -1.6187   48.8970 C   0  0  1  0  0  0  0  0  0  0  0  0
   21.7806   -1.3366   50.3719 C   0  0  2  0  0  0  0  0  0  0  0  0
   20.5776   -0.8566   51.1979 C   0  0  1  0  0  0  0  0  0  0  0  0
   19.4781   -1.9873   51.2259 C   0  0  0  0  0  0  0  0  0  0  0  0
   19.0231   -2.2839   49.7428 C   0  0  2  0  0  0  0  0  0  0  0  0
   21.0218   -0.5812   52.5543 N   0  0  0  0  0  0  0  0  0  0  0  0
   18.0003   -3.3625   49.7237 N   0  0  0  0  0  0  0  0  0  0  0  0
   22.4614   -2.0694   48.1141 O   0  0  0  0  0  0  0  0  0  0  0  0
   22.7518   -0.3241   50.3631 O   0  0  0  0  0  0  0  0  0  0  0  0
  1  2  1  0  0  0  0
  1 12  1  6  0  0  0
  1 13  1  0  0  0  0
  2  3  1  0  0  0  0
  2 10  1  1  0  0  0
  4  3  1  1  0  0  0
  4  5  1  0  0  0  0
  4 14  1  0  0  0  0
  5  6  1  0  0  0  0
  5 13  1  1  0  0  0
  6  7  1  0  0  0  0
  6 15  1  6  0  0  0
  7  8  1  0  0  0  0
  7 11  1  6  0  0  0
  8 14  1  0  0  0  0
  8 16  1  6  0  0  0
  9 11  1  0  0  0  0
 17 16  1  1  0  0  0
 17 18  1  0  0  0  0
 17 24  1  0  0  0  0
 18 19  1  0  0  0  0
 18 25  1  1  0  0  0
 19 20  1  0  0  0  0
 19 26  1  6  0  0  0
 20 21  1  0  0  0  0
 20 23  1  1  0  0  0
 21 22  1  6  0  0  0
 21 24  1  0  0  0  0
 22 27  1  0  0  0  0
 28 12  1  6  0  0  0
 28 29  1  0  0  0  0
 28 33  1  0  0  0  0
 29 30  1  0  0  0  0
 29 36  1  6  0  0  0
 30 31  1  0  0  0  0
 30 37  1  6  0  0  0
 31 32  1  0  0  0  0
 31 34  1  1  0  0  0
 32 33  1  0  0  0  0
 33 35  1  1  0  0  0
M  END
>  <CHROM.1>
-130.35171739,161.82944118,-129.03755951,-89.16325390,59.75084752,142.11020753
17.62427336,-3.14075745,44.95129690,-1.02526605,-0.09087945,-1.62429386

>  <Name>
2oe5_lig

>  <RI>
0

>  <Rbt.Current_Directory>
/home/itssahil/PROJECTS/Mol_Feturizer/New_Systems/rnas/2oe5

>  <Rbt.Executable>
rbdock ($Id: //depot/dev/client3/rdock/2013.1/src/exe/rbdock.cxx#4 $)

>  <Rbt.Library>
libRbt.so (2013.1, Build901 2013/11/27)

>  <Rbt.Parameter_File>
/export/apps/rDock/src/rDock_2013.1_src/data/scripts/dock_solv.prm

>  <Rbt.Receptor>
prm/blind_docking_80.prm

>  <SCORE>
-13.1695

>  <SCORE.INTER>
-16.3781

>  <SCORE.INTER.CONST>
1

>  <SCORE.INTER.POLAR>
-1.80187

>  <SCORE.INTER.ROT>
6

>  <SCORE.INTER.SOLV>
12.9326

>  <SCORE.INTER.VDW>
-16.8234

>  <SCORE.INTER.norm>
-0.442652

>  <SCORE.INTRA>
3.20726

>  <SCORE.INTRA.DIHEDRAL>
5.97379

>  <SCORE.INTRA.DIHEDRAL.0>
16.2083

>  <SCORE.INTRA.POLAR>
0

>  <SCORE.INTRA.POLAR.0>
0

>  <SCORE.INTRA.REPUL>
0

>  <SCORE.INTRA.REPUL.0>
0

>  <SCORE.INTRA.SOLV>
1.08519

>  <SCORE.INTRA.SOLV.lig_0>
-89.8095

>  <SCORE.INTRA.VDW>
-0.322229

>  <SCORE.INTRA.VDW.0>
-3.19502

>  <SCORE.INTRA.norm>
0.0866828

>  <SCORE.RESTR>
0.00135984

>  <SCORE.RESTR.CAVITY>
0.00135984

>  <SCORE.RESTR.norm>
3.67525e-05

>  <SCORE.SYSTEM>
0

>  <SCORE.SYSTEM.CONST>
0

>  <SCORE.SYSTEM.DIHEDRAL>
0

>  <SCORE.SYSTEM.SOLV>
0

>  <SCORE.SYSTEM.norm>
0

>  <SCORE.heavy>
37

>  <SCORE.norm>
-0.355933

>  <RMSD>
9.177

$$$$
2oe5_lig
 OpenBabel11021811463D
libRbt.so/2013.1/901 2013/11/27
 37 40  0  0  0  0  0  0  0  0999 V2000
   20.8061   -3.6919   51.0403 C   0  0  1  0  0  0  0  0  0  0  0  0
   19.3525   -3.2293   51.2859 C   0  0  1  0  0  0  0  0  0  0  0  0
   19.3405   -1.6803   51.5647 C   0  0  0  0  0  0  0  0  0  0  0  0
   20.2356   -1.4828   52.8086 C   0  0  1  0  0  0  0  0  0  0  0  0
   21.7280   -1.9692   52.5392 C   0  0  1  0  0  0  0  0  0  0  0  0
   22.6470   -1.7726   53.7757 C   0  0  1  0  0  0  0  0  0  0  0  0
   22.6338   -0.2538   54.1103 C   0  0  1  0  0  0  0  0  0  0  0  0
   21.1383    0.1942   54.3248 C   0  0  2  0  0  0  0  0  0  0  0  0
   24.9545   -0.2109   55.3250 C   0  0  0  0  0  0  0  0  0  0  0  0
   18.5204   -3.5224   50.0962 N   0  0  0  0  0  0  0  0  0  0  0  0
   23.4679    0.0212   55.3404 N   0  0  0  0  0  0  0  0  0  0  0  0
   21.3766   -3.0758   49.8742 O   0  0  0  0  0  0  0  0  0  0  0  0
   21.6860   -3.3879   52.1788 O   0  0  0  0  0  0  0  0  0  0  0  0
   20.2858   -0.0716   53.1499 O   0  0  0  0  0  0  0  0  0  0  0  0
   22.1164   -2.5572   54.8486 O   0  0  0  0  0  0  0  0  0  0  0  0
   21.0809    1.5857   54.5695 O   0  0  0  0  0  0  0  0  0  0  0  0
   19.7506    1.9777   54.8512 C   0  0  2  0  0  0  0  0  0  0  0  0
   19.6218    3.4859   55.0613 C   0  0  1  0  0  0  0  0  0  0  0  0
   20.4187    3.9481   56.3121 C   0  0  2  0  0  0  0  0  0  0  0  0
   19.8830    3.1433   57.5332 C   0  0  1  0  0  0  0  0  0  0  0  0
   20.0989    1.6210   57.2463 C   0  0  1  0  0  0  0  0  0  0  0  0
   19.5648    0.7355   58.3501 C   0  0  0  0  0  0  0  0  0  0  0  0
   20.6505    3.5881   58.7568 N   0  0  0  0  0  0  0  0  0  0  0  0
   19.3139    1.2733   56.0558 O   0  0  0  0  0  0  0  0  0  0  0  0
   20.1147    4.1328   53.8713 O   0  0  0  0  0  0  0  0  0  0  0  0
   20.1640    5.3507   56.5099 O   0  0  0  0  0  0  0  0  0  0  0  0
   20.2495    0.9201   59.5416 O   0  0  0  0  0  0  0  0  0  0  0  0
   22.5900   -3.6814   49.4273 C   0  0  1  0  0  0  0  0  0  0  0  0
   23.7282   -3.4368   50.4816 C   0  0  1  0  0  0  0  0  0  0  0  0
   25.0477   -4.1228   49.9747 C   0  0  2  0  0  0  0  0  0  0  0  0
   24.8088   -5.6326   49.8219 C   0  0  1  0  0  0  0  0  0  0  0  0
   23.6754   -5.8770   48.7523 C   0  0  0  0  0  0  0  0  0  0  0  0
   22.3518   -5.1751   49.2521 C   0  0  2  0  0  0  0  0  0  0  0  0
   26.0413   -6.2576   49.3709 N   0  0  0  0  0  0  0  0  0  0  0  0
   21.2620   -5.3638   48.2588 N   0  0  0  0  0  0  0  0  0  0  0  0
   23.9577   -2.0061   50.6302 O   0  0  0  0  0  0  0  0  0  0  0  0
   26.0625   -3.9225   50.9225 O   0  0  0  0  0  0  0  0  0  0  0  0
  1  2  1  0  0  0  0
  1 12  1  6  0  0  0
  1 13  1  0  0  0  0
  2  3  1  0  0  0  0
  2 10  1  6  0  0  0
  4  3  1  6  0  0  0
  4  5  1  0  0  0  0
  4 14  1  0  0  0  0
  5  6  1  0  0  0  0
  5 13  1  1  0  0  0
  6  7  1  0  0  0  0
  6 15  1  1  0  0  0
  7  8  1  0  0  0  0
  7 11  1  1  0  0  0
  8 14  1  0  0  0  0
  8 16  1  6  0  0  0
  9 11  1  0  0  0  0
 17 16  1  1  0  0  0
 17 18  1  0  0  0  0
 17 24  1  0  0  0  0
 18 19  1  0  0  0  0
 18 25  1  6  0  0  0
 19 20  1  0  0  0  0
 19 26  1  1  0  0  0
 20 21  1  0  0  0  0
 20 23  1  1  0  0  0
 21 22  1  1  0  0  0
 21 24  1  0  0  0  0
 22 27  1  0  0  0  0
 28 12  1  1  0  0  0
 28 29  1  0  0  0  0
 28 33  1  0  0  0  0
 29 30  1  0  0  0  0
 29 36  1  6  0  0  0
 30 31  1  0  0  0  0
 30 37  1  1  0  0  0
 31 32  1  0  0  0  0
 31 34  1  6  0  0  0
 32 33  1  0  0  0  0
 33 35  1  6  0  0  0
M  END
>  <CHROM.1>
-166.59710908,65.21106876,-176.09914530,-177.40229684,-64.78302528,-67.43065997
21.64340385,-1.04858668,53.22348430,1.26628335,0.30297807,-2.28347269

>  <Name>
2oe5_lig

>  <RI>
0

>  <Rbt.Current_Directory>
/home/itssahil/PROJECTS/Mol_Feturizer/New_Systems/rnas/2oe5

>  <Rbt.Executable>
rbdock ($Id: //depot/dev/client3/rdock/2013.1/src/exe/rbdock.cxx#4 $)

>  <Rbt.Library>
libRbt.so (2013.1, Build901 2013/11/27)

>  <Rbt.Parameter_File>
/export/apps/rDock/src/rDock_2013.1_src/data/scripts/dock_solv.prm

>  <Rbt.Receptor>
prm/pocket_docking_5.prm

>  <SCORE>
-17.0688

>  <SCORE.INTER>
-12.4673

>  <SCORE.INTER.CONST>
1

>  <SCORE.INTER.POLAR>
-0.802768

>  <SCORE.INTER.ROT>
6

>  <SCORE.INTER.SOLV>
9.007

>  <SCORE.INTER.VDW>
-16.2379

>  <SCORE.INTER.norm>
-0.336953

>  <SCORE.INTRA>
-4.60152

>  <SCORE.INTRA.DIHEDRAL>
-14.7872

>  <SCORE.INTRA.DIHEDRAL.0>
16.2083

>  <SCORE.INTRA.POLAR>
0

>  <SCORE.INTRA.POLAR.0>
0

>  <SCORE.INTRA.REPUL>
0

>  <SCORE.INTRA.REPUL.0>
0

>  <SCORE.INTRA.SOLV>
-0.247479

>  <SCORE.INTRA.SOLV.lig_0>
-89.8095

>  <SCORE.INTRA.VDW>
2.91581

>  <SCORE.INTRA.VDW.0>
-3.19502

>  <SCORE.INTRA.norm>
-0.124365

>  <SCORE.RESTR>
0

>  <SCORE.RESTR.CAVITY>
0

>  <SCORE.RESTR.norm>
0

>  <SCORE.SYSTEM>
0

>  <SCORE.SYSTEM.CONST>
0

>  <SCORE.SYSTEM.DIHEDRAL>
0

>  <SCORE.SYSTEM.SOLV>
0

>  <SCORE.SYSTEM.norm>
0

>  <SCORE.heavy>
37

>  <SCORE.norm>
-0.461318

>  <RMSD>
9.265

$$$$
2oe5_lig
 OpenBabel11021811463D
libRbt.so/2013.1/901 2013/11/27
 37 40  0  0  0  0  0  0  0  0999 V2000
   21.1119   -4.4839   46.5101 C   0  0  1  0  0  0  0  0  0  0  0  0
   21.5979   -4.2290   45.0658 C   0  0  1  0  0  0  0  0  0  0  0  0
   20.3791   -3.7726   44.1806 C   0  0  0  0  0  0  0  0  0  0  0  0
   19.3608   -4.9320   44.2595 C   0  0  1  0  0  0  0  0  0  0  0  0
   18.8748   -5.1837   45.7551 C   0  0  1  0  0  0  0  0  0  0  0  0
   17.8443   -6.3413   45.8558 C   0  0  1  0  0  0  0  0  0  0  0  0
   16.6345   -5.9471   44.9617 C   0  0  1  0  0  0  0  0  0  0  0  0
   17.1650   -5.6641   43.5051 C   0  0  2  0  0  0  0  0  0  0  0  0
   14.1504   -6.7376   45.2213 C   0  0  0  0  0  0  0  0  0  0  0  0
   22.6347   -3.1715   45.0600 N   0  0  0  0  0  0  0  0  0  0  0  0
   15.5994   -7.0485   44.9613 N   0  0  0  0  0  0  0  0  0  0  0  0
   20.6025   -3.2890   47.1247 O   0  0  0  0  0  0  0  0  0  0  0  0
   20.0507   -5.5004   46.5683 O   0  0  0  0  0  0  0  0  0  0  0  0
   18.1903   -4.6034   43.4641 O   0  0  0  0  0  0  0  0  0  0  0  0
   18.4788   -7.5378   45.3931 O   0  0  0  0  0  0  0  0  0  0  0  0
   16.1004   -5.2405   42.6767 O   0  0  0  0  0  0  0  0  0  0  0  0
   16.1016   -5.9742   41.4664 C   0  0  2  0  0  0  0  0  0  0  0  0
   17.0776   -5.3998   40.4402 C   0  0  1  0  0  0  0  0  0  0  0  0
   16.6581   -3.9682   40.0070 C   0  0  2  0  0  0  0  0  0  0  0  0
   15.2079   -4.0542   39.4454 C   0  0  1  0  0  0  0  0  0  0  0  0
   14.2791   -4.6062   40.5762 C   0  0  1  0  0  0  0  0  0  0  0  0
   12.8466   -4.7816   40.1239 C   0  0  0  0  0  0  0  0  0  0  0  0
   14.7911   -2.6658   39.0180 N   0  0  0  0  0  0  0  0  0  0  0  0
   14.7451   -5.9547   40.9210 O   0  0  0  0  0  0  0  0  0  0  0  0
   18.3860   -5.3899   41.0449 O   0  0  0  0  0  0  0  0  0  0  0  0
   17.5534   -3.5369   38.9662 O   0  0  0  0  0  0  0  0  0  0  0  0
   12.7242   -5.7666   39.1557 O   0  0  0  0  0  0  0  0  0  0  0  0
   20.2143   -3.4529   48.4889 C   0  0  1  0  0  0  0  0  0  0  0  0
   21.4890   -3.4876   49.4059 C   0  0  1  0  0  0  0  0  0  0  0  0
   21.0362   -3.6551   50.9010 C   0  0  2  0  0  0  0  0  0  0  0  0
   20.1519   -2.4641   51.3004 C   0  0  1  0  0  0  0  0  0  0  0  0
   18.8653   -2.4390   50.3881 C   0  0  0  0  0  0  0  0  0  0  0  0
   19.3184   -2.2864   48.8829 C   0  0  2  0  0  0  0  0  0  0  0  0
   19.7556   -2.6213   52.6901 N   0  0  0  0  0  0  0  0  0  0  0  0
   18.1328   -2.2807   47.9860 N   0  0  0  0  0  0  0  0  0  0  0  0
   22.3309   -4.6152   49.0303 O   0  0  0  0  0  0  0  0  0  0  0  0
   22.1711   -3.6679   51.7256 O   0  0  0  0  0  0  0  0  0  0  0  0
  1  2  1  0  0  0  0
  1 12  1  6  0  0  0
  1 13  1  0  0  0  0
  2  3  1  0  0  0  0
  2 10  1  1  0  0  0
  4  3  1  1  0  0  0
  4  5  1  0  0  0  0
  4 14  1  0  0  0  0
  5  6  1  0  0  0  0
  5 13  1  1  0  0  0
  6  7  1  0  0  0  0
  6 15  1  6  0  0  0
  7  8  1  0  0  0  0
  7 11  1  6  0  0  0
  8 14  1  0  0  0  0
  8 16  1  6  0  0  0
  9 11  1  0  0  0  0
 17 16  1  1  0  0  0
 17 18  1  0  0  0  0
 17 24  1  0  0  0  0
 18 19  1  0  0  0  0
 18 25  1  1  0  0  0
 19 20  1  0  0  0  0
 19 26  1  6  0  0  0
 20 21  1  0  0  0  0
 20 23  1  1  0  0  0
 21 22  1  6  0  0  0
 21 24  1  0  0  0  0
 22 27  1  0  0  0  0
 28 12  1  6  0  0  0
 28 29  1  0  0  0  0
 28 33  1  0  0  0  0
 29 30  1  0  0  0  0
 29 36  1  6  0  0  0
 30 31  1  0  0  0  0
 30 37  1  1  0  0  0
 31 32  1  0  0  0  0
 31 34  1  1  0  0  0
 32 33  1  0  0  0  0
 33 35  1  6  0  0  0
M  END
>  <CHROM.1>
-176.43280702,130.59406075,-131.08583887,-82.98815513,66.06136722,76.82920464
18.16632720,-4.53296594,44.89700893,-1.01071492,-0.28257733,-1.56162014

>  <Name>
2oe5_lig

>  <RI>
0

>  <Rbt.Current_Directory>
/home/itssahil/PROJECTS/Mol_Feturizer/New_Systems/rnas/2oe5

>  <Rbt.Executable>
rbdock ($Id: //depot/dev/client3/rdock/2013.1/src/exe/rbdock.cxx#4 $)

>  <Rbt.Library>
libRbt.so (2013.1, Build901 2013/11/27)

>  <Rbt.Parameter_File>
/export/apps/rDock/src/rDock_2013.1_src/data/scripts/dock_solv.prm

>  <Rbt.Receptor>
prm/blind_docking_80.prm

>  <SCORE>
-14.9506

>  <SCORE.INTER>
-12.5364

>  <SCORE.INTER.CONST>
1

>  <SCORE.INTER.POLAR>
-1.92436

>  <SCORE.INTER.ROT>
6

>  <SCORE.INTER.SOLV>
21.7137

>  <SCORE.INTER.VDW>
-16.7809

>  <SCORE.INTER.norm>
-0.33882

>  <SCORE.INTRA>
-2.43834

>  <SCORE.INTRA.DIHEDRAL>
-4.64068

>  <SCORE.INTRA.DIHEDRAL.0>
16.2083

>  <SCORE.INTRA.POLAR>
0

>  <SCORE.INTRA.POLAR.0>
0

>  <SCORE.INTRA.REPUL>
0

>  <SCORE.INTRA.REPUL.0>
0

>  <SCORE.INTRA.SOLV>
-1.52603

>  <SCORE.INTRA.SOLV.lig_0>
-89.8095

>  <SCORE.INTRA.VDW>
0.645012

>  <SCORE.INTRA.VDW.0>
-3.19502

>  <SCORE.INTRA.norm>
-0.0659011

>  <SCORE.RESTR>
0.0240765

>  <SCORE.RESTR.CAVITY>
0.0240765

>  <SCORE.RESTR.norm>
0.000650717

>  <SCORE.SYSTEM>
0

>  <SCORE.SYSTEM.CONST>
0

>  <SCORE.SYSTEM.DIHEDRAL>
0

>  <SCORE.SYSTEM.SOLV>
0

>  <SCORE.SYSTEM.norm>
0

>  <SCORE.heavy>
37

>  <SCORE.norm>
-0.404071

>  <RMSD>
9.286

$$$$
2oe5_lig
 OpenBabel11021811463D
libRbt.so/2013.1/901 2013/11/27
 37 40  0  0  0  0  0  0  0  0999 V2000
   21.2210   -4.4042   46.4079 C   0  0  1  0  0  0  0  0  0  0  0  0
   21.7193   -4.1186   44.9735 C   0  0  1  0  0  0  0  0  0  0  0  0
   20.6064   -3.3346   44.1835 C   0  0  0  0  0  0  0  0  0  0  0  0
   19.3675   -4.2578   44.1998 C   0  0  1  0  0  0  0  0  0  0  0  0
   18.8710   -4.5452   45.6855 C   0  0  1  0  0  0  0  0  0  0  0  0
   17.6210   -5.4662   45.7241 C   0  0  1  0  0  0  0  0  0  0  0  0
   16.5035   -4.7436   44.9193 C   0  0  1  0  0  0  0  0  0  0  0  0
   17.0511   -4.4388   43.4734 C   0  0  2  0  0  0  0  0  0  0  0  0
   14.2299   -5.5275   45.9580 C   0  0  0  0  0  0  0  0  0  0  0  0
   22.9563   -3.3055   45.0201 N   0  0  0  0  0  0  0  0  0  0  0  0
   15.2588   -5.5993   44.8626 N   0  0  0  0  0  0  0  0  0  0  0  0
   20.9894   -3.1941   47.1474 O   0  0  0  0  0  0  0  0  0  0  0  0
   19.9700   -5.1774   46.4181 O   0  0  0  0  0  0  0  0  0  0  0  0
   18.2767   -3.6168   43.4857 O   0  0  0  0  0  0  0  0  0  0  0  0
   17.9777   -6.7186   45.1303 O   0  0  0  0  0  0  0  0  0  0  0  0
   16.0830   -3.7244   42.7306 O   0  0  0  0  0  0  0  0  0  0  0  0
   15.6499   -4.4943   41.6248 C   0  0  2  0  0  0  0  0  0  0  0  0
   16.0017   -3.8407   40.2889 C   0  0  1  0  0  0  0  0  0  0  0  0
   15.2593   -2.4875   40.1137 C   0  0  2  0  0  0  0  0  0  0  0  0
   13.7328   -2.7705   40.2383 C   0  0  1  0  0  0  0  0  0  0  0  0
   13.4658   -3.3924   41.6484 C   0  0  1  0  0  0  0  0  0  0  0  0
   12.0138   -3.7580   41.8618 C   0  0  0  0  0  0  0  0  0  0  0  0
   13.0007   -1.4595   40.0663 N   0  0  0  0  0  0  0  0  0  0  0  0
   14.2008   -4.6605   41.7257 O   0  0  0  0  0  0  0  0  0  0  0  0
   17.4300   -3.6492   40.2630 O   0  0  0  0  0  0  0  0  0  0  0  0
   15.5507   -1.9862   38.7965 O   0  0  0  0  0  0  0  0  0  0  0  0
   11.5670   -4.6793   40.9268 O   0  0  0  0  0  0  0  0  0  0  0  0
   20.5132   -3.4036   48.4771 C   0  0  1  0  0  0  0  0  0  0  0  0
   21.7227   -3.4324   49.4787 C   0  0  1  0  0  0  0  0  0  0  0  0
   21.1732   -3.6504   50.9344 C   0  0  2  0  0  0  0  0  0  0  0  0
   20.2336   -2.4919   51.3014 C   0  0  1  0  0  0  0  0  0  0  0  0
   19.0121   -2.4730   50.3035 C   0  0  0  0  0  0  0  0  0  0  0  0
   19.5630   -2.2696   48.8374 C   0  0  2  0  0  0  0  0  0  0  0  0
   19.7473   -2.6955   52.6561 N   0  0  0  0  0  0  0  0  0  0  0  0
   18.4417   -2.2682   47.8613 N   0  0  0  0  0  0  0  0  0  0  0  0
   22.6168   -4.5293   49.1340 O   0  0  0  0  0  0  0  0  0  0  0  0
   22.2491   -3.6583   51.8348 O   0  0  0  0  0  0  0  0  0  0  0  0
  1  2  1  0  0  0  0
  1 12  1  6  0  0  0
  1 13  1  0  0  0  0
  2  3  1  0  0  0  0
  2 10  1  1  0  0  0
  4  3  1  1  0  0  0
  4  5  1  0  0  0  0
  4 14  1  0  0  0  0
  5  6  1  0  0  0  0
  5 13  1  1  0  0  0
  6  7  1  0  0  0  0
  6 15  1  6  0  0  0
  7  8  1  0  0  0  0
  7 11  1  6  0  0  0
  8 14  1  0  0  0  0
  8 16  1  6  0  0  0
  9 11  1  0  0  0  0
 17 16  1  1  0  0  0
 17 18  1  0  0  0  0
 17 24  1  0  0  0  0
 18 19  1  0  0  0  0
 18 25  1  1  0  0  0
 19 20  1  0  0  0  0
 19 26  1  6  0  0  0
 20 21  1  0  0  0  0
 20 23  1  1  0  0  0
 21 22  1  6  0  0  0
 21 24  1  0  0  0  0
 22 27  1  0  0  0  0
 28 12  1  6  0  0  0
 28 29  1  0  0  0  0
 28 33  1  0  0  0  0
 29 30  1  0  0  0  0
 29 36  1  6  0  0  0
 30 31  1  0  0  0  0
 30 37  1  1  0  0  0
 31 32  1  0  0  0  0
 31 34  1  1  0  0  0
 32 33  1  0  0  0  0
 33 35  1  6  0  0  0
M  END
>  <CHROM.1>
179.36221618,87.13529415,-116.04856188,-116.44432249,59.49544530,93.30725373
17.87057333,-3.80840082,45.06614103,-0.90406273,-0.04940004,-1.54228105

>  <Name>
2oe5_lig

>  <RI>
0

>  <Rbt.Current_Directory>
/home/itssahil/PROJECTS/Mol_Feturizer/New_Systems/rnas/2oe5

>  <Rbt.Executable>
rbdock ($Id: //depot/dev/client3/rdock/2013.1/src/exe/rbdock.cxx#4 $)

>  <Rbt.Library>
libRbt.so (2013.1, Build901 2013/11/27)

>  <Rbt.Parameter_File>
/export/apps/rDock/src/rDock_2013.1_src/data/scripts/dock_solv.prm

>  <Rbt.Receptor>
prm/blind_docking_60.prm

>  <SCORE>
-11.7547

>  <SCORE.INTER>
-12.4463

>  <SCORE.INTER.CONST>
1

>  <SCORE.INTER.POLAR>
-1.93008

>  <SCORE.INTER.ROT>
6

>  <SCORE.INTER.SOLV>
22.3032

>  <SCORE.INTER.VDW>
-16.8984

>  <SCORE.INTER.norm>
-0.336388

>  <SCORE.INTRA>
0.691641

>  <SCORE.INTRA.DIHEDRAL>
2.81836

>  <SCORE.INTRA.DIHEDRAL.0>
16.2083

>  <SCORE.INTRA.POLAR>
0

>  <SCORE.INTRA.POLAR.0>
0

>  <SCORE.INTRA.REPUL>
0

>  <SCORE.INTRA.REPUL.0>
0

>  <SCORE.INTRA.SOLV>
-0.0926139

>  <SCORE.INTRA.SOLV.lig_0>
-89.8095

>  <SCORE.INTRA.VDW>
-0.671233

>  <SCORE.INTRA.VDW.0>
-3.19502

>  <SCORE.INTRA.norm>
0.018693

>  <SCORE.RESTR>
0

>  <SCORE.RESTR.CAVITY>
0

>  <SCORE.RESTR.norm>
0

>  <SCORE.SYSTEM>
0

>  <SCORE.SYSTEM.CONST>
0

>  <SCORE.SYSTEM.DIHEDRAL>
0

>  <SCORE.SYSTEM.SOLV>
0

>  <SCORE.SYSTEM.norm>
0

>  <SCORE.heavy>
37

>  <SCORE.norm>
-0.317695

>  <RMSD>
9.288

$$$$
2oe5_lig
 OpenBabel11021811463D
libRbt.so/2013.1/901 2013/11/27
 37 40  0  0  0  0  0  0  0  0999 V2000
   19.3470   -4.4522   49.5363 C   0  0  1  0  0  0  0  0  0  0  0  0
   19.8510   -5.0292   50.8781 C   0  0  1  0  0  0  0  0  0  0  0  0
   19.6621   -3.9523   52.0102 C   0  0  0  0  0  0  0  0  0  0  0  0
   20.4880   -2.7294   51.5519 C   0  0  1  0  0  0  0  0  0  0  0  0
   19.9580   -2.1512   50.1658 C   0  0  1  0  0  0  0  0  0  0  0  0
   20.7706   -0.9159   49.6903 C   0  0  1  0  0  0  0  0  0  0  0  0
   20.6417    0.1638   50.8022 C   0  0  1  0  0  0  0  0  0  0  0  0
   21.1334   -0.4628   52.1619 C   0  0  2  0  0  0  0  0  0  0  0  0
   22.9453    1.3962   50.6081 C   0  0  0  0  0  0  0  0  0  0  0  0
   19.0845   -6.2482   51.2244 N   0  0  0  0  0  0  0  0  0  0  0  0
   21.4499    1.3892   50.4418 N   0  0  0  0  0  0  0  0  0  0  0  0
   17.9409   -4.1583   49.5718 O   0  0  0  0  0  0  0  0  0  0  0  0
   20.0501   -3.2153   49.1640 O   0  0  0  0  0  0  0  0  0  0  0  0
   20.3783   -1.6723   52.5424 O   0  0  0  0  0  0  0  0  0  0  0  0
   22.1288   -1.3268   49.5041 O   0  0  0  0  0  0  0  0  0  0  0  0
   20.9716    0.4713   53.2110 O   0  0  0  0  0  0  0  0  0  0  0  0
   21.5247   -0.0395   54.4094 C   0  0  2  0  0  0  0  0  0  0  0  0
   21.3419    0.9171   55.5871 C   0  0  1  0  0  0  0  0  0  0  0  0
   22.1149    2.2447   55.3569 C   0  0  2  0  0  0  0  0  0  0  0  0
   23.6124    1.8820   55.1296 C   0  0  1  0  0  0  0  0  0  0  0  0
   23.7026    0.9424   53.8825 C   0  0  1  0  0  0  0  0  0  0  0  0
   25.1147    0.4818   53.5972 C   0  0  0  0  0  0  0  0  0  0  0  0
   24.3743    3.1682   54.9073 N   0  0  0  0  0  0  0  0  0  0  0  0
   22.9496   -0.2802   54.1867 O   0  0  0  0  0  0  0  0  0  0  0  0
   19.9289    1.1643   55.7292 O   0  0  0  0  0  0  0  0  0  0  0  0
   21.9880    3.0465   56.5452 O   0  0  0  0  0  0  0  0  0  0  0  0
   25.1816   -0.3203   52.4682 O   0  0  0  0  0  0  0  0  0  0  0  0
   17.2910   -4.2556   48.3042 C   0  0  1  0  0  0  0  0  0  0  0  0
   18.0173   -3.3341   47.2600 C   0  0  1  0  0  0  0  0  0  0  0  0
   17.2933   -3.4683   45.8721 C   0  0  2  0  0  0  0  0  0  0  0  0
   17.3646   -4.9287   45.4011 C   0  0  1  0  0  0  0  0  0  0  0  0
   16.6224   -5.8511   46.4435 C   0  0  0  0  0  0  0  0  0  0  0  0
   17.3387   -5.7062   47.8436 C   0  0  2  0  0  0  0  0  0  0  0  0
   16.7084   -5.0357   44.1085 N   0  0  0  0  0  0  0  0  0  0  0  0
   16.6539   -6.5453   48.8619 N   0  0  0  0  0  0  0  0  0  0  0  0
   17.9527   -1.9480   47.7030 O   0  0  0  0  0  0  0  0  0  0  0  0
   17.9504   -2.6607   44.9317 O   0  0  0  0  0  0  0  0  0  0  0  0
  1  2  1  0  0  0  0
  1 12  1  1  0  0  0
  1 13  1  0  0  0  0
  2  3  1  0  0  0  0
  2 10  1  1  0  0  0
  4  3  1  1  0  0  0
  4  5  1  0  0  0  0
  4 14  1  0  0  0  0
  5  6  1  0  0  0  0
  5 13  1  6  0  0  0
  6  7  1  0  0  0  0
  6 15  1  1  0  0  0
  7  8  1  0  0  0  0
  7 11  1  6  0  0  0
  8 14  1  0  0  0  0
  8 16  1  1  0  0  0
  9 11  1  0  0  0  0
 17 16  1  6  0  0  0
 17 18  1  0  0  0  0
 17 24  1  0  0  0  0
 18 19  1  0  0  0  0
 18 25  1  6  0  0  0
 19 20  1  0  0  0  0
 19 26  1  1  0  0  0
 20 21  1  0  0  0  0
 20 23  1  6  0  0  0
 21 22  1  1  0  0  0
 21 24  1  0  0  0  0
 22 27  1  0  0  0  0
 28 12  1  1  0  0  0
 28 29  1  0  0  0  0
 28 33  1  0  0  0  0
 29 30  1  0  0  0  0
 29 36  1  1  0  0  0
 30 31  1  0  0  0  0
 30 37  1  6  0  0  0
 31 32  1  0  0  0  0
 31 34  1  6  0  0  0
 32 33  1  0  0  0  0
 33 35  1  1  0  0  0
M  END
>  <CHROM.1>
-151.11475438,-77.31876234,-174.60977893,-178.42084658,-178.37400370,-55.33233941
20.34652423,-1.67377766,50.87807595,2.54096492,-0.94850968,-1.38331968

>  <Name>
2oe5_lig

>  <RI>
0

>  <Rbt.Current_Directory>
/home/itssahil/PROJECTS/Mol_Feturizer/New_Systems/rnas/2oe5

>  <Rbt.Executable>
rbdock ($Id: //depot/dev/client3/rdock/2013.1/src/exe/rbdock.cxx#4 $)

>  <Rbt.Library>
libRbt.so (2013.1, Build901 2013/11/27)

>  <Rbt.Parameter_File>
/export/apps/rDock/src/rDock_2013.1_src/data/scripts/dock_solv.prm

>  <Rbt.Receptor>
prm/pocket_docking_6.prm

>  <SCORE>
-16.4602

>  <SCORE.INTER>
-12.5368

>  <SCORE.INTER.CONST>
1

>  <SCORE.INTER.POLAR>
-1.07019

>  <SCORE.INTER.ROT>
6

>  <SCORE.INTER.SOLV>
15.5842

>  <SCORE.INTER.VDW>
-17.5853

>  <SCORE.INTER.norm>
-0.338833

>  <SCORE.INTRA>
-3.92343

>  <SCORE.INTRA.DIHEDRAL>
-12.2659

>  <SCORE.INTRA.DIHEDRAL.0>
16.2083

>  <SCORE.INTRA.POLAR>
0

>  <SCORE.INTRA.POLAR.0>
0

>  <SCORE.INTRA.REPUL>
0.000212201

>  <SCORE.INTRA.REPUL.0>
0

>  <SCORE.INTRA.SOLV>
-0.17517

>  <SCORE.INTRA.SOLV.lig_0>
-89.8095

>  <SCORE.INTRA.VDW>
2.29602

>  <SCORE.INTRA.VDW.0>
-3.19502

>  <SCORE.INTRA.norm>
-0.106039

>  <SCORE.RESTR>
0

>  <SCORE.RESTR.CAVITY>
0

>  <SCORE.RESTR.norm>
0

>  <SCORE.SYSTEM>
0

>  <SCORE.SYSTEM.CONST>
0

>  <SCORE.SYSTEM.DIHEDRAL>
0

>  <SCORE.SYSTEM.SOLV>
0

>  <SCORE.SYSTEM.norm>
0

>  <SCORE.heavy>
37

>  <SCORE.norm>
-0.444872

>  <RMSD>
9.484

$$$$
2oe5_lig
 OpenBabel11021811463D
libRbt.so/2013.1/901 2013/11/27
 37 40  0  0  0  0  0  0  0  0999 V2000
   20.8753   -4.6643   46.4603 C   0  0  1  0  0  0  0  0  0  0  0  0
   21.5552   -4.0187   45.2323 C   0  0  1  0  0  0  0  0  0  0  0  0
   20.4628   -3.3163   44.3432 C   0  0  0  0  0  0  0  0  0  0  0  0
   19.4781   -4.4383   43.9445 C   0  0  1  0  0  0  0  0  0  0  0  0
   18.7907   -5.0953   45.2221 C   0  0  1  0  0  0  0  0  0  0  0  0
   17.7908   -6.2216   44.8428 C   0  0  1  0  0  0  0  0  0  0  0  0
   16.7103   -5.5763   43.9291 C   0  0  1  0  0  0  0  0  0  0  0  0
   17.4353   -4.9008   42.7038 C   0  0  2  0  0  0  0  0  0  0  0  0
   14.5117   -6.9504   44.3045 C   0  0  0  0  0  0  0  0  0  0  0  0
   22.5508   -3.0153   45.6744 N   0  0  0  0  0  0  0  0  0  0  0  0
   15.7187   -6.6202   43.4690 N   0  0  0  0  0  0  0  0  0  0  0  0
   20.2484   -3.6849   47.3045 O   0  0  0  0  0  0  0  0  0  0  0  0
   19.8470   -5.6429   46.0758 O   0  0  0  0  0  0  0  0  0  0  0  0
   18.4244   -3.8844   43.1118 O   0  0  0  0  0  0  0  0  0  0  0  0
   18.5197   -7.2468   44.1604 O   0  0  0  0  0  0  0  0  0  0  0  0
   16.4882   -4.2478   41.8817 O   0  0  0  0  0  0  0  0  0  0  0  0
   15.8059   -5.1919   41.0779 C   0  0  2  0  0  0  0  0  0  0  0  0
   16.4728   -5.3852   39.7165 C   0  0  1  0  0  0  0  0  0  0  0  0
   16.4250   -4.0786   38.8777 C   0  0  2  0  0  0  0  0  0  0  0  0
   14.9299   -3.6648   38.7390 C   0  0  1  0  0  0  0  0  0  0  0  0
   14.3494   -3.4459   40.1748 C   0  0  1  0  0  0  0  0  0  0  0  0
   12.8798   -3.0889   40.1642 C   0  0  0  0  0  0  0  0  0  0  0  0
   14.8721   -2.3951   37.9214 N   0  0  0  0  0  0  0  0  0  0  0  0
   14.4332   -4.7238   40.8921 O   0  0  0  0  0  0  0  0  0  0  0  0
   17.8350   -5.7918   39.9552 O   0  0  0  0  0  0  0  0  0  0  0  0
   16.9689   -4.3639   37.5763 O   0  0  0  0  0  0  0  0  0  0  0  0
   12.6535   -1.8347   39.6177 O   0  0  0  0  0  0  0  0  0  0  0  0
   20.4569   -3.8972   48.7010 C   0  0  1  0  0  0  0  0  0  0  0  0
   21.9375   -3.5360   49.0804 C   0  0  1  0  0  0  0  0  0  0  0  0
   22.1384   -3.7646   50.6218 C   0  0  2  0  0  0  0  0  0  0  0  0
   21.1753   -2.8554   51.3999 C   0  0  1  0  0  0  0  0  0  0  0  0
   19.6885   -3.2290   51.0286 C   0  0  0  0  0  0  0  0  0  0  0  0
   19.4882   -3.0148   49.4767 C   0  0  2  0  0  0  0  0  0  0  0  0
   21.3842   -3.0625   52.8235 N   0  0  0  0  0  0  0  0  0  0  0  0
   18.1020   -3.3781   49.0812 N   0  0  0  0  0  0  0  0  0  0  0  0
   22.8545   -4.3955   48.3442 O   0  0  0  0  0  0  0  0  0  0  0  0
   23.4548   -3.4254   50.9685 O   0  0  0  0  0  0  0  0  0  0  0  0
  1  2  1  0  0  0  0
  1 12  1  6  0  0  0
  1 13  1  0  0  0  0
  2  3  1  0  0  0  0
  2 10  1  1  0  0  0
  4  3  1  1  0  0  0
  4  5  1  0  0  0  0
  4 14  1  0  0  0  0
  5  6  1  0  0  0  0
  5 13  1  1  0  0  0
  6  7  1  0  0  0  0
  6 15  1  6  0  0  0
  7  8  1  0  0  0  0
  7 11  1  6  0  0  0
  8 14  1  0  0  0  0
  8 16  1  6  0  0  0
  9 11  1  0  0  0  0
 17 16  1  1  0  0  0
 17 18  1  0  0  0  0
 17 24  1  0  0  0  0
 18 19  1  0  0  0  0
 18 25  1  1  0  0  0
 19 20  1  0  0  0  0
 19 26  1  6  0  0  0
 20 21  1  0  0  0  0
 20 23  1  6  0  0  0
 21 22  1  6  0  0  0
 21 24  1  0  0  0  0
 22 27  1  0  0  0  0
 28 12  1  6  0  0  0
 28 29  1  0  0  0  0
 28 33  1  0  0  0  0
 29 30  1  0  0  0  0
 29 36  1  6  0  0  0
 30 31  1  0  0  0  0
 30 37  1  1  0  0  0
 31 32  1  0  0  0  0
 31 34  1  1  0  0  0
 32 33  1  0  0  0  0
 33 35  1  6  0  0  0
M  END
>  <CHROM.1>
-137.32644270,87.36711551,-77.95069320,-92.37938631,-68.03369809,72.94198996
18.30162663,-4.28311653,44.52025913,-1.00968517,0.04459128,-1.65228611

>  <Name>
2oe5_lig

>  <RI>
0

>  <Rbt.Current_Directory>
/home/itssahil/PROJECTS/Mol_Feturizer/New_Systems/rnas/2oe5

>  <Rbt.Executable>
rbdock ($Id: //depot/dev/client3/rdock/2013.1/src/exe/rbdock.cxx#4 $)

>  <Rbt.Library>
libRbt.so (2013.1, Build901 2013/11/27)

>  <Rbt.Parameter_File>
/export/apps/rDock/src/rDock_2013.1_src/data/scripts/dock_solv.prm

>  <Rbt.Receptor>
prm/blind_docking_80.prm

>  <SCORE>
-10.5006

>  <SCORE.INTER>
-9.90038

>  <SCORE.INTER.CONST>
1

>  <SCORE.INTER.POLAR>
-0.979796

>  <SCORE.INTER.ROT>
6

>  <SCORE.INTER.SOLV>
14.6588

>  <SCORE.INTER.VDW>
-15.8205

>  <SCORE.INTER.norm>
-0.267578

>  <SCORE.INTRA>
-0.605066

>  <SCORE.INTRA.DIHEDRAL>
-3.31269

>  <SCORE.INTRA.DIHEDRAL.0>
16.2083

>  <SCORE.INTRA.POLAR>
0

>  <SCORE.INTRA.POLAR.0>
0

>  <SCORE.INTRA.REPUL>
0

>  <SCORE.INTRA.REPUL.0>
0

>  <SCORE.INTRA.SOLV>
0.435455

>  <SCORE.INTRA.SOLV.lig_0>
-89.8095

>  <SCORE.INTRA.VDW>
0.833552

>  <SCORE.INTRA.VDW.0>
-3.19502

>  <SCORE.INTRA.norm>
-0.0163531

>  <SCORE.RESTR>
0.00486338

>  <SCORE.RESTR.CAVITY>
0.00486338

>  <SCORE.RESTR.norm>
0.000131443

>  <SCORE.SYSTEM>
0

>  <SCORE.SYSTEM.CONST>
0

>  <SCORE.SYSTEM.DIHEDRAL>
0

>  <SCORE.SYSTEM.SOLV>
0

>  <SCORE.SYSTEM.norm>
0

>  <SCORE.heavy>
37

>  <SCORE.norm>
-0.2838

>  <RMSD>
9.537

$$$$
2oe5_lig
 OpenBabel11021811463D
libRbt.so/2013.1/901 2013/11/27
 37 40  0  0  0  0  0  0  0  0999 V2000
   19.9840   -3.6965   47.9201 C   0  0  1  0  0  0  0  0  0  0  0  0
   18.6779   -2.9599   48.2925 C   0  0  1  0  0  0  0  0  0  0  0  0
   17.4843   -3.5697   47.4676 C   0  0  0  0  0  0  0  0  0  0  0  0
   17.8679   -3.3674   45.9846 C   0  0  1  0  0  0  0  0  0  0  0  0
   19.2182   -4.1290   45.6199 C   0  0  1  0  0  0  0  0  0  0  0  0
   19.6182   -3.9444   44.1306 C   0  0  1  0  0  0  0  0  0  0  0  0
   18.4445   -4.5019   43.2760 C   0  0  1  0  0  0  0  0  0  0  0  0
   17.1235   -3.7544   43.6993 C   0  0  2  0  0  0  0  0  0  0  0  0
   17.8398   -4.9404   40.7651 C   0  0  0  0  0  0  0  0  0  0  0  0
   18.4057   -3.1132   49.7402 N   0  0  0  0  0  0  0  0  0  0  0  0
   18.7302   -4.3142   41.8037 N   0  0  0  0  0  0  0  0  0  0  0  0
   19.9336   -5.0897   48.2686 O   0  0  0  0  0  0  0  0  0  0  0  0
   20.2810   -3.6087   46.4824 O   0  0  0  0  0  0  0  0  0  0  0  0
   16.8166   -3.9007   45.1354 O   0  0  0  0  0  0  0  0  0  0  0  0
   19.8260   -2.5473   43.8998 O   0  0  0  0  0  0  0  0  0  0  0  0
   16.0211   -4.2799   42.9866 O   0  0  0  0  0  0  0  0  0  0  0  0
   15.4071   -3.2630   42.2174 C   0  0  2  0  0  0  0  0  0  0  0  0
   14.5372   -2.3374   43.0673 C   0  0  1  0  0  0  0  0  0  0  0  0
   13.3401   -3.1074   43.6894 C   0  0  2  0  0  0  0  0  0  0  0  0
   12.5362   -3.7488   42.5197 C   0  0  1  0  0  0  0  0  0  0  0  0
   13.4928   -4.7096   41.7400 C   0  0  1  0  0  0  0  0  0  0  0  0
   12.8286   -5.3529   40.5431 C   0  0  0  0  0  0  0  0  0  0  0  0
   11.3666   -4.4986   43.1147 N   0  0  0  0  0  0  0  0  0  0  0  0
   14.5877   -3.9023   41.1889 O   0  0  0  0  0  0  0  0  0  0  0  0
   15.3770   -1.7773   44.0961 O   0  0  0  0  0  0  0  0  0  0  0  0
   12.5096   -2.1572   44.3810 O   0  0  0  0  0  0  0  0  0  0  0  0
   12.3663   -4.4109   39.6366 O   0  0  0  0  0  0  0  0  0  0  0  0
   21.0837   -5.8347   47.8675 C   0  0  1  0  0  0  0  0  0  0  0  0
   22.3415   -5.3496   48.6735 C   0  0  1  0  0  0  0  0  0  0  0  0
   23.5896   -6.1919   48.2249 C   0  0  2  0  0  0  0  0  0  0  0  0
   23.3338   -7.6770   48.5227 C   0  0  1  0  0  0  0  0  0  0  0  0
   22.0790   -8.1664   47.7016 C   0  0  0  0  0  0  0  0  0  0  0  0
   20.8258   -7.3106   48.1395 C   0  0  2  0  0  0  0  0  0  0  0  0
   24.5023   -8.4425   48.1208 N   0  0  0  0  0  0  0  0  0  0  0  0
   19.6236   -7.7269   47.3706 N   0  0  0  0  0  0  0  0  0  0  0  0
   22.5875   -3.9413   48.3946 O   0  0  0  0  0  0  0  0  0  0  0  0
   24.7119   -5.7743   48.9558 O   0  0  0  0  0  0  0  0  0  0  0  0
  1  2  1  0  0  0  0
  1 12  1  6  0  0  0
  1 13  1  0  0  0  0
  2  3  1  0  0  0  0
  2 10  1  1  0  0  0
  4  3  1  1  0  0  0
  4  5  1  0  0  0  0
  4 14  1  0  0  0  0
  5  6  1  0  0  0  0
  5 13  1  1  0  0  0
  6  7  1  0  0  0  0
  6 15  1  6  0  0  0
  7  8  1  0  0  0  0
  7 11  1  6  0  0  0
  8 14  1  0  0  0  0
  8 16  1  6  0  0  0
  9 11  1  0  0  0  0
 17 16  1  1  0  0  0
 17 18  1  0  0  0  0
 17 24  1  0  0  0  0
 18 19  1  0  0  0  0
 18 25  1  1  0  0  0
 19 20  1  0  0  0  0
 19 26  1  6  0  0  0
 20 21  1  0  0  0  0
 20 23  1  1  0  0  0
 21 22  1  6  0  0  0
 21 24  1  0  0  0  0
 22 27  1  0  0  0  0
 28 12  1  1  0  0  0
 28 29  1  0  0  0  0
 28 33  1  0  0  0  0
 29 30  1  0  0  0  0
 29 36  1  6  0  0  0
 30 31  1  0  0  0  0
 30 37  1  1  0  0  0
 31 32  1  0  0  0  0
 31 34  1  6  0  0  0
 32 33  1  0  0  0  0
 33 35  1  6  0  0  0
M  END
>  <CHROM.1>
176.19869928,171.43981174,-119.97025589,-77.17169832,58.98435492,66.49517894
18.06622546,-4.49531769,45.20026892,0.44009648,-0.49930387,1.12652059

>  <Name>
2oe5_lig

>  <RI>
0

>  <Rbt.Current_Directory>
/home/itssahil/PROJECTS/Mol_Feturizer/New_Systems/rnas/2oe5

>  <Rbt.Executable>
rbdock ($Id: //depot/dev/client3/rdock/2013.1/src/exe/rbdock.cxx#4 $)

>  <Rbt.Library>
libRbt.so (2013.1, Build901 2013/11/27)

>  <Rbt.Parameter_File>
/export/apps/rDock/src/rDock_2013.1_src/data/scripts/dock_solv.prm

>  <Rbt.Receptor>
prm/blind_docking_60.prm

>  <SCORE>
-26.6563

>  <SCORE.INTER>
-25.0973

>  <SCORE.INTER.CONST>
1

>  <SCORE.INTER.POLAR>
-2.96923

>  <SCORE.INTER.ROT>
6

>  <SCORE.INTER.SOLV>
15.2471

>  <SCORE.INTER.VDW>
-19.5165

>  <SCORE.INTER.norm>
-0.678305

>  <SCORE.INTRA>
-2.18399

>  <SCORE.INTRA.DIHEDRAL>
-7.26901

>  <SCORE.INTRA.DIHEDRAL.0>
16.2083

>  <SCORE.INTRA.POLAR>
0

>  <SCORE.INTRA.POLAR.0>
0

>  <SCORE.INTRA.REPUL>
0

>  <SCORE.INTRA.REPUL.0>
0

>  <SCORE.INTRA.SOLV>
-1.72962

>  <SCORE.INTRA.SOLV.lig_0>
-89.8095

>  <SCORE.INTRA.VDW>
2.31533

>  <SCORE.INTRA.VDW.0>
-3.19502

>  <SCORE.INTRA.norm>
-0.0590267

>  <SCORE.RESTR>
0.624947

>  <SCORE.RESTR.CAVITY>
0.624947

>  <SCORE.RESTR.norm>
0.0168905

>  <SCORE.SYSTEM>
0

>  <SCORE.SYSTEM.CONST>
0

>  <SCORE.SYSTEM.DIHEDRAL>
0

>  <SCORE.SYSTEM.SOLV>
0

>  <SCORE.SYSTEM.norm>
0

>  <SCORE.heavy>
37

>  <SCORE.norm>
-0.720442

>  <RMSD>
9.552

$$$$
2oe5_lig
 OpenBabel11021811463D
libRbt.so/2013.1/901 2013/11/27
 37 40  0  0  0  0  0  0  0  0999 V2000
   19.6492   -2.3638   49.4748 C   0  0  1  0  0  0  0  0  0  0  0  0
   20.9745   -3.0778   49.8227 C   0  0  1  0  0  0  0  0  0  0  0  0
   21.0945   -3.2174   51.3858 C   0  0  0  0  0  0  0  0  0  0  0  0
   21.0483   -1.7717   51.9293 C   0  0  1  0  0  0  0  0  0  0  0  0
   19.6783   -1.0499   51.5574 C   0  0  1  0  0  0  0  0  0  0  0  0
   19.6083    0.4033   52.1011 C   0  0  1  0  0  0  0  0  0  0  0  0
   19.7616    0.3146   53.6462 C   0  0  1  0  0  0  0  0  0  0  0  0
   21.1045   -0.4441   53.9690 C   0  0  2  0  0  0  0  0  0  0  0  0
   18.4985    2.5243   54.2664 C   0  0  0  0  0  0  0  0  0  0  0  0
   21.0020   -4.4231   49.2041 N   0  0  0  0  0  0  0  0  0  0  0  0
   19.7557    1.6977   54.2557 N   0  0  0  0  0  0  0  0  0  0  0  0
   18.5034   -3.1235   49.8931 O   0  0  0  0  0  0  0  0  0  0  0  0
   19.5531   -1.0354   50.0985 O   0  0  0  0  0  0  0  0  0  0  0  0
   21.1563   -1.7953   53.3779 O   0  0  0  0  0  0  0  0  0  0  0  0
   20.6737    1.1492   51.5039 O   0  0  0  0  0  0  0  0  0  0  0  0
   21.2474   -0.6000   55.3670 O   0  0  0  0  0  0  0  0  0  0  0  0
   22.5070   -1.1706   55.6686 C   0  0  2  0  0  0  0  0  0  0  0  0
   22.8515   -1.0652   57.1538 C   0  0  1  0  0  0  0  0  0  0  0  0
   23.0006    0.4178   57.5913 C   0  0  2  0  0  0  0  0  0  0  0  0
   24.0968    1.0638   56.6930 C   0  0  1  0  0  0  0  0  0  0  0  0
   23.6357    0.9493   55.2028 C   0  0  1  0  0  0  0  0  0  0  0  0
   24.6541    1.5017   54.2306 C   0  0  0  0  0  0  0  0  0  0  0  0
   24.2517    2.5073   57.1129 N   0  0  0  0  0  0  0  0  0  0  0  0
   23.5220   -0.4773   54.8769 O   0  0  0  0  0  0  0  0  0  0  0  0
   21.7959   -1.7136   57.8906 O   0  0  0  0  0  0  0  0  0  0  0  0
   23.4300    0.4366   58.9647 O   0  0  0  0  0  0  0  0  0  0  0  0
   24.2567    1.3374   52.9124 O   0  0  0  0  0  0  0  0  0  0  0  0
   18.2106   -4.2460   49.0607 C   0  0  1  0  0  0  0  0  0  0  0  0
   17.4556   -5.3442   49.8920 C   0  0  1  0  0  0  0  0  0  0  0  0
   17.1330   -6.5616   48.9527 C   0  0  2  0  0  0  0  0  0  0  0  0
   16.2368   -6.0889   47.7981 C   0  0  1  0  0  0  0  0  0  0  0  0
   17.0018   -4.9965   46.9558 C   0  0  0  0  0  0  0  0  0  0  0  0
   17.3411   -3.7779   47.9016 C   0  0  2  0  0  0  0  0  0  0  0  0
   15.9304   -7.2273   46.9477 N   0  0  0  0  0  0  0  0  0  0  0  0
   18.0840   -2.7330   47.1491 N   0  0  0  0  0  0  0  0  0  0  0  0
   18.3017   -5.7950   50.9885 O   0  0  0  0  0  0  0  0  0  0  0  0
   16.4421   -7.5373   49.6868 O   0  0  0  0  0  0  0  0  0  0  0  0
  1  2  1  0  0  0  0
  1 12  1  1  0  0  0
  1 13  1  0  0  0  0
  2  3  1  0  0  0  0
  2 10  1  6  0  0  0
  4  3  1  1  0  0  0
  4  5  1  0  0  0  0
  4 14  1  0  0  0  0
  5  6  1  0  0  0  0
  5 13  1  6  0  0  0
  6  7  1  0  0  0  0
  6 15  1  6  0  0  0
  7  8  1  0  0  0  0
  7 11  1  1  0  0  0
  8 14  1  0  0  0  0
  8 16  1  1  0  0  0
  9 11  1  0  0  0  0
 17 16  1  1  0  0  0
 17 18  1  0  0  0  0
 17 24  1  0  0  0  0
 18 19  1  0  0  0  0
 18 25  1  1  0  0  0
 19 20  1  0  0  0  0
 19 26  1  1  0  0  0
 20 21  1  0  0  0  0
 20 23  1  1  0  0  0
 21 22  1  6  0  0  0
 21 24  1  0  0  0  0
 22 27  1  0  0  0  0
 28 12  1  1  0  0  0
 28 29  1  0  0  0  0
 28 33  1  0  0  0  0
 29 30  1  0  0  0  0
 29 36  1  1  0  0  0
 30 31  1  0  0  0  0
 30 37  1  1  0  0  0
 31 32  1  0  0  0  0
 31 34  1  6  0  0  0
 32 33  1  0  0  0  0
 33 35  1  6  0  0  0
M  END
>  <CHROM.1>
-75.67551592,69.41027265,-174.67621844,166.71369494,177.26531051,153.49132537
20.38199616,-1.80265534,52.35420665,-3.13105941,1.05696811,2.47016810

>  <Name>
2oe5_lig

>  <RI>
0

>  <Rbt.Current_Directory>
/home/itssahil/PROJECTS/Mol_Feturizer/New_Systems/rnas/2oe5

>  <Rbt.Executable>
rbdock ($Id: //depot/dev/client3/rdock/2013.1/src/exe/rbdock.cxx#4 $)

>  <Rbt.Library>
libRbt.so (2013.1, Build901 2013/11/27)

>  <Rbt.Parameter_File>
/export/apps/rDock/src/rDock_2013.1_src/data/scripts/dock_solv.prm

>  <Rbt.Receptor>
prm/pocket_docking_6.prm

>  <SCORE>
-23.749

>  <SCORE.INTER>
-20.7548

>  <SCORE.INTER.CONST>
1

>  <SCORE.INTER.POLAR>
-1.90403

>  <SCORE.INTER.ROT>
6

>  <SCORE.INTER.SOLV>
14.515

>  <SCORE.INTER.VDW>
-19.9281

>  <SCORE.INTER.norm>
-0.560941

>  <SCORE.INTRA>
-2.99415

>  <SCORE.INTRA.DIHEDRAL>
-10.9612

>  <SCORE.INTRA.DIHEDRAL.0>
16.2083

>  <SCORE.INTRA.POLAR>
0

>  <SCORE.INTRA.POLAR.0>
0

>  <SCORE.INTRA.REPUL>
0.0260064

>  <SCORE.INTRA.REPUL.0>
0

>  <SCORE.INTRA.SOLV>
1.07002

>  <SCORE.INTRA.SOLV.lig_0>
-89.8095

>  <SCORE.INTRA.VDW>
1.82143

>  <SCORE.INTRA.VDW.0>
-3.19502

>  <SCORE.INTRA.norm>
-0.0809229

>  <SCORE.RESTR>
0

>  <SCORE.RESTR.CAVITY>
0

>  <SCORE.RESTR.norm>
0

>  <SCORE.SYSTEM>
0

>  <SCORE.SYSTEM.CONST>
0

>  <SCORE.SYSTEM.DIHEDRAL>
0

>  <SCORE.SYSTEM.SOLV>
0

>  <SCORE.SYSTEM.norm>
0

>  <SCORE.heavy>
37

>  <SCORE.norm>
-0.641864

>  <RMSD>
9.553

$$$$
2oe5_lig
 OpenBabel11021811463D
libRbt.so/2013.1/901 2013/11/27
 37 40  0  0  0  0  0  0  0  0999 V2000
   20.9059   -4.7062   48.7564 C   0  0  1  0  0  0  0  0  0  0  0  0
   22.4377   -4.8247   48.9201 C   0  0  1  0  0  0  0  0  0  0  0  0
   22.8260   -4.5157   50.4137 C   0  0  0  0  0  0  0  0  0  0  0  0
   22.3184   -3.0805   50.6786 C   0  0  1  0  0  0  0  0  0  0  0  0
   20.7392   -2.9758   50.5007 C   0  0  1  0  0  0  0  0  0  0  0  0
   20.2070   -1.5418   50.7698 C   0  0  1  0  0  0  0  0  0  0  0  0
   20.6040   -1.1800   52.2293 C   0  0  1  0  0  0  0  0  0  0  0  0
   22.1651   -1.3396   52.3733 C   0  0  2  0  0  0  0  0  0  0  0  0
   18.7068    0.5610   52.7117 C   0  0  0  0  0  0  0  0  0  0  0  0
   22.8796   -6.1940   48.5691 N   0  0  0  0  0  0  0  0  0  0  0  0
   20.1664    0.2285   52.5598 N   0  0  0  0  0  0  0  0  0  0  0  0
   20.2035   -5.6721   49.5555 O   0  0  0  0  0  0  0  0  0  0  0  0
   20.4084   -3.3739   49.1309 O   0  0  0  0  0  0  0  0  0  0  0  0
   22.6354   -2.6991   52.0441 O   0  0  0  0  0  0  0  0  0  0  0  0
   20.8152   -0.6605   49.8203 O   0  0  0  0  0  0  0  0  0  0  0  0
   22.5566   -1.0795   53.7068 O   0  0  0  0  0  0  0  0  0  0  0  0
   23.9627   -1.1817   53.8318 C   0  0  2  0  0  0  0  0  0  0  0  0
   24.4250   -1.0840   55.2851 C   0  0  1  0  0  0  0  0  0  0  0  0
   24.0985    0.3112   55.8851 C   0  0  2  0  0  0  0  0  0  0  0  0
   24.7836    1.3811   54.9841 C   0  0  1  0  0  0  0  0  0  0  0  0
   24.2156    1.2334   53.5343 C   0  0  1  0  0  0  0  0  0  0  0  0
   24.8521    2.1945   52.5552 C   0  0  0  0  0  0  0  0  0  0  0  0
   24.4743    2.7431   55.5614 N   0  0  0  0  0  0  0  0  0  0  0  0
   24.5686   -0.1060   53.0486 O   0  0  0  0  0  0  0  0  0  0  0  0
   23.7590   -2.1280   56.0228 O   0  0  0  0  0  0  0  0  0  0  0  0
   24.6565    0.3683   57.2105 O   0  0  0  0  0  0  0  0  0  0  0  0
   26.2155    1.9776   52.4259 O   0  0  0  0  0  0  0  0  0  0  0  0
   18.9636   -6.1042   48.9948 C   0  0  1  0  0  0  0  0  0  0  0  0
   18.0277   -4.8665   48.7517 C   0  0  1  0  0  0  0  0  0  0  0  0
   16.6770   -5.3652   48.1230 C   0  0  2  0  0  0  0  0  0  0  0  0
   16.9658   -6.0581   46.7827 C   0  0  1  0  0  0  0  0  0  0  0  0
   17.8941   -7.3092   47.0303 C   0  0  0  0  0  0  0  0  0  0  0  0
   19.2468   -6.8123   47.6768 C   0  0  2  0  0  0  0  0  0  0  0  0
   15.7074   -6.4976   46.2029 N   0  0  0  0  0  0  0  0  0  0  0  0
   20.1433   -7.9670   47.9469 N   0  0  0  0  0  0  0  0  0  0  0  0
   17.7516   -4.2059   50.0201 O   0  0  0  0  0  0  0  0  0  0  0  0
   15.8450   -4.2605   47.8871 O   0  0  0  0  0  0  0  0  0  0  0  0
  1  2  1  0  0  0  0
  1 12  1  1  0  0  0
  1 13  1  0  0  0  0
  2  3  1  0  0  0  0
  2 10  1  1  0  0  0
  4  3  1  1  0  0  0
  4  5  1  0  0  0  0
  4 14  1  0  0  0  0
  5  6  1  0  0  0  0
  5 13  1  6  0  0  0
  6  7  1  0  0  0  0
  6 15  1  6  0  0  0
  7  8  1  0  0  0  0
  7 11  1  6  0  0  0
  8 14  1  0  0  0  0
  8 16  1  1  0  0  0
  9 11  1  0  0  0  0
 17 16  1  1  0  0  0
 17 18  1  0  0  0  0
 17 24  1  0  0  0  0
 18 19  1  0  0  0  0
 18 25  1  1  0  0  0
 19 20  1  0  0  0  0
 19 26  1  1  0  0  0
 20 21  1  0  0  0  0
 20 23  1  1  0  0  0
 21 22  1  6  0  0  0
 21 24  1  0  0  0  0
 22 27  1  0  0  0  0
 28 12  1  6  0  0  0
 28 29  1  0  0  0  0
 28 33  1  0  0  0  0
 29 30  1  0  0  0  0
 29 36  1  1  0  0  0
 30 31  1  0  0  0  0
 30 37  1  6  0  0  0
 31 32  1  0  0  0  0
 31 34  1  1  0  0  0
 32 33  1  0  0  0  0
 33 35  1  1  0  0  0
M  END
>  <CHROM.1>
-149.12144133,69.80655066,-178.22109418,-172.79034258,62.02515987,-57.29216646
21.30919932,-2.57644426,51.18564306,-2.18264301,-0.32591166,0.57390566

>  <Name>
2oe5_lig

>  <RI>
0

>  <Rbt.Current_Directory>
/home/itssahil/PROJECTS/Mol_Feturizer/New_Systems/rnas/2oe5

>  <Rbt.Executable>
rbdock ($Id: //depot/dev/client3/rdock/2013.1/src/exe/rbdock.cxx#4 $)

>  <Rbt.Library>
libRbt.so (2013.1, Build901 2013/11/27)

>  <Rbt.Parameter_File>
/export/apps/rDock/src/rDock_2013.1_src/data/scripts/dock_solv.prm

>  <Rbt.Receptor>
prm/pocket_docking_7.prm

>  <SCORE>
-16.8872

>  <SCORE.INTER>
-12.8171

>  <SCORE.INTER.CONST>
1

>  <SCORE.INTER.POLAR>
-0.979796

>  <SCORE.INTER.ROT>
6

>  <SCORE.INTER.SOLV>
8.60183

>  <SCORE.INTER.VDW>
-15.746

>  <SCORE.INTER.norm>
-0.346409

>  <SCORE.INTRA>
-4.07004

>  <SCORE.INTRA.DIHEDRAL>
-11.9989

>  <SCORE.INTRA.DIHEDRAL.0>
16.2083

>  <SCORE.INTRA.POLAR>
0

>  <SCORE.INTRA.POLAR.0>
0

>  <SCORE.INTRA.REPUL>
0

>  <SCORE.INTRA.REPUL.0>
0

>  <SCORE.INTRA.SOLV>
0.0564143

>  <SCORE.INTRA.SOLV.lig_0>
-89.8095

>  <SCORE.INTRA.VDW>
1.90119

>  <SCORE.INTRA.VDW.0>
-3.19502

>  <SCORE.INTRA.norm>
-0.110001

>  <SCORE.RESTR>
0

>  <SCORE.RESTR.CAVITY>
0

>  <SCORE.RESTR.norm>
0

>  <SCORE.SYSTEM>
0

>  <SCORE.SYSTEM.CONST>
0

>  <SCORE.SYSTEM.DIHEDRAL>
0

>  <SCORE.SYSTEM.SOLV>
0

>  <SCORE.SYSTEM.norm>
0

>  <SCORE.heavy>
37

>  <SCORE.norm>
-0.45641

>  <RMSD>
9.572

$$$$
2oe5_lig
 OpenBabel11021811463D
libRbt.so/2013.1/901 2013/11/27
 37 40  0  0  0  0  0  0  0  0999 V2000
   19.9238   -5.3136   48.9617 C   0  0  1  0  0  0  0  0  0  0  0  0
   20.9888   -6.0638   49.7926 C   0  0  1  0  0  0  0  0  0  0  0  0
   20.9564   -5.5371   51.2754 C   0  0  0  0  0  0  0  0  0  0  0  0
   21.2501   -4.0234   51.1772 C   0  0  1  0  0  0  0  0  0  0  0  0
   20.1458   -3.2674   50.3138 C   0  0  1  0  0  0  0  0  0  0  0  0
   20.4186   -1.7421   50.2086 C   0  0  1  0  0  0  0  0  0  0  0  0
   20.4328   -1.1854   51.6607 C   0  0  1  0  0  0  0  0  0  0  0  0
   21.5048   -1.9892   52.4900 C   0  0  2  0  0  0  0  0  0  0  0  0
   20.1054    1.2151   52.6574 C   0  0  0  0  0  0  0  0  0  0  0  0
   20.7085   -7.5180   49.7797 N   0  0  0  0  0  0  0  0  0  0  0  0
   20.7443    0.2937   51.6541 N   0  0  0  0  0  0  0  0  0  0  0  0
   18.5927   -5.5646   49.4414 O   0  0  0  0  0  0  0  0  0  0  0  0
   20.1332   -3.8580   48.9739 O   0  0  0  0  0  0  0  0  0  0  0  0
   21.2445   -3.4417   52.5085 O   0  0  0  0  0  0  0  0  0  0  0  0
   21.6815   -1.5638   49.5593 O   0  0  0  0  0  0  0  0  0  0  0  0
   21.5020   -1.5528   53.8349 O   0  0  0  0  0  0  0  0  0  0  0  0
   22.5511   -2.1751   54.5526 C   0  0  2  0  0  0  0  0  0  0  0  0
   22.5990   -1.7298   56.0137 C   0  0  1  0  0  0  0  0  0  0  0  0
   22.9182   -0.2138   56.1280 C   0  0  2  0  0  0  0  0  0  0  0  0
   24.2718    0.0367   55.3993 C   0  0  1  0  0  0  0  0  0  0  0  0
   24.1111   -0.4044   53.9074 C   0  0  1  0  0  0  0  0  0  0  0  0
   25.3881   -0.2533   53.1112 C   0  0  0  0  0  0  0  0  0  0  0  0
   24.5931    1.5095   55.5074 N   0  0  0  0  0  0  0  0  0  0  0  0
   23.8133   -1.8416   53.8942 O   0  0  0  0  0  0  0  0  0  0  0  0
   21.3170   -2.0296   56.6003 O   0  0  0  0  0  0  0  0  0  0  0  0
   23.0552    0.1090   57.5238 O   0  0  0  0  0  0  0  0  0  0  0  0
   25.2311   -0.6597   51.7949 O   0  0  0  0  0  0  0  0  0  0  0  0
   17.5832   -5.4821   48.4351 C   0  0  1  0  0  0  0  0  0  0  0  0
   17.7155   -4.1243   47.6567 C   0  0  1  0  0  0  0  0  0  0  0  0
   16.6042   -4.0628   46.5477 C   0  0  2  0  0  0  0  0  0  0  0  0
   16.7963   -5.2325   45.5707 C   0  0  1  0  0  0  0  0  0  0  0  0
   16.6490   -6.5954   46.3512 C   0  0  0  0  0  0  0  0  0  0  0  0
   17.7553   -6.6530   47.4769 C   0  0  2  0  0  0  0  0  0  0  0  0
   15.7744   -5.1534   44.5399 N   0  0  0  0  0  0  0  0  0  0  0  0
   17.6363   -7.9158   48.2520 N   0  0  0  0  0  0  0  0  0  0  0  0
   17.5347   -3.0121   48.5795 O   0  0  0  0  0  0  0  0  0  0  0  0
   16.7304   -2.8594   45.8377 O   0  0  0  0  0  0  0  0  0  0  0  0
  1  2  1  0  0  0  0
  1 12  1  1  0  0  0
  1 13  1  0  0  0  0
  2  3  1  0  0  0  0
  2 10  1  1  0  0  0
  4  3  1  1  0  0  0
  4  5  1  0  0  0  0
  4 14  1  0  0  0  0
  5  6  1  0  0  0  0
  5 13  1  6  0  0  0
  6  7  1  0  0  0  0
  6 15  1  1  0  0  0
  7  8  1  0  0  0  0
  7 11  1  6  0  0  0
  8 14  1  0  0  0  0
  8 16  1  1  0  0  0
  9 11  1  0  0  0  0
 17 16  1  6  0  0  0
 17 18  1  0  0  0  0
 17 24  1  0  0  0  0
 18 19  1  0  0  0  0
 18 25  1  6  0  0  0
 19 20  1  0  0  0  0
 19 26  1  1  0  0  0
 20 21  1  0  0  0  0
 20 23  1  6  0  0  0
 21 22  1  6  0  0  0
 21 24  1  0  0  0  0
 22 27  1  0  0  0  0
 28 12  1  1  0  0  0
 28 29  1  0  0  0  0
 28 33  1  0  0  0  0
 29 30  1  0  0  0  0
 29 36  1  1  0  0  0
 30 31  1  0  0  0  0
 30 37  1  6  0  0  0
 31 32  1  0  0  0  0
 31 34  1  6  0  0  0
 32 33  1  0  0  0  0
 33 35  1  1  0  0  0
M  END
>  <CHROM.1>
-151.17381525,144.97026108,-174.19948911,179.61418134,179.46281212,-51.54606090
20.58704865,-2.93078662,51.05906583,-2.72640053,-0.94767583,-0.06434926

>  <Name>
2oe5_lig

>  <RI>
0

>  <Rbt.Current_Directory>
/home/itssahil/PROJECTS/Mol_Feturizer/New_Systems/rnas/2oe5

>  <Rbt.Executable>
rbdock ($Id: //depot/dev/client3/rdock/2013.1/src/exe/rbdock.cxx#4 $)

>  <Rbt.Library>
libRbt.so (2013.1, Build901 2013/11/27)

>  <Rbt.Parameter_File>
/export/apps/rDock/src/rDock_2013.1_src/data/scripts/dock_solv.prm

>  <Rbt.Receptor>
prm/pocket_docking_4.prm

>  <SCORE>
-18.1337

>  <SCORE.INTER>
-13.5923

>  <SCORE.INTER.CONST>
1

>  <SCORE.INTER.POLAR>
-1.25753

>  <SCORE.INTER.ROT>
6

>  <SCORE.INTER.SOLV>
12.5423

>  <SCORE.INTER.VDW>
-16.6506

>  <SCORE.INTER.norm>
-0.367361

>  <SCORE.INTRA>
-4.54139

>  <SCORE.INTRA.DIHEDRAL>
-11.5069

>  <SCORE.INTRA.DIHEDRAL.0>
16.2083

>  <SCORE.INTRA.POLAR>
0

>  <SCORE.INTRA.POLAR.0>
0

>  <SCORE.INTRA.REPUL>
0.0019814

>  <SCORE.INTRA.REPUL.0>
0

>  <SCORE.INTRA.SOLV>
-0.704291

>  <SCORE.INTRA.SOLV.lig_0>
-89.8095

>  <SCORE.INTRA.VDW>
1.5543

>  <SCORE.INTRA.VDW.0>
-3.19502

>  <SCORE.INTRA.norm>
-0.12274

>  <SCORE.RESTR>
0

>  <SCORE.RESTR.CAVITY>
0

>  <SCORE.RESTR.norm>
0

>  <SCORE.SYSTEM>
0

>  <SCORE.SYSTEM.CONST>
0

>  <SCORE.SYSTEM.DIHEDRAL>
0

>  <SCORE.SYSTEM.SOLV>
0

>  <SCORE.SYSTEM.norm>
0

>  <SCORE.heavy>
37

>  <SCORE.norm>
-0.490101

>  <RMSD>
9.574

$$$$
2oe5_lig
 OpenBabel11021811463D
libRbt.so/2013.1/901 2013/11/27
 37 40  0  0  0  0  0  0  0  0999 V2000
   21.3386   -4.3723   49.6428 C   0  0  1  0  0  0  0  0  0  0  0  0
   22.8755   -4.3822   49.8016 C   0  0  1  0  0  0  0  0  0  0  0  0
   23.2421   -4.1837   51.3193 C   0  0  0  0  0  0  0  0  0  0  0  0
   22.6216   -2.8249   51.7145 C   0  0  1  0  0  0  0  0  0  0  0  0
   21.0386   -2.8312   51.5400 C   0  0  1  0  0  0  0  0  0  0  0  0
   20.3936   -1.4759   51.9392 C   0  0  1  0  0  0  0  0  0  0  0  0
   20.7646   -1.2211   53.4279 C   0  0  1  0  0  0  0  0  0  0  0  0
   22.3339   -1.2676   53.5633 C   0  0  2  0  0  0  0  0  0  0  0  0
   20.0505    0.4068   55.3521 C   0  0  0  0  0  0  0  0  0  0  0  0
   23.4249   -5.6729   49.3265 N   0  0  0  0  0  0  0  0  0  0  0  0
   20.2162    0.1107   53.8862 N   0  0  0  0  0  0  0  0  0  0  0  0
   20.7185   -5.4619   50.3452 O   0  0  0  0  0  0  0  0  0  0  0  0
   20.7367   -3.1250   50.1376 O   0  0  0  0  0  0  0  0  0  0  0  0
   22.9110   -2.5483   53.1110 O   0  0  0  0  0  0  0  0  0  0  0  0
   20.9262   -0.4639   51.0787 O   0  0  0  0  0  0  0  0  0  0  0  0
   22.7073   -1.1024   54.9171 O   0  0  0  0  0  0  0  0  0  0  0  0
   24.1160   -1.1504   55.0446 C   0  0  2  0  0  0  0  0  0  0  0  0
   24.5782   -0.8949   56.4787 C   0  0  1  0  0  0  0  0  0  0  0  0
   24.2118    0.5429   56.9385 C   0  0  2  0  0  0  0  0  0  0  0  0
   24.8629    1.5373   55.9320 C   0  0  1  0  0  0  0  0  0  0  0  0
   24.2966    1.2294   54.5070 C   0  0  1  0  0  0  0  0  0  0  0  0
   24.9023    2.1064   53.4339 C   0  0  0  0  0  0  0  0  0  0  0  0
   24.5146    2.9404   56.3725 N   0  0  0  0  0  0  0  0  0  0  0  0
   24.6882   -0.1407   54.1552 O   0  0  0  0  0  0  0  0  0  0  0  0
   23.9450   -1.8793   57.3199 O   0  0  0  0  0  0  0  0  0  0  0  0
   24.7706    0.7481   58.2487 O   0  0  0  0  0  0  0  0  0  0  0  0
   24.3904    1.8192   52.1777 O   0  0  0  0  0  0  0  0  0  0  0  0
   19.6152   -6.0498   49.6554 C   0  0  1  0  0  0  0  0  0  0  0  0
   18.5706   -4.9400   49.2759 C   0  0  1  0  0  0  0  0  0  0  0  0
   17.3743   -5.6084   48.5074 C   0  0  2  0  0  0  0  0  0  0  0  0
   17.9012   -6.2732   47.2267 C   0  0  1  0  0  0  0  0  0  0  0  0
   18.9395   -7.3971   47.6102 C   0  0  0  0  0  0  0  0  0  0  0  0
   20.1358   -6.7302   48.3965 C   0  0  2  0  0  0  0  0  0  0  0  0
   16.7829   -6.8710   46.5161 N   0  0  0  0  0  0  0  0  0  0  0  0
   21.1284   -7.7621   48.7965 N   0  0  0  0  0  0  0  0  0  0  0  0
   18.0686   -4.3063   50.4875 O   0  0  0  0  0  0  0  0  0  0  0  0
   16.4474   -4.6176   48.1502 O   0  0  0  0  0  0  0  0  0  0  0  0
  1  2  1  0  0  0  0
  1 12  1  1  0  0  0
  1 13  1  0  0  0  0
  2  3  1  0  0  0  0
  2 10  1  1  0  0  0
  4  3  1  1  0  0  0
  4  5  1  0  0  0  0
  4 14  1  0  0  0  0
  5  6  1  0  0  0  0
  5 13  1  6  0  0  0
  6  7  1  0  0  0  0
  6 15  1  6  0  0  0
  7  8  1  0  0  0  0
  7 11  1  6  0  0  0
  8 14  1  0  0  0  0
  8 16  1  1  0  0  0
  9 11  1  0  0  0  0
 17 16  1  1  0  0  0
 17 18  1  0  0  0  0
 17 24  1  0  0  0  0
 18 19  1  0  0  0  0
 18 25  1  1  0  0  0
 19 20  1  0  0  0  0
 19 26  1  1  0  0  0
 20 21  1  0  0  0  0
 20 23  1  1  0  0  0
 21 22  1  6  0  0  0
 21 24  1  0  0  0  0
 22 27  1  0  0  0  0
 28 12  1  6  0  0  0
 28 29  1  0  0  0  0
 28 33  1  0  0  0  0
 29 30  1  0  0  0  0
 29 36  1  1  0  0  0
 30 31  1  0  0  0  0
 30 37  1  6  0  0  0
 31 32  1  0  0  0  0
 31 34  1  1  0  0  0
 32 33  1  0  0  0  0
 33 35  1  1  0  0  0
M  END
>  <CHROM.1>
-141.52966339,160.64091936,179.69816020,176.64366288,179.93362145,-53.86655351
21.64345850,-2.50512025,52.10041643,-2.08475515,-0.33125197,0.64906887

>  <Name>
2oe5_lig

>  <RI>
0

>  <Rbt.Current_Directory>
/home/itssahil/PROJECTS/Mol_Feturizer/New_Systems/rnas/2oe5

>  <Rbt.Executable>
rbdock ($Id: //depot/dev/client3/rdock/2013.1/src/exe/rbdock.cxx#4 $)

>  <Rbt.Library>
libRbt.so (2013.1, Build901 2013/11/27)

>  <Rbt.Parameter_File>
/export/apps/rDock/src/rDock_2013.1_src/data/scripts/dock_solv.prm

>  <Rbt.Receptor>
prm/pocket_docking_6.prm

>  <SCORE>
-16.4511

>  <SCORE.INTER>
-12.8924

>  <SCORE.INTER.CONST>
1

>  <SCORE.INTER.POLAR>
-0.979796

>  <SCORE.INTER.ROT>
6

>  <SCORE.INTER.SOLV>
9.13914

>  <SCORE.INTER.VDW>
-15.9754

>  <SCORE.INTER.norm>
-0.348445

>  <SCORE.INTRA>
-3.55865

>  <SCORE.INTRA.DIHEDRAL>
-10.5096

>  <SCORE.INTRA.DIHEDRAL.0>
16.2083

>  <SCORE.INTRA.POLAR>
0

>  <SCORE.INTRA.POLAR.0>
0

>  <SCORE.INTRA.REPUL>
0.00207875

>  <SCORE.INTRA.REPUL.0>
0

>  <SCORE.INTRA.SOLV>
-0.123243

>  <SCORE.INTRA.SOLV.lig_0>
-89.8095

>  <SCORE.INTRA.VDW>
1.74736

>  <SCORE.INTRA.VDW.0>
-3.19502

>  <SCORE.INTRA.norm>
-0.0961798

>  <SCORE.RESTR>
0

>  <SCORE.RESTR.CAVITY>
0

>  <SCORE.RESTR.norm>
0

>  <SCORE.SYSTEM>
0

>  <SCORE.SYSTEM.CONST>
0

>  <SCORE.SYSTEM.DIHEDRAL>
0

>  <SCORE.SYSTEM.SOLV>
0

>  <SCORE.SYSTEM.norm>
0

>  <SCORE.heavy>
37

>  <SCORE.norm>
-0.444624

>  <RMSD>
9.588

$$$$
2oe5_lig
 OpenBabel11021811463D
libRbt.so/2013.1/901 2013/11/27
 37 40  0  0  0  0  0  0  0  0999 V2000
   19.6631   -2.4150   49.3572 C   0  0  1  0  0  0  0  0  0  0  0  0
   20.9611   -3.1647   49.7321 C   0  0  1  0  0  0  0  0  0  0  0  0
   21.0531   -3.2930   51.2981 C   0  0  0  0  0  0  0  0  0  0  0  0
   21.0417   -1.8415   51.8277 C   0  0  1  0  0  0  0  0  0  0  0  0
   19.6996   -1.0829   51.4281 C   0  0  1  0  0  0  0  0  0  0  0  0
   19.6646    0.3768   51.9575 C   0  0  1  0  0  0  0  0  0  0  0  0
   19.7916    0.2982   53.5055 C   0  0  1  0  0  0  0  0  0  0  0  0
   21.1062   -0.4969   53.8560 C   0  0  2  0  0  0  0  0  0  0  0  0
   18.5477    2.4795   54.2522 C   0  0  0  0  0  0  0  0  0  0  0  0
   20.9579   -4.5161   49.1261 N   0  0  0  0  0  0  0  0  0  0  0  0
   19.8176    1.6866   54.1024 N   0  0  0  0  0  0  0  0  0  0  0  0
   18.4890   -3.1364   49.7645 O   0  0  0  0  0  0  0  0  0  0  0  0
   19.5972   -1.0785   49.9673 O   0  0  0  0  0  0  0  0  0  0  0  0
   21.1268   -1.8546   53.2779 O   0  0  0  0  0  0  0  0  0  0  0  0
   20.7608    1.0851   51.3702 O   0  0  0  0  0  0  0  0  0  0  0  0
   21.2231   -0.6437   55.2574 O   0  0  0  0  0  0  0  0  0  0  0  0
   22.4766   -1.2128   55.5861 C   0  0  2  0  0  0  0  0  0  0  0  0
   22.7983   -1.0883   57.0749 C   0  0  1  0  0  0  0  0  0  0  0  0
   22.9439    0.4002   57.4948 C   0  0  2  0  0  0  0  0  0  0  0  0
   24.0553    1.0319   56.6051 C   0  0  1  0  0  0  0  0  0  0  0  0
   23.6171    0.8985   55.1096 C   0  0  1  0  0  0  0  0  0  0  0  0
   24.6516    1.4358   54.1460 C   0  0  0  0  0  0  0  0  0  0  0  0
   24.2069    2.4806   57.0081 N   0  0  0  0  0  0  0  0  0  0  0  0
   23.5053   -0.5322   54.8010 O   0  0  0  0  0  0  0  0  0  0  0  0
   21.7299   -1.7246   57.8038 O   0  0  0  0  0  0  0  0  0  0  0  0
   23.3521    0.4365   58.8743 O   0  0  0  0  0  0  0  0  0  0  0  0
   25.8602    0.7645   54.2535 O   0  0  0  0  0  0  0  0  0  0  0  0
   18.1927   -4.2753   48.9559 C   0  0  1  0  0  0  0  0  0  0  0  0
   17.4240   -5.3485   49.8069 C   0  0  1  0  0  0  0  0  0  0  0  0
   17.0979   -6.5845   48.8934 C   0  0  2  0  0  0  0  0  0  0  0  0
   16.2127   -6.1314   47.7226 C   0  0  1  0  0  0  0  0  0  0  0  0
   16.9916   -5.0643   46.8607 C   0  0  0  0  0  0  0  0  0  0  0  0
   17.3343   -3.8271   47.7808 C   0  0  2  0  0  0  0  0  0  0  0  0
   15.9030   -7.2865   46.8963 N   0  0  0  0  0  0  0  0  0  0  0  0
   18.0900   -2.8053   47.0097 N   0  0  0  0  0  0  0  0  0  0  0  0
   18.2595   -5.7807   50.9189 O   0  0  0  0  0  0  0  0  0  0  0  0
   16.3948   -7.5380   49.6450 O   0  0  0  0  0  0  0  0  0  0  0  0
  1  2  1  0  0  0  0
  1 12  1  1  0  0  0
  1 13  1  0  0  0  0
  2  3  1  0  0  0  0
  2 10  1  6  0  0  0
  4  3  1  1  0  0  0
  4  5  1  0  0  0  0
  4 14  1  0  0  0  0
  5  6  1  0  0  0  0
  5 13  1  6  0  0  0
  6  7  1  0  0  0  0
  6 15  1  6  0  0  0
  7  8  1  0  0  0  0
  7 11  1  1  0  0  0
  8 14  1  0  0  0  0
  8 16  1  1  0  0  0
  9 11  1  0  0  0  0
 17 16  1  1  0  0  0
 17 18  1  0  0  0  0
 17 24  1  0  0  0  0
 18 19  1  0  0  0  0
 18 25  1  1  0  0  0
 19 20  1  0  0  0  0
 19 26  1  1  0  0  0
 20 21  1  0  0  0  0
 20 23  1  1  0  0  0
 21 22  1  6  0  0  0
 21 24  1  0  0  0  0
 22 27  1  0  0  0  0
 28 12  1  1  0  0  0
 28 29  1  0  0  0  0
 28 33  1  0  0  0  0
 29 30  1  0  0  0  0
 29 36  1  1  0  0  0
 30 31  1  0  0  0  0
 30 37  1  1  0  0  0
 31 32  1  0  0  0  0
 31 34  1  6  0  0  0
 32 33  1  0  0  0  0
 33 35  1  6  0  0  0
M  END
>  <CHROM.1>
-74.32905330,77.57830050,-172.97890569,166.27289630,60.40478732,151.96694115
20.41858613,-1.85856783,52.30125333,3.13240406,1.04488488,2.49879153

>  <Name>
2oe5_lig

>  <RI>
0

>  <Rbt.Current_Directory>
/home/itssahil/PROJECTS/Mol_Feturizer/New_Systems/rnas/2oe5

>  <Rbt.Executable>
rbdock ($Id: //depot/dev/client3/rdock/2013.1/src/exe/rbdock.cxx#4 $)

>  <Rbt.Library>
libRbt.so (2013.1, Build901 2013/11/27)

>  <Rbt.Parameter_File>
/export/apps/rDock/src/rDock_2013.1_src/data/scripts/dock_solv.prm

>  <Rbt.Receptor>
prm/pocket_docking_6.prm

>  <SCORE>
-23.0797

>  <SCORE.INTER>
-20.4894

>  <SCORE.INTER.CONST>
1

>  <SCORE.INTER.POLAR>
-1.86787

>  <SCORE.INTER.ROT>
6

>  <SCORE.INTER.SOLV>
14.3129

>  <SCORE.INTER.VDW>
-19.8043

>  <SCORE.INTER.norm>
-0.553767

>  <SCORE.INTRA>
-2.5903

>  <SCORE.INTRA.DIHEDRAL>
-10.5631

>  <SCORE.INTRA.DIHEDRAL.0>
16.2083

>  <SCORE.INTRA.POLAR>
0

>  <SCORE.INTRA.POLAR.0>
0

>  <SCORE.INTRA.REPUL>
0

>  <SCORE.INTRA.REPUL.0>
0

>  <SCORE.INTRA.SOLV>
1.58288

>  <SCORE.INTRA.SOLV.lig_0>
-89.8095

>  <SCORE.INTRA.VDW>
1.89982

>  <SCORE.INTRA.VDW.0>
-3.19502

>  <SCORE.INTRA.norm>
-0.0700081

>  <SCORE.RESTR>
0

>  <SCORE.RESTR.CAVITY>
0

>  <SCORE.RESTR.norm>
0

>  <SCORE.SYSTEM>
0

>  <SCORE.SYSTEM.CONST>
0

>  <SCORE.SYSTEM.DIHEDRAL>
0

>  <SCORE.SYSTEM.SOLV>
0

>  <SCORE.SYSTEM.norm>
0

>  <SCORE.heavy>
37

>  <SCORE.norm>
-0.623775

>  <RMSD>
9.591

$$$$
2oe5_lig
 OpenBabel11021811463D
libRbt.so/2013.1/901 2013/11/27
 37 40  0  0  0  0  0  0  0  0999 V2000
   19.6597   -2.2936   49.4675 C   0  0  1  0  0  0  0  0  0  0  0  0
   20.9956   -2.9944   49.8014 C   0  0  1  0  0  0  0  0  0  0  0  0
   21.1330   -3.1334   51.3632 C   0  0  0  0  0  0  0  0  0  0  0  0
   21.0778   -1.6885   51.9078 C   0  0  1  0  0  0  0  0  0  0  0  0
   19.6969   -0.9803   51.5503 C   0  0  1  0  0  0  0  0  0  0  0  0
   19.6178    0.4719   52.0953 C   0  0  1  0  0  0  0  0  0  0  0  0
   19.7877    0.3841   53.6387 C   0  0  1  0  0  0  0  0  0  0  0  0
   21.1414   -0.3612   53.9475 C   0  0  2  0  0  0  0  0  0  0  0  0
   18.5020    2.5685   54.3006 C   0  0  0  0  0  0  0  0  0  0  0  0
   21.0302   -4.3391   49.1819 N   0  0  0  0  0  0  0  0  0  0  0  0
   19.7742    1.7668   54.2490 N   0  0  0  0  0  0  0  0  0  0  0  0
   18.5259   -3.0649   49.8970 O   0  0  0  0  0  0  0  0  0  0  0  0
   19.5567   -0.9665   50.0927 O   0  0  0  0  0  0  0  0  0  0  0  0
   21.2008   -1.7116   53.3552 O   0  0  0  0  0  0  0  0  0  0  0  0
   20.6695    1.2287   51.4877 O   0  0  0  0  0  0  0  0  0  0  0  0
   21.3002   -0.5162   55.3439 O   0  0  0  0  0  0  0  0  0  0  0  0
   22.5954   -1.0057   55.6369 C   0  0  2  0  0  0  0  0  0  0  0  0
   22.8935   -0.9986   57.1358 C   0  0  1  0  0  0  0  0  0  0  0  0
   22.9069    0.4494   57.6983 C   0  0  2  0  0  0  0  0  0  0  0  0
   23.9666    1.2563   56.8910 C   0  0  1  0  0  0  0  0  0  0  0  0
   23.5534    1.2311   55.3828 C   0  0  1  0  0  0  0  0  0  0  0  0
   24.5453    1.9449   54.4918 C   0  0  0  0  0  0  0  0  0  0  0  0
   23.9896    2.6669   57.4330 N   0  0  0  0  0  0  0  0  0  0  0  0
   23.5678   -0.1674   54.9372 O   0  0  0  0  0  0  0  0  0  0  0  0
   21.8782   -1.7909   57.7832 O   0  0  0  0  0  0  0  0  0  0  0  0
   23.2995    0.3868   59.0814 O   0  0  0  0  0  0  0  0  0  0  0  0
   24.1828    1.8813   53.1549 O   0  0  0  0  0  0  0  0  0  0  0  0
   18.2350   -4.1892   49.0663 C   0  0  1  0  0  0  0  0  0  0  0  0
   17.4881   -5.2903   49.9009 C   0  0  1  0  0  0  0  0  0  0  0  0
   17.1674   -6.5096   48.9634 C   0  0  2  0  0  0  0  0  0  0  0  0
   16.2648   -6.0415   47.8119 C   0  0  1  0  0  0  0  0  0  0  0  0
   17.0218   -4.9461   46.9663 C   0  0  0  0  0  0  0  0  0  0  0  0
   17.3591   -3.7256   47.9102 C   0  0  2  0  0  0  0  0  0  0  0  0
   15.9604   -7.1817   46.9632 N   0  0  0  0  0  0  0  0  0  0  0  0
   18.0945   -2.6777   47.1544 N   0  0  0  0  0  0  0  0  0  0  0  0
   18.3402   -5.7368   50.9945 O   0  0  0  0  0  0  0  0  0  0  0  0
   16.4836   -7.4881   49.7005 O   0  0  0  0  0  0  0  0  0  0  0  0
  1  2  1  0  0  0  0
  1 12  1  1  0  0  0
  1 13  1  0  0  0  0
  2  3  1  0  0  0  0
  2 10  1  6  0  0  0
  4  3  1  1  0  0  0
  4  5  1  0  0  0  0
  4 14  1  0  0  0  0
  5  6  1  0  0  0  0
  5 13  1  6  0  0  0
  6  7  1  0  0  0  0
  6 15  1  6  0  0  0
  7  8  1  0  0  0  0
  7 11  1  6  0  0  0
  8 14  1  0  0  0  0
  8 16  1  1  0  0  0
  9 11  1  0  0  0  0
 17 16  1  1  0  0  0
 17 18  1  0  0  0  0
 17 24  1  0  0  0  0
 18 19  1  0  0  0  0
 18 25  1  1  0  0  0
 19 20  1  0  0  0  0
 19 26  1  1  0  0  0
 20 21  1  0  0  0  0
 20 23  1  1  0  0  0
 21 22  1  6  0  0  0
 21 24  1  0  0  0  0
 22 27  1  0  0  0  0
 28 12  1  1  0  0  0
 28 29  1  0  0  0  0
 28 33  1  0  0  0  0
 29 30  1  0  0  0  0
 29 36  1  1  0  0  0
 30 31  1  0  0  0  0
 30 37  1  1  0  0  0
 31 32  1  0  0  0  0
 31 34  1  6  0  0  0
 32 33  1  0  0  0  0
 33 35  1  6  0  0  0
M  END
>  <CHROM.1>
-75.74022730,70.78739927,-171.48964472,171.61506239,178.34303270,154.00645557
20.38264043,-1.70011234,52.38806151,3.13667761,1.06789912,2.48326510

>  <Name>
2oe5_lig

>  <RI>
0

>  <Rbt.Current_Directory>
/home/itssahil/PROJECTS/Mol_Feturizer/New_Systems/rnas/2oe5

>  <Rbt.Executable>
rbdock ($Id: //depot/dev/client3/rdock/2013.1/src/exe/rbdock.cxx#4 $)

>  <Rbt.Library>
libRbt.so (2013.1, Build901 2013/11/27)

>  <Rbt.Parameter_File>
/export/apps/rDock/src/rDock_2013.1_src/data/scripts/dock_solv.prm

>  <Rbt.Receptor>
prm/pocket_docking_4.prm

>  <SCORE>
-23.5473

>  <SCORE.INTER>
-19.9562

>  <SCORE.INTER.CONST>
1

>  <SCORE.INTER.POLAR>
-1.85443

>  <SCORE.INTER.ROT>
6

>  <SCORE.INTER.SOLV>
14.4114

>  <SCORE.INTER.VDW>
-19.5265

>  <SCORE.INTER.norm>
-0.539357

>  <SCORE.INTRA>
-3.59109

>  <SCORE.INTRA.DIHEDRAL>
-11.3273

>  <SCORE.INTRA.DIHEDRAL.0>
16.2083

>  <SCORE.INTRA.POLAR>
0

>  <SCORE.INTRA.POLAR.0>
0

>  <SCORE.INTRA.REPUL>
0.0263976

>  <SCORE.INTRA.REPUL.0>
0

>  <SCORE.INTRA.SOLV>
1.03035

>  <SCORE.INTRA.SOLV.lig_0>
-89.8095

>  <SCORE.INTRA.VDW>
1.42539

>  <SCORE.INTRA.VDW.0>
-3.19502

>  <SCORE.INTRA.norm>
-0.0970565

>  <SCORE.RESTR>
0

>  <SCORE.RESTR.CAVITY>
0

>  <SCORE.RESTR.norm>
0

>  <SCORE.SYSTEM>
0

>  <SCORE.SYSTEM.CONST>
0

>  <SCORE.SYSTEM.DIHEDRAL>
0

>  <SCORE.SYSTEM.SOLV>
0

>  <SCORE.SYSTEM.norm>
0

>  <SCORE.heavy>
37

>  <SCORE.norm>
-0.636414

>  <RMSD>
9.598

$$$$
2oe5_lig
 OpenBabel11021811463D
libRbt.so/2013.1/901 2013/11/27
 37 40  0  0  0  0  0  0  0  0999 V2000
   22.0910   -5.5555   50.3750 C   0  0  1  0  0  0  0  0  0  0  0  0
   21.0948   -5.6044   51.5551 C   0  0  1  0  0  0  0  0  0  0  0  0
   20.2523   -4.2751   51.5790 C   0  0  0  0  0  0  0  0  0  0  0  0
   21.2877   -3.1387   51.7337 C   0  0  1  0  0  0  0  0  0  0  0  0
   22.3087   -3.1064   50.5118 C   0  0  1  0  0  0  0  0  0  0  0  0
   23.3545   -1.9658   50.6442 C   0  0  1  0  0  0  0  0  0  0  0  0
   22.5595   -0.6307   50.7097 C   0  0  1  0  0  0  0  0  0  0  0  0
   21.5324   -0.7224   51.9012 C   0  0  2  0  0  0  0  0  0  0  0  0
   23.0300    1.9461   50.6687 C   0  0  0  0  0  0  0  0  0  0  0  0
   20.1843   -6.7623   51.4010 N   0  0  0  0  0  0  0  0  0  0  0  0
   23.5038    0.5355   50.8913 N   0  0  0  0  0  0  0  0  0  0  0  0
   21.4190   -5.4905   49.1065 O   0  0  0  0  0  0  0  0  0  0  0  0
   22.9952   -4.3988   50.4585 O   0  0  0  0  0  0  0  0  0  0  0  0
   20.6006   -1.8591   51.7691 O   0  0  0  0  0  0  0  0  0  0  0  0
   24.1074   -2.1945   51.8396 O   0  0  0  0  0  0  0  0  0  0  0  0
   20.7459    0.4515   51.9529 O   0  0  0  0  0  0  0  0  0  0  0  0
   19.9683    0.4668   53.1353 C   0  0  2  0  0  0  0  0  0  0  0  0
   18.9123    1.5714   53.1215 C   0  0  1  0  0  0  0  0  0  0  0  0
   19.5717    2.9776   53.0915 C   0  0  2  0  0  0  0  0  0  0  0  0
   20.5072    3.0834   54.3322 C   0  0  1  0  0  0  0  0  0  0  0  0
   21.5769    1.9465   54.2345 C   0  0  1  0  0  0  0  0  0  0  0  0
   22.5140    1.9205   55.4214 C   0  0  0  0  0  0  0  0  0  0  0  0
   21.1519    4.4502   54.3140 N   0  0  0  0  0  0  0  0  0  0  0  0
   20.8695    0.6609   54.2702 O   0  0  0  0  0  0  0  0  0  0  0  0
   18.0869    1.3672   51.9576 O   0  0  0  0  0  0  0  0  0  0  0  0
   18.5268    3.9623   53.1903 O   0  0  0  0  0  0  0  0  0  0  0  0
   23.2826    3.0717   55.5020 O   0  0  0  0  0  0  0  0  0  0  0  0
   20.8426   -6.7273   48.6861 C   0  0  1  0  0  0  0  0  0  0  0  0
   19.6709   -6.4540   47.6765 C   0  0  1  0  0  0  0  0  0  0  0  0
   19.0623   -7.8283   47.2187 C   0  0  2  0  0  0  0  0  0  0  0  0
   20.1513   -8.6599   46.5244 C   0  0  1  0  0  0  0  0  0  0  0  0
   21.3207   -8.9457   47.5438 C   0  0  0  0  0  0  0  0  0  0  0  0
   21.9241   -7.5651   48.0175 C   0  0  2  0  0  0  0  0  0  0  0  0
   19.5713   -9.9199   46.0893 N   0  0  0  0  0  0  0  0  0  0  0  0
   23.0177   -7.7906   48.9989 N   0  0  0  0  0  0  0  0  0  0  0  0
   18.6360   -5.6649   48.3306 O   0  0  0  0  0  0  0  0  0  0  0  0
   18.0272   -7.5894   46.3023 O   0  0  0  0  0  0  0  0  0  0  0  0
  1  2  1  0  0  0  0
  1 12  1  6  0  0  0
  1 13  1  0  0  0  0
  2  3  1  0  0  0  0
  2 10  1  6  0  0  0
  4  3  1  6  0  0  0
  4  5  1  0  0  0  0
  4 14  1  0  0  0  0
  5  6  1  0  0  0  0
  5 13  1  1  0  0  0
  6  7  1  0  0  0  0
  6 15  1  1  0  0  0
  7  8  1  0  0  0  0
  7 11  1  1  0  0  0
  8 14  1  0  0  0  0
  8 16  1  6  0  0  0
  9 11  1  0  0  0  0
 17 16  1  6  0  0  0
 17 18  1  0  0  0  0
 17 24  1  0  0  0  0
 18 19  1  0  0  0  0
 18 25  1  6  0  0  0
 19 20  1  0  0  0  0
 19 26  1  1  0  0  0
 20 21  1  0  0  0  0
 20 23  1  6  0  0  0
 21 22  1  1  0  0  0
 21 24  1  0  0  0  0
 22 27  1  0  0  0  0
 28 12  1  6  0  0  0
 28 29  1  0  0  0  0
 28 33  1  0  0  0  0
 29 30  1  0  0  0  0
 29 36  1  1  0  0  0
 30 31  1  0  0  0  0
 30 37  1  6  0  0  0
 31 32  1  0  0  0  0
 31 34  1  1  0  0  0
 32 33  1  0  0  0  0
 33 35  1  1  0  0  0
M  END
>  <CHROM.1>
-75.21122621,165.81945980,-171.03939337,-169.26351885,-64.11805156,156.19812992
21.02467581,-2.49567688,50.96812623,-1.62729592,-0.25946746,0.50416451

>  <Name>
2oe5_lig

>  <RI>
0

>  <Rbt.Current_Directory>
/home/itssahil/PROJECTS/Mol_Feturizer/New_Systems/rnas/2oe5

>  <Rbt.Executable>
rbdock ($Id: //depot/dev/client3/rdock/2013.1/src/exe/rbdock.cxx#4 $)

>  <Rbt.Library>
libRbt.so (2013.1, Build901 2013/11/27)

>  <Rbt.Parameter_File>
/export/apps/rDock/src/rDock_2013.1_src/data/scripts/dock_solv.prm

>  <Rbt.Receptor>
prm/pocket_docking_5.prm

>  <SCORE>
-15.1067

>  <SCORE.INTER>
-11.3108

>  <SCORE.INTER.CONST>
1

>  <SCORE.INTER.POLAR>
0

>  <SCORE.INTER.ROT>
6

>  <SCORE.INTER.SOLV>
16.6427

>  <SCORE.INTER.VDW>
-20.6881

>  <SCORE.INTER.norm>
-0.305697

>  <SCORE.INTRA>
-3.79594

>  <SCORE.INTRA.DIHEDRAL>
-11.4295

>  <SCORE.INTRA.DIHEDRAL.0>
16.2083

>  <SCORE.INTRA.POLAR>
0

>  <SCORE.INTRA.POLAR.0>
0

>  <SCORE.INTRA.REPUL>
0

>  <SCORE.INTRA.REPUL.0>
0

>  <SCORE.INTRA.SOLV>
1.93543

>  <SCORE.INTRA.SOLV.lig_0>
-89.8095

>  <SCORE.INTRA.VDW>
0.951112

>  <SCORE.INTRA.VDW.0>
-3.19502

>  <SCORE.INTRA.norm>
-0.102593

>  <SCORE.RESTR>
0

>  <SCORE.RESTR.CAVITY>
0

>  <SCORE.RESTR.norm>
0

>  <SCORE.SYSTEM>
0

>  <SCORE.SYSTEM.CONST>
0

>  <SCORE.SYSTEM.DIHEDRAL>
0

>  <SCORE.SYSTEM.SOLV>
0

>  <SCORE.SYSTEM.norm>
0

>  <SCORE.heavy>
37

>  <SCORE.norm>
-0.40829

>  <RMSD>
9.599

$$$$
2oe5_lig
 OpenBabel11021811463D
libRbt.so/2013.1/901 2013/11/27
 37 40  0  0  0  0  0  0  0  0999 V2000
   21.3370   -1.5199   51.8420 C   0  0  1  0  0  0  0  0  0  0  0  0
   19.7987   -1.4368   51.7228 C   0  0  1  0  0  0  0  0  0  0  0  0
   19.3015   -0.0821   52.3511 C   0  0  0  0  0  0  0  0  0  0  0  0
   19.7735   -0.1171   53.8219 C   0  0  1  0  0  0  0  0  0  0  0  0
   21.3601   -0.2077   53.9257 C   0  0  1  0  0  0  0  0  0  0  0  0
   21.8565   -0.2366   55.3971 C   0  0  1  0  0  0  0  0  0  0  0  0
   21.3524    1.0724   56.0688 C   0  0  1  0  0  0  0  0  0  0  0  0
   19.7868    1.1437   55.9044 C   0  0  2  0  0  0  0  0  0  0  0  0
   23.1886    1.2954   57.9239 C   0  0  0  0  0  0  0  0  0  0  0  0
   19.3977   -1.4961   50.2983 N   0  0  0  0  0  0  0  0  0  0  0  0
   21.7503    1.1026   57.5267 N   0  0  0  0  0  0  0  0  0  0  0  0
   21.9907   -0.4768   51.1008 O   0  0  0  0  0  0  0  0  0  0  0  0
   21.7922   -1.4257   53.2372 O   0  0  0  0  0  0  0  0  0  0  0  0
   19.3557    1.1015   54.4936 O   0  0  0  0  0  0  0  0  0  0  0  0
   21.3083   -1.4003   56.0244 O   0  0  0  0  0  0  0  0  0  0  0  0
   19.2983    2.3538   56.4487 O   0  0  0  0  0  0  0  0  0  0  0  0
   19.2813    2.2820   57.8620 C   0  0  2  0  0  0  0  0  0  0  0  0
   17.8610    2.2742   58.4260 C   0  0  1  0  0  0  0  0  0  0  0  0
   17.1255    3.6061   58.1123 C   0  0  2  0  0  0  0  0  0  0  0  0
   17.9803    4.7649   58.7059 C   0  0  1  0  0  0  0  0  0  0  0  0
   19.3939    4.7195   58.0379 C   0  0  1  0  0  0  0  0  0  0  0  0
   20.3319    5.7749   58.5799 C   0  0  0  0  0  0  0  0  0  0  0  0
   17.2714    6.0660   58.4084 N   0  0  0  0  0  0  0  0  0  0  0  0
   20.0129    3.4347   58.3852 O   0  0  0  0  0  0  0  0  0  0  0  0
   17.1678    1.1550   57.8390 O   0  0  0  0  0  0  0  0  0  0  0  0
   15.8425    3.5711   58.7633 O   0  0  0  0  0  0  0  0  0  0  0  0
   20.5445    5.6309   59.9426 O   0  0  0  0  0  0  0  0  0  0  0  0
   23.3710   -0.7261   50.8339 C   0  0  1  0  0  0  0  0  0  0  0  0
   24.1872   -0.6994   52.1756 C   0  0  1  0  0  0  0  0  0  0  0  0
   25.6984   -0.9890   51.8582 C   0  0  2  0  0  0  0  0  0  0  0  0
   25.8247   -2.3764   51.2110 C   0  0  1  0  0  0  0  0  0  0  0  0
   25.0163   -2.3972   49.8566 C   0  0  0  0  0  0  0  0  0  0  0  0
   23.4992   -2.0910   50.1711 C   0  0  2  0  0  0  0  0  0  0  0  0
   27.2283   -2.6398   50.9398 N   0  0  0  0  0  0  0  0  0  0  0  0
   22.7048   -2.0795   48.9146 N   0  0  0  0  0  0  0  0  0  0  0  0
   24.0697    0.6144   52.7933 O   0  0  0  0  0  0  0  0  0  0  0  0
   26.4282   -0.9844   53.0564 O   0  0  0  0  0  0  0  0  0  0  0  0
  1  2  1  0  0  0  0
  1 12  1  6  0  0  0
  1 13  1  0  0  0  0
  2  3  1  0  0  0  0
  2 10  1  6  0  0  0
  4  3  1  6  0  0  0
  4  5  1  0  0  0  0
  4 14  1  0  0  0  0
  5  6  1  0  0  0  0
  5 13  1  6  0  0  0
  6  7  1  0  0  0  0
  6 15  1  1  0  0  0
  7  8  1  0  0  0  0
  7 11  1  1  0  0  0
  8 14  1  0  0  0  0
  8 16  1  6  0  0  0
  9 11  1  0  0  0  0
 17 16  1  6  0  0  0
 17 18  1  0  0  0  0
 17 24  1  0  0  0  0
 18 19  1  0  0  0  0
 18 25  1  6  0  0  0
 19 20  1  0  0  0  0
 19 26  1  1  0  0  0
 20 21  1  0  0  0  0
 20 23  1  6  0  0  0
 21 22  1  1  0  0  0
 21 24  1  0  0  0  0
 22 27  1  0  0  0  0
 28 12  1  1  0  0  0
 28 29  1  0  0  0  0
 28 33  1  0  0  0  0
 29 30  1  0  0  0  0
 29 36  1  6  0  0  0
 30 31  1  0  0  0  0
 30 37  1  1  0  0  0
 31 32  1  0  0  0  0
 31 34  1  6  0  0  0
 32 33  1  0  0  0  0
 33 35  1  6  0  0  0
M  END
>  <CHROM.1>
-161.90872135,70.82486981,-76.05289476,-112.17925399,60.32318865,-67.30540625
21.16085049,0.79973054,54.72776410,1.03138001,0.05890238,-2.17960130

>  <Name>
2oe5_lig

>  <RI>
0

>  <Rbt.Current_Directory>
/home/itssahil/PROJECTS/Mol_Feturizer/New_Systems/rnas/2oe5

>  <Rbt.Executable>
rbdock ($Id: //depot/dev/client3/rdock/2013.1/src/exe/rbdock.cxx#4 $)

>  <Rbt.Library>
libRbt.so (2013.1, Build901 2013/11/27)

>  <Rbt.Parameter_File>
/export/apps/rDock/src/rDock_2013.1_src/data/scripts/dock_solv.prm

>  <Rbt.Receptor>
prm/pocket_docking_6.prm

>  <SCORE>
-15.7844

>  <SCORE.INTER>
-14.8956

>  <SCORE.INTER.CONST>
1

>  <SCORE.INTER.POLAR>
-1.66777

>  <SCORE.INTER.ROT>
6

>  <SCORE.INTER.SOLV>
13.4682

>  <SCORE.INTER.VDW>
-16.4606

>  <SCORE.INTER.norm>
-0.402583

>  <SCORE.INTRA>
-0.888855

>  <SCORE.INTRA.DIHEDRAL>
-6.19604

>  <SCORE.INTRA.DIHEDRAL.0>
16.2083

>  <SCORE.INTRA.POLAR>
0

>  <SCORE.INTRA.POLAR.0>
0

>  <SCORE.INTRA.REPUL>
0

>  <SCORE.INTRA.REPUL.0>
0

>  <SCORE.INTRA.SOLV>
0.601449

>  <SCORE.INTRA.SOLV.lig_0>
-89.8095

>  <SCORE.INTRA.VDW>
1.90844

>  <SCORE.INTRA.VDW.0>
-3.19502

>  <SCORE.INTRA.norm>
-0.0240231

>  <SCORE.RESTR>
0

>  <SCORE.RESTR.CAVITY>
0

>  <SCORE.RESTR.norm>
0

>  <SCORE.SYSTEM>
0

>  <SCORE.SYSTEM.CONST>
0

>  <SCORE.SYSTEM.DIHEDRAL>
0

>  <SCORE.SYSTEM.SOLV>
0

>  <SCORE.SYSTEM.norm>
0

>  <SCORE.heavy>
37

>  <SCORE.norm>
-0.426606

>  <RMSD>
9.629

$$$$
2oe5_lig
 OpenBabel11021811463D
libRbt.so/2013.1/901 2013/11/27
 37 40  0  0  0  0  0  0  0  0999 V2000
   20.1164   -4.9402   49.8795 C   0  0  1  0  0  0  0  0  0  0  0  0
   19.0877   -4.5215   50.9537 C   0  0  1  0  0  0  0  0  0  0  0  0
   19.3273   -3.0155   51.3432 C   0  0  0  0  0  0  0  0  0  0  0  0
   20.7792   -2.9560   51.8685 C   0  0  1  0  0  0  0  0  0  0  0  0
   21.8248   -3.3951   50.7505 C   0  0  1  0  0  0  0  0  0  0  0  0
   23.2921   -3.3354   51.2561 C   0  0  1  0  0  0  0  0  0  0  0  0
   23.5604   -1.8658   51.6888 C   0  0  1  0  0  0  0  0  0  0  0  0
   22.4789   -1.4584   52.7600 C   0  0  2  0  0  0  0  0  0  0  0  0
   26.1586   -1.9470   51.3640 C   0  0  0  0  0  0  0  0  0  0  0  0
   17.7128   -4.6818   50.4272 N   0  0  0  0  0  0  0  0  0  0  0  0
   24.9590   -1.7283   52.2453 N   0  0  0  0  0  0  0  0  0  0  0  0
   19.9616   -4.1881   48.6649 O   0  0  0  0  0  0  0  0  0  0  0  0
   21.5024   -4.7627   50.3382 O   0  0  0  0  0  0  0  0  0  0  0  0
   21.0970   -1.5935   52.2599 O   0  0  0  0  0  0  0  0  0  0  0  0
   23.4170   -4.2436   52.3551 O   0  0  0  0  0  0  0  0  0  0  0  0
   22.6524   -0.1053   53.1316 O   0  0  0  0  0  0  0  0  0  0  0  0
   21.8651    0.1937   54.2691 C   0  0  2  0  0  0  0  0  0  0  0  0
   21.8016    1.6939   54.5532 C   0  0  1  0  0  0  0  0  0  0  0  0
   23.2041    2.2567   54.9131 C   0  0  2  0  0  0  0  0  0  0  0  0
   23.7305    1.4545   56.1400 C   0  0  1  0  0  0  0  0  0  0  0  0
   23.8042   -0.0557   55.7398 C   0  0  1  0  0  0  0  0  0  0  0  0
   24.2566   -0.9420   56.8788 C   0  0  0  0  0  0  0  0  0  0  0  0
   25.0944    1.9966   56.5002 N   0  0  0  0  0  0  0  0  0  0  0  0
   22.4432   -0.5014   55.4182 O   0  0  0  0  0  0  0  0  0  0  0  0
   21.2784    2.3365   53.3738 O   0  0  0  0  0  0  0  0  0  0  0  0
   23.0500    3.6416   55.2727 O   0  0  0  0  0  0  0  0  0  0  0  0
   24.4249   -2.2586   56.4776 O   0  0  0  0  0  0  0  0  0  0  0  0
   18.8373   -4.5773   47.8755 C   0  0  1  0  0  0  0  0  0  0  0  0
   18.2804   -3.3357   47.0913 C   0  0  1  0  0  0  0  0  0  0  0  0
   17.0541   -3.7912   46.2211 C   0  0  2  0  0  0  0  0  0  0  0  0
   17.5114   -4.8638   45.2210 C   0  0  1  0  0  0  0  0  0  0  0  0
   18.0571   -6.1158   46.0102 C   0  0  0  0  0  0  0  0  0  0  0  0
   19.2804   -5.6574   46.8978 C   0  0  2  0  0  0  0  0  0  0  0  0
   16.3728   -5.2628   44.4102 N   0  0  0  0  0  0  0  0  0  0  0  0
   19.8113   -6.8070   47.6766 N   0  0  0  0  0  0  0  0  0  0  0  0
   17.8461   -2.3155   48.0358 O   0  0  0  0  0  0  0  0  0  0  0  0
   16.5649   -2.6887   45.5045 O   0  0  0  0  0  0  0  0  0  0  0  0
  1  2  1  0  0  0  0
  1 12  1  6  0  0  0
  1 13  1  0  0  0  0
  2  3  1  0  0  0  0
  2 10  1  6  0  0  0
  4  3  1  6  0  0  0
  4  5  1  0  0  0  0
  4 14  1  0  0  0  0
  5  6  1  0  0  0  0
  5 13  1  1  0  0  0
  6  7  1  0  0  0  0
  6 15  1  1  0  0  0
  7  8  1  0  0  0  0
  7 11  1  1  0  0  0
  8 14  1  0  0  0  0
  8 16  1  6  0  0  0
  9 11  1  0  0  0  0
 17 16  1  6  0  0  0
 17 18  1  0  0  0  0
 17 24  1  0  0  0  0
 18 19  1  0  0  0  0
 18 25  1  6  0  0  0
 19 20  1  0  0  0  0
 19 26  1  1  0  0  0
 20 21  1  0  0  0  0
 20 23  1  6  0  0  0
 21 22  1  1  0  0  0
 21 24  1  0  0  0  0
 22 27  1  0  0  0  0
 28 12  1  6  0  0  0
 28 29  1  0  0  0  0
 28 33  1  0  0  0  0
 29 30  1  0  0  0  0
 29 36  1  1  0  0  0
 30 31  1  0  0  0  0
 30 37  1  6  0  0  0
 31 32  1  0  0  0  0
 31 34  1  1  0  0  0
 32 33  1  0  0  0  0
 33 35  1  1  0  0  0
M  END
>  <CHROM.1>
-74.98297229,65.08723612,-168.65031797,-168.96124499,-174.92097420,148.91911462
21.17008095,-2.24620574,51.27022650,-2.25810590,-0.67903357,0.52896462

>  <Name>
2oe5_lig

>  <RI>
0

>  <Rbt.Current_Directory>
/home/itssahil/PROJECTS/Mol_Feturizer/New_Systems/rnas/2oe5

>  <Rbt.Executable>
rbdock ($Id: //depot/dev/client3/rdock/2013.1/src/exe/rbdock.cxx#4 $)

>  <Rbt.Library>
libRbt.so (2013.1, Build901 2013/11/27)

>  <Rbt.Parameter_File>
/export/apps/rDock/src/rDock_2013.1_src/data/scripts/dock_solv.prm

>  <Rbt.Receptor>
prm/pocket_docking_5.prm

>  <SCORE>
-18.424

>  <SCORE.INTER>
-14.5994

>  <SCORE.INTER.CONST>
1

>  <SCORE.INTER.POLAR>
-1.9924

>  <SCORE.INTER.ROT>
6

>  <SCORE.INTER.SOLV>
12.6336

>  <SCORE.INTER.VDW>
-14.9028

>  <SCORE.INTER.norm>
-0.394578

>  <SCORE.INTRA>
-3.82463

>  <SCORE.INTRA.DIHEDRAL>
-9.96463

>  <SCORE.INTRA.DIHEDRAL.0>
16.2083

>  <SCORE.INTRA.POLAR>
0

>  <SCORE.INTRA.POLAR.0>
0

>  <SCORE.INTRA.REPUL>
0

>  <SCORE.INTRA.REPUL.0>
0

>  <SCORE.INTRA.SOLV>
0.747611

>  <SCORE.INTRA.SOLV.lig_0>
-89.8095

>  <SCORE.INTRA.VDW>
0.78388

>  <SCORE.INTRA.VDW.0>
-3.19502

>  <SCORE.INTRA.norm>
-0.103368

>  <SCORE.RESTR>
0

>  <SCORE.RESTR.CAVITY>
0

>  <SCORE.RESTR.norm>
0

>  <SCORE.SYSTEM>
0

>  <SCORE.SYSTEM.CONST>
0

>  <SCORE.SYSTEM.DIHEDRAL>
0

>  <SCORE.SYSTEM.SOLV>
0

>  <SCORE.SYSTEM.norm>
0

>  <SCORE.heavy>
37

>  <SCORE.norm>
-0.497947

>  <RMSD>
9.644

$$$$
2oe5_lig
 OpenBabel11021811463D
libRbt.so/2013.1/901 2013/11/27
 37 40  0  0  0  0  0  0  0  0999 V2000
   22.2437   -3.1446   48.7311 C   0  0  1  0  0  0  0  0  0  0  0  0
   23.2466   -3.8167   49.6954 C   0  0  1  0  0  0  0  0  0  0  0  0
   22.6967   -3.7200   51.1669 C   0  0  0  0  0  0  0  0  0  0  0  0
   22.5402   -2.2083   51.4454 C   0  0  1  0  0  0  0  0  0  0  0  0
   21.5073   -1.5314   50.4398 C   0  0  1  0  0  0  0  0  0  0  0  0
   21.3297   -0.0119   50.7075 C   0  0  1  0  0  0  0  0  0  0  0  0
   20.8214    0.1319   52.1703 C   0  0  1  0  0  0  0  0  0  0  0  0
   21.8471   -0.5884   53.1253 C   0  0  2  0  0  0  0  0  0  0  0  0
   19.6354    2.0269   53.5359 C   0  0  0  0  0  0  0  0  0  0  0  0
   23.4249   -5.2404   49.3283 N   0  0  0  0  0  0  0  0  0  0  0  0
   20.6692    1.5912   52.5334 N   0  0  0  0  0  0  0  0  0  0  0  0
   20.9731   -3.8158   48.7233 O   0  0  0  0  0  0  0  0  0  0  0  0
   21.9998   -1.7359   49.0760 O   0  0  0  0  0  0  0  0  0  0  0  0
   22.0357   -2.0141   52.7940 O   0  0  0  0  0  0  0  0  0  0  0  0
   22.6006    0.6198   50.5227 O   0  0  0  0  0  0  0  0  0  0  0  0
   21.3853   -0.5332   54.4606 O   0  0  0  0  0  0  0  0  0  0  0  0
   22.1843   -1.3574   55.2883 C   0  0  2  0  0  0  0  0  0  0  0  0
   21.8204   -1.2226   56.7665 C   0  0  1  0  0  0  0  0  0  0  0  0
   22.1052    0.2136   57.2856 C   0  0  2  0  0  0  0  0  0  0  0  0
   23.6112    0.5154   57.0278 C   0  0  1  0  0  0  0  0  0  0  0  0
   23.8757    0.3986   55.4907 C   0  0  1  0  0  0  0  0  0  0  0  0
   25.3267    0.6222   55.1274 C   0  0  0  0  0  0  0  0  0  0  0  0
   23.8995    1.9105   57.5324 N   0  0  0  0  0  0  0  0  0  0  0  0
   23.5834   -0.9827   55.0891 O   0  0  0  0  0  0  0  0  0  0  0  0
   20.4227   -1.5485   56.9002 O   0  0  0  0  0  0  0  0  0  0  0  0
   21.8443    0.2361   58.7007 O   0  0  0  0  0  0  0  0  0  0  0  0
   25.5197    0.6546   53.7547 O   0  0  0  0  0  0  0  0  0  0  0  0
   20.0052   -3.2253   47.8554 C   0  0  1  0  0  0  0  0  0  0  0  0
   20.4551   -3.3953   46.3602 C   0  0  1  0  0  0  0  0  0  0  0  0
   19.3693   -2.7506   45.4254 C   0  0  2  0  0  0  0  0  0  0  0  0
   18.0262   -3.4648   45.6391 C   0  0  1  0  0  0  0  0  0  0  0  0
   17.5688   -3.2811   47.1375 C   0  0  0  0  0  0  0  0  0  0  0  0
   18.6662   -3.9147   48.0801 C   0  0  2  0  0  0  0  0  0  0  0  0
   17.0356   -2.8720   44.7557 N   0  0  0  0  0  0  0  0  0  0  0  0
   18.2825   -3.7423   49.5060 N   0  0  0  0  0  0  0  0  0  0  0  0
   21.7288   -2.7200   46.1531 O   0  0  0  0  0  0  0  0  0  0  0  0
   19.7582   -2.9165   44.0877 O   0  0  0  0  0  0  0  0  0  0  0  0
  1  2  1  0  0  0  0
  1 12  1  1  0  0  0
  1 13  1  0  0  0  0
  2  3  1  0  0  0  0
  2 10  1  6  0  0  0
  4  3  1  6  0  0  0
  4  5  1  0  0  0  0
  4 14  1  0  0  0  0
  5  6  1  0  0  0  0
  5 13  1  6  0  0  0
  6  7  1  0  0  0  0
  6 15  1  1  0  0  0
  7  8  1  0  0  0  0
  7 11  1  1  0  0  0
  8 14  1  0  0  0  0
  8 16  1  1  0  0  0
  9 11  1  0  0  0  0
 17 16  1  6  0  0  0
 17 18  1  0  0  0  0
 17 24  1  0  0  0  0
 18 19  1  0  0  0  0
 18 25  1  6  0  0  0
 19 20  1  0  0  0  0
 19 26  1  1  0  0  0
 20 21  1  0  0  0  0
 20 23  1  6  0  0  0
 21 22  1  1  0  0  0
 21 24  1  0  0  0  0
 22 27  1  0  0  0  0
 28 12  1  1  0  0  0
 28 29  1  0  0  0  0
 28 33  1  0  0  0  0
 29 30  1  0  0  0  0
 29 36  1  1  0  0  0
 30 31  1  0  0  0  0
 30 37  1  6  0  0  0
 31 32  1  0  0  0  0
 31 34  1  6  0  0  0
 32 33  1  0  0  0  0
 33 35  1  1  0  0  0
M  END
>  <CHROM.1>
179.46521018,150.29405232,170.61770111,174.03678231,-173.68094724,66.90071751
21.48136082,-1.51485892,51.44344278,-1.87456061,-0.15062738,1.17916443

>  <Name>
2oe5_lig

>  <RI>
0

>  <Rbt.Current_Directory>
/home/itssahil/PROJECTS/Mol_Feturizer/New_Systems/rnas/2oe5

>  <Rbt.Executable>
rbdock ($Id: //depot/dev/client3/rdock/2013.1/src/exe/rbdock.cxx#4 $)

>  <Rbt.Library>
libRbt.so (2013.1, Build901 2013/11/27)

>  <Rbt.Parameter_File>
/export/apps/rDock/src/rDock_2013.1_src/data/scripts/dock_solv.prm

>  <Rbt.Receptor>
prm/pocket_docking_5.prm

>  <SCORE>
-24.6589

>  <SCORE.INTER>
-18.5562

>  <SCORE.INTER.CONST>
1

>  <SCORE.INTER.POLAR>
-2.27579

>  <SCORE.INTER.ROT>
6

>  <SCORE.INTER.SOLV>
13.4276

>  <SCORE.INTER.VDW>
-16.8607

>  <SCORE.INTER.norm>
-0.50152

>  <SCORE.INTRA>
-6.10262

>  <SCORE.INTRA.DIHEDRAL>
-14.5541

>  <SCORE.INTRA.DIHEDRAL.0>
16.2083

>  <SCORE.INTRA.POLAR>
0

>  <SCORE.INTRA.POLAR.0>
0

>  <SCORE.INTRA.REPUL>
0.000109879

>  <SCORE.INTRA.REPUL.0>
0

>  <SCORE.INTRA.SOLV>
-3.13054

>  <SCORE.INTRA.SOLV.lig_0>
-89.8095

>  <SCORE.INTRA.VDW>
2.73918

>  <SCORE.INTRA.VDW.0>
-3.19502

>  <SCORE.INTRA.norm>
-0.164936

>  <SCORE.RESTR>
0

>  <SCORE.RESTR.CAVITY>
0

>  <SCORE.RESTR.norm>
0

>  <SCORE.SYSTEM>
0

>  <SCORE.SYSTEM.CONST>
0

>  <SCORE.SYSTEM.DIHEDRAL>
0

>  <SCORE.SYSTEM.SOLV>
0

>  <SCORE.SYSTEM.norm>
0

>  <SCORE.heavy>
37

>  <SCORE.norm>
-0.666456

>  <RMSD>
9.646

$$$$
2oe5_lig
 OpenBabel11021811463D
libRbt.so/2013.1/901 2013/11/27
 37 40  0  0  0  0  0  0  0  0999 V2000
   19.6667   -2.3395   49.4576 C   0  0  1  0  0  0  0  0  0  0  0  0
   20.9824   -3.0648   49.8185 C   0  0  1  0  0  0  0  0  0  0  0  0
   21.0901   -3.1975   51.3830 C   0  0  0  0  0  0  0  0  0  0  0  0
   21.0545   -1.7486   51.9188 C   0  0  1  0  0  0  0  0  0  0  0  0
   19.6944   -1.0152   51.5336 C   0  0  1  0  0  0  0  0  0  0  0  0
   19.6350    0.4414   52.0693 C   0  0  1  0  0  0  0  0  0  0  0  0
   19.7767    0.3592   53.6159 C   0  0  1  0  0  0  0  0  0  0  0  0
   21.1096   -0.4111   53.9521 C   0  0  2  0  0  0  0  0  0  0  0  0
   18.4959    2.5112   54.3848 C   0  0  0  0  0  0  0  0  0  0  0  0
   21.0007   -4.4135   49.2069 N   0  0  0  0  0  0  0  0  0  0  0  0
   19.7803    1.7454   54.2183 N   0  0  0  0  0  0  0  0  0  0  0  0
   18.5105   -3.0856   49.8717 O   0  0  0  0  0  0  0  0  0  0  0  0
   19.5795   -1.0070   50.0738 O   0  0  0  0  0  0  0  0  0  0  0  0
   21.1521   -1.7658   53.3682 O   0  0  0  0  0  0  0  0  0  0  0  0
   20.7120    1.1736   51.4758 O   0  0  0  0  0  0  0  0  0  0  0  0
   21.2413   -0.5612   55.3518 O   0  0  0  0  0  0  0  0  0  0  0  0
   22.5228   -1.0706   55.6701 C   0  0  2  0  0  0  0  0  0  0  0  0
   22.8105   -1.0227   57.1702 C   0  0  1  0  0  0  0  0  0  0  0  0
   22.8535    0.4417   57.6868 C   0  0  2  0  0  0  0  0  0  0  0  0
   23.9371    1.1981   56.8626 C   0  0  1  0  0  0  0  0  0  0  0  0
   23.5340    1.1344   55.3527 C   0  0  1  0  0  0  0  0  0  0  0  0
   24.5483    1.7968   54.4472 C   0  0  0  0  0  0  0  0  0  0  0  0
   23.9889    2.6244   57.3598 N   0  0  0  0  0  0  0  0  0  0  0  0
   23.5191   -0.2774   54.9517 O   0  0  0  0  0  0  0  0  0  0  0  0
   21.7728   -1.7706   57.8346 O   0  0  0  0  0  0  0  0  0  0  0  0
   23.2349    0.4142   59.0741 O   0  0  0  0  0  0  0  0  0  0  0  0
   24.6349    3.1618   54.6746 O   0  0  0  0  0  0  0  0  0  0  0  0
   18.2199   -4.2170   49.0506 C   0  0  1  0  0  0  0  0  0  0  0  0
   17.4482   -5.2993   49.8873 C   0  0  1  0  0  0  0  0  0  0  0  0
   17.1284   -6.5268   48.9602 C   0  0  2  0  0  0  0  0  0  0  0  0
   16.2487   -6.0635   47.7892 C   0  0  1  0  0  0  0  0  0  0  0  0
   17.0307   -4.9871   46.9418 C   0  0  0  0  0  0  0  0  0  0  0  0
   17.3670   -3.7585   47.8755 C   0  0  2  0  0  0  0  0  0  0  0  0
   15.9447   -7.2110   46.9502 N   0  0  0  0  0  0  0  0  0  0  0  0
   18.1254   -2.7283   47.1182 N   0  0  0  0  0  0  0  0  0  0  0  0
   18.2785   -5.7412   50.9994 O   0  0  0  0  0  0  0  0  0  0  0  0
   16.4227   -7.4884   49.6989 O   0  0  0  0  0  0  0  0  0  0  0  0
  1  2  1  0  0  0  0
  1 12  1  1  0  0  0
  1 13  1  0  0  0  0
  2  3  1  0  0  0  0
  2 10  1  6  0  0  0
  4  3  1  1  0  0  0
  4  5  1  0  0  0  0
  4 14  1  0  0  0  0
  5  6  1  0  0  0  0
  5 13  1  6  0  0  0
  6  7  1  0  0  0  0
  6 15  1  6  0  0  0
  7  8  1  0  0  0  0
  7 11  1  1  0  0  0
  8 14  1  0  0  0  0
  8 16  1  1  0  0  0
  9 11  1  0  0  0  0
 17 16  1  1  0  0  0
 17 18  1  0  0  0  0
 17 24  1  0  0  0  0
 18 19  1  0  0  0  0
 18 25  1  1  0  0  0
 19 20  1  0  0  0  0
 19 26  1  1  0  0  0
 20 21  1  0  0  0  0
 20 23  1  1  0  0  0
 21 22  1  6  0  0  0
 21 24  1  0  0  0  0
 22 27  1  0  0  0  0
 28 12  1  1  0  0  0
 28 29  1  0  0  0  0
 28 33  1  0  0  0  0
 29 30  1  0  0  0  0
 29 36  1  1  0  0  0
 30 31  1  0  0  0  0
 30 37  1  1  0  0  0
 31 32  1  0  0  0  0
 31 34  1  6  0  0  0
 32 33  1  0  0  0  0
 33 35  1  6  0  0  0
M  END
>  <CHROM.1>
-75.09794838,77.71105958,-171.30229350,169.95069921,-65.11956796,153.44115100
20.37266074,-1.70071754,52.42955749,3.14065844,1.06931251,2.47128139

>  <Name>
2oe5_lig

>  <RI>
0

>  <Rbt.Current_Directory>
/home/itssahil/PROJECTS/Mol_Feturizer/New_Systems/rnas/2oe5

>  <Rbt.Executable>
rbdock ($Id: //depot/dev/client3/rdock/2013.1/src/exe/rbdock.cxx#4 $)

>  <Rbt.Library>
libRbt.so (2013.1, Build901 2013/11/27)

>  <Rbt.Parameter_File>
/export/apps/rDock/src/rDock_2013.1_src/data/scripts/dock_solv.prm

>  <Rbt.Receptor>
prm/pocket_docking_7.prm

>  <SCORE>
-22.9475

>  <SCORE.INTER>
-20.1143

>  <SCORE.INTER.CONST>
1

>  <SCORE.INTER.POLAR>
-1.88343

>  <SCORE.INTER.ROT>
6

>  <SCORE.INTER.SOLV>
14.3387

>  <SCORE.INTER.VDW>
-19.511

>  <SCORE.INTER.norm>
-0.54363

>  <SCORE.INTRA>
-2.83324

>  <SCORE.INTRA.DIHEDRAL>
-10.9149

>  <SCORE.INTRA.DIHEDRAL.0>
16.2083

>  <SCORE.INTRA.POLAR>
0

>  <SCORE.INTRA.POLAR.0>
0

>  <SCORE.INTRA.REPUL>
0

>  <SCORE.INTRA.REPUL.0>
0

>  <SCORE.INTRA.SOLV>
1.91536

>  <SCORE.INTRA.SOLV.lig_0>
-89.8095

>  <SCORE.INTRA.VDW>
1.66653

>  <SCORE.INTRA.VDW.0>
-3.19502

>  <SCORE.INTRA.norm>
-0.076574

>  <SCORE.RESTR>
0

>  <SCORE.RESTR.CAVITY>
0

>  <SCORE.RESTR.norm>
0

>  <SCORE.SYSTEM>
0

>  <SCORE.SYSTEM.CONST>
0

>  <SCORE.SYSTEM.DIHEDRAL>
0

>  <SCORE.SYSTEM.SOLV>
0

>  <SCORE.SYSTEM.norm>
0

>  <SCORE.heavy>
37

>  <SCORE.norm>
-0.620203

>  <RMSD>
9.660

$$$$
2oe5_lig
 OpenBabel11021811463D
libRbt.so/2013.1/901 2013/11/27
 37 40  0  0  0  0  0  0  0  0999 V2000
   21.5687   -5.2992   49.0597 C   0  0  1  0  0  0  0  0  0  0  0  0
   21.7144   -6.1204   50.3604 C   0  0  1  0  0  0  0  0  0  0  0  0
   20.9590   -5.3828   51.5277 C   0  0  0  0  0  0  0  0  0  0  0  0
   21.6288   -3.9945   51.6339 C   0  0  1  0  0  0  0  0  0  0  0  0
   21.4732   -3.1644   50.2837 C   0  0  1  0  0  0  0  0  0  0  0  0
   22.1337   -1.7615   50.3718 C   0  0  1  0  0  0  0  0  0  0  0  0
   21.4398   -1.0091   51.5427 C   0  0  1  0  0  0  0  0  0  0  0  0
   21.5782   -1.8839   52.8461 C   0  0  2  0  0  0  0  0  0  0  0  0
   21.7612    1.4737   50.7714 C   0  0  0  0  0  0  0  0  0  0  0  0
   21.1351   -7.4706   50.1739 N   0  0  0  0  0  0  0  0  0  0  0  0
   22.0610    0.3556   51.7326 N   0  0  0  0  0  0  0  0  0  0  0  0
   20.1982   -5.1952   48.6403 O   0  0  0  0  0  0  0  0  0  0  0  0
   22.0942   -3.9331   49.2031 O   0  0  0  0  0  0  0  0  0  0  0  0
   20.9965   -3.2319   52.6967 O   0  0  0  0  0  0  0  0  0  0  0  0
   23.5319   -1.9471   50.6144 O   0  0  0  0  0  0  0  0  0  0  0  0
   20.9031   -1.2604   53.9207 O   0  0  0  0  0  0  0  0  0  0  0  0
   21.6899   -0.2085   54.4474 C   0  0  2  0  0  0  0  0  0  0  0  0
   21.9736   -0.3862   55.9385 C   0  0  1  0  0  0  0  0  0  0  0  0
   20.6632   -0.3231   56.7703 C   0  0  2  0  0  0  0  0  0  0  0  0
   19.9807    1.0438   56.4673 C   0  0  1  0  0  0  0  0  0  0  0  0
   19.6892    1.1133   54.9322 C   0  0  1  0  0  0  0  0  0  0  0  0
   19.0698    2.4278   54.5127 C   0  0  0  0  0  0  0  0  0  0  0  0
   18.7052    1.1164   57.2746 N   0  0  0  0  0  0  0  0  0  0  0  0
   20.9754    1.0482   54.2280 O   0  0  0  0  0  0  0  0  0  0  0  0
   22.6268   -1.6600   56.1065 O   0  0  0  0  0  0  0  0  0  0  0  0
   21.0162   -0.3871   58.1640 O   0  0  0  0  0  0  0  0  0  0  0  0
   18.8457    2.4839   53.1455 O   0  0  0  0  0  0  0  0  0  0  0  0
   19.9574   -4.1675   47.6788 C   0  0  1  0  0  0  0  0  0  0  0  0
   20.5381   -4.5955   46.2836 C   0  0  1  0  0  0  0  0  0  0  0  0
   20.2494   -3.4562   45.2409 C   0  0  2  0  0  0  0  0  0  0  0  0
   18.7319   -3.2499   45.1210 C   0  0  1  0  0  0  0  0  0  0  0  0
   18.1524   -2.8064   46.5194 C   0  0  0  0  0  0  0  0  0  0  0  0
   18.4550   -3.9432   47.5732 C   0  0  2  0  0  0  0  0  0  0  0  0
   18.4779   -2.2074   44.1403 N   0  0  0  0  0  0  0  0  0  0  0  0
   17.9429   -3.5531   48.9132 N   0  0  0  0  0  0  0  0  0  0  0  0
   21.9770   -4.7929   46.3927 O   0  0  0  0  0  0  0  0  0  0  0  0
   20.7503   -3.8425   43.9886 O   0  0  0  0  0  0  0  0  0  0  0  0
  1  2  1  0  0  0  0
  1 12  1  1  0  0  0
  1 13  1  0  0  0  0
  2  3  1  0  0  0  0
  2 10  1  6  0  0  0
  4  3  1  6  0  0  0
  4  5  1  0  0  0  0
  4 14  1  0  0  0  0
  5  6  1  0  0  0  0
  5 13  1  6  0  0  0
  6  7  1  0  0  0  0
  6 15  1  1  0  0  0
  7  8  1  0  0  0  0
  7 11  1  1  0  0  0
  8 14  1  0  0  0  0
  8 16  1  1  0  0  0
  9 11  1  0  0  0  0
 17 16  1  1  0  0  0
 17 18  1  0  0  0  0
 17 24  1  0  0  0  0
 18 19  1  0  0  0  0
 18 25  1  6  0  0  0
 19 20  1  0  0  0  0
 19 26  1  1  0  0  0
 20 21  1  0  0  0  0
 20 23  1  1  0  0  0
 21 22  1  1  0  0  0
 21 24  1  0  0  0  0
 22 27  1  0  0  0  0
 28 12  1  1  0  0  0
 28 29  1  0  0  0  0
 28 33  1  0  0  0  0
 29 30  1  0  0  0  0
 29 36  1  1  0  0  0
 30 31  1  0  0  0  0
 30 37  1  6  0  0  0
 31 32  1  0  0  0  0
 31 34  1  6  0  0  0
 32 33  1  0  0  0  0
 33 35  1  1  0  0  0
M  END
>  <CHROM.1>
163.72091722,74.93633643,-78.62652746,-122.81454779,178.65490007,72.90950442
20.71578951,-2.14676338,51.08279067,-1.67816358,-1.11470088,1.00217550

>  <Name>
2oe5_lig

>  <RI>
0

>  <Rbt.Current_Directory>
/home/itssahil/PROJECTS/Mol_Feturizer/New_Systems/rnas/2oe5

>  <Rbt.Executable>
rbdock ($Id: //depot/dev/client3/rdock/2013.1/src/exe/rbdock.cxx#4 $)

>  <Rbt.Library>
libRbt.so (2013.1, Build901 2013/11/27)

>  <Rbt.Parameter_File>
/export/apps/rDock/src/rDock_2013.1_src/data/scripts/dock_solv.prm

>  <Rbt.Receptor>
prm/pocket_docking_6.prm

>  <SCORE>
-23.4334

>  <SCORE.INTER>
-21.3542

>  <SCORE.INTER.CONST>
1

>  <SCORE.INTER.POLAR>
-2.63187

>  <SCORE.INTER.ROT>
6

>  <SCORE.INTER.SOLV>
21.9911

>  <SCORE.INTER.VDW>
-20.3937

>  <SCORE.INTER.norm>
-0.577142

>  <SCORE.INTRA>
-2.07915

>  <SCORE.INTRA.DIHEDRAL>
-5.20326

>  <SCORE.INTRA.DIHEDRAL.0>
16.2083

>  <SCORE.INTRA.POLAR>
0

>  <SCORE.INTRA.POLAR.0>
0

>  <SCORE.INTRA.REPUL>
0

>  <SCORE.INTRA.REPUL.0>
0

>  <SCORE.INTRA.SOLV>
-1.40604

>  <SCORE.INTRA.SOLV.lig_0>
-89.8095

>  <SCORE.INTRA.VDW>
1.2255

>  <SCORE.INTRA.VDW.0>
-3.19502

>  <SCORE.INTRA.norm>
-0.0561933

>  <SCORE.RESTR>
0

>  <SCORE.RESTR.CAVITY>
0

>  <SCORE.RESTR.norm>
0

>  <SCORE.SYSTEM>
0

>  <SCORE.SYSTEM.CONST>
0

>  <SCORE.SYSTEM.DIHEDRAL>
0

>  <SCORE.SYSTEM.SOLV>
0

>  <SCORE.SYSTEM.norm>
0

>  <SCORE.heavy>
37

>  <SCORE.norm>
-0.633335

>  <RMSD>
9.665

$$$$
2oe5_lig
 OpenBabel11021811463D
libRbt.so/2013.1/901 2013/11/27
 37 40  0  0  0  0  0  0  0  0999 V2000
   19.9923   -3.8192   47.8935 C   0  0  1  0  0  0  0  0  0  0  0  0
   18.8046   -2.9176   48.2984 C   0  0  1  0  0  0  0  0  0  0  0  0
   17.5450   -3.2990   47.4352 C   0  0  0  0  0  0  0  0  0  0  0  0
   17.9741   -3.0777   45.9675 C   0  0  1  0  0  0  0  0  0  0  0  0
   19.2017   -4.0109   45.5692 C   0  0  1  0  0  0  0  0  0  0  0  0
   19.6445   -3.8092   44.0943 C   0  0  1  0  0  0  0  0  0  0  0  0
   18.4127   -4.1403   43.2044 C   0  0  1  0  0  0  0  0  0  0  0  0
   17.2112   -3.2285   43.6606 C   0  0  2  0  0  0  0  0  0  0  0  0
   17.8287   -4.4348   40.6677 C   0  0  0  0  0  0  0  0  0  0  0  0
   18.4935   -3.1052   49.7342 N   0  0  0  0  0  0  0  0  0  0  0  0
   18.7427   -3.9194   41.7460 N   0  0  0  0  0  0  0  0  0  0  0  0
   19.7317   -5.2059   48.1656 O   0  0  0  0  0  0  0  0  0  0  0  0
   20.3182   -3.7005   46.4644 O   0  0  0  0  0  0  0  0  0  0  0  0
   16.8670   -3.4034   45.0850 O   0  0  0  0  0  0  0  0  0  0  0  0
   20.0597   -2.4482   43.9409 O   0  0  0  0  0  0  0  0  0  0  0  0
   16.0529   -3.5461   42.9146 O   0  0  0  0  0  0  0  0  0  0  0  0
   15.1086   -2.4960   43.0077 C   0  0  2  0  0  0  0  0  0  0  0  0
   13.8268   -2.9292   43.7182 C   0  0  1  0  0  0  0  0  0  0  0  0
   13.0824   -4.0284   42.9118 C   0  0  2  0  0  0  0  0  0  0  0  0
   12.7949   -3.4552   41.4924 C   0  0  1  0  0  0  0  0  0  0  0  0
   14.1626   -3.0853   40.8299 C   0  0  1  0  0  0  0  0  0  0  0  0
   14.0011   -2.4668   39.4592 C   0  0  0  0  0  0  0  0  0  0  0  0
   12.0676   -4.5169   40.7000 N   0  0  0  0  0  0  0  0  0  0  0  0
   14.7931   -2.0462   41.6528 O   0  0  0  0  0  0  0  0  0  0  0  0
   14.1978   -3.4137   45.0241 O   0  0  0  0  0  0  0  0  0  0  0  0
   11.8387   -4.3068   43.5802 O   0  0  0  0  0  0  0  0  0  0  0  0
   13.5476   -1.1583   39.5296 O   0  0  0  0  0  0  0  0  0  0  0  0
   20.7897   -6.0855   47.7839 C   0  0  1  0  0  0  0  0  0  0  0  0
   21.9222   -6.0616   48.8718 C   0  0  1  0  0  0  0  0  0  0  0  0
   23.0671   -7.0456   48.4367 C   0  0  2  0  0  0  0  0  0  0  0  0
   22.4983   -8.4680   48.3227 C   0  0  1  0  0  0  0  0  0  0  0  0
   21.3710   -8.4935   47.2197 C   0  0  0  0  0  0  0  0  0  0  0  0
   20.2258   -7.4933   47.6471 C   0  0  2  0  0  0  0  0  0  0  0  0
   23.5706   -9.3710   47.9382 N   0  0  0  0  0  0  0  0  0  0  0  0
   19.1512   -7.4713   46.6201 N   0  0  0  0  0  0  0  0  0  0  0  0
   22.4642   -4.7142   48.9838 O   0  0  0  0  0  0  0  0  0  0  0  0
   24.0726   -7.0413   49.4150 O   0  0  0  0  0  0  0  0  0  0  0  0
  1  2  1  0  0  0  0
  1 12  1  6  0  0  0
  1 13  1  0  0  0  0
  2  3  1  0  0  0  0
  2 10  1  1  0  0  0
  4  3  1  1  0  0  0
  4  5  1  0  0  0  0
  4 14  1  0  0  0  0
  5  6  1  0  0  0  0
  5 13  1  1  0  0  0
  6  7  1  0  0  0  0
  6 15  1  1  0  0  0
  7  8  1  0  0  0  0
  7 11  1  6  0  0  0
  8 14  1  0  0  0  0
  8 16  1  6  0  0  0
  9 11  1  0  0  0  0
 17 16  1  6  0  0  0
 17 18  1  0  0  0  0
 17 24  1  0  0  0  0
 18 19  1  0  0  0  0
 18 25  1  1  0  0  0
 19 20  1  0  0  0  0
 19 26  1  1  0  0  0
 20 21  1  0  0  0  0
 20 23  1  6  0  0  0
 21 22  1  6  0  0  0
 21 24  1  0  0  0  0
 22 27  1  0  0  0  0
 28 12  1  1  0  0  0
 28 29  1  0  0  0  0
 28 33  1  0  0  0  0
 29 30  1  0  0  0  0
 29 36  1  6  0  0  0
 30 31  1  0  0  0  0
 30 37  1  1  0  0  0
 31 32  1  0  0  0  0
 31 34  1  6  0  0  0
 32 33  1  0  0  0  0
 33 35  1  6  0  0  0
M  END
>  <CHROM.1>
178.79959992,167.21179971,-162.05764679,-115.54297091,74.42626901,79.69932465
17.96397936,-4.40714882,45.05765863,0.58268048,-0.52477466,1.39945057

>  <Name>
2oe5_lig

>  <RI>
0

>  <Rbt.Current_Directory>
/home/itssahil/PROJECTS/Mol_Feturizer/New_Systems/rnas/2oe5

>  <Rbt.Executable>
rbdock ($Id: //depot/dev/client3/rdock/2013.1/src/exe/rbdock.cxx#4 $)

>  <Rbt.Library>
libRbt.so (2013.1, Build901 2013/11/27)

>  <Rbt.Parameter_File>
/export/apps/rDock/src/rDock_2013.1_src/data/scripts/dock_solv.prm

>  <Rbt.Receptor>
prm/blind_docking_80.prm

>  <SCORE>
-25.5861

>  <SCORE.INTER>
-22.879

>  <SCORE.INTER.CONST>
1

>  <SCORE.INTER.POLAR>
-2.77681

>  <SCORE.INTER.ROT>
6

>  <SCORE.INTER.SOLV>
13.0931

>  <SCORE.INTER.VDW>
-17.961

>  <SCORE.INTER.norm>
-0.618353

>  <SCORE.INTRA>
-3.01793

>  <SCORE.INTRA.DIHEDRAL>
-4.9657

>  <SCORE.INTRA.DIHEDRAL.0>
16.2083

>  <SCORE.INTRA.POLAR>
0

>  <SCORE.INTRA.POLAR.0>
0

>  <SCORE.INTRA.REPUL>
0

>  <SCORE.INTRA.REPUL.0>
0

>  <SCORE.INTRA.SOLV>
-1.786

>  <SCORE.INTRA.SOLV.lig_0>
-89.8095

>  <SCORE.INTRA.VDW>
0.357922

>  <SCORE.INTRA.VDW.0>
-3.19502

>  <SCORE.INTRA.norm>
-0.0815656

>  <SCORE.RESTR>
0.310899

>  <SCORE.RESTR.CAVITY>
0.310899

>  <SCORE.RESTR.norm>
0.00840268

>  <SCORE.SYSTEM>
0

>  <SCORE.SYSTEM.CONST>
0

>  <SCORE.SYSTEM.DIHEDRAL>
0

>  <SCORE.SYSTEM.SOLV>
0

>  <SCORE.SYSTEM.norm>
0

>  <SCORE.heavy>
37

>  <SCORE.norm>
-0.691516

>  <RMSD>
9.669

$$$$
2oe5_lig
 OpenBabel11021811463D
libRbt.so/2013.1/901 2013/11/27
 37 40  0  0  0  0  0  0  0  0999 V2000
   19.1638   -4.3633   49.3016 C   0  0  1  0  0  0  0  0  0  0  0  0
   19.2597   -5.1889   50.6041 C   0  0  1  0  0  0  0  0  0  0  0  0
   18.9062   -4.2676   51.8303 C   0  0  0  0  0  0  0  0  0  0  0  0
   19.9384   -3.1186   51.7882 C   0  0  1  0  0  0  0  0  0  0  0  0
   19.8285   -2.2819   50.4375 C   0  0  1  0  0  0  0  0  0  0  0  0
   20.8533   -1.1165   50.3781 C   0  0  1  0  0  0  0  0  0  0  0  0
   20.5629   -0.1979   51.5990 C   0  0  1  0  0  0  0  0  0  0  0  0
   20.6376   -1.0729   52.9074 C   0  0  2  0  0  0  0  0  0  0  0  0
   21.7080    1.8730   50.4751 C   0  0  0  0  0  0  0  0  0  0  0  0
   18.3128   -6.3265   50.5531 N   0  0  0  0  0  0  0  0  0  0  0  0
   21.5541    0.9422   51.6472 N   0  0  0  0  0  0  0  0  0  0  0  0
   17.8294   -3.8853   49.0652 O   0  0  0  0  0  0  0  0  0  0  0  0
   20.0578   -3.1957   49.3165 O   0  0  0  0  0  0  0  0  0  0  0  0
   19.6942   -2.2076   52.8933 O   0  0  0  0  0  0  0  0  0  0  0  0
   22.1670   -1.6811   50.4391 O   0  0  0  0  0  0  0  0  0  0  0  0
   20.3163   -0.2836   54.0357 O   0  0  0  0  0  0  0  0  0  0  0  0
   20.9628   -0.7919   55.1875 C   0  0  2  0  0  0  0  0  0  0  0  0
   20.7634    0.1051   56.4086 C   0  0  1  0  0  0  0  0  0  0  0  0
   21.4211    1.4963   56.1962 C   0  0  2  0  0  0  0  0  0  0  0  0
   22.9296    1.2598   55.8887 C   0  0  1  0  0  0  0  0  0  0  0  0
   23.0321    0.3749   54.6031 C   0  0  1  0  0  0  0  0  0  0  0  0
   24.4601    0.0363   54.2376 C   0  0  0  0  0  0  0  0  0  0  0  0
   23.5798    2.6085   55.6832 N   0  0  0  0  0  0  0  0  0  0  0  0
   22.3897   -0.9127   54.8925 O   0  0  0  0  0  0  0  0  0  0  0  0
   19.3440    0.2362   56.6229 O   0  0  0  0  0  0  0  0  0  0  0  0
   21.2898    2.2430   57.4194 O   0  0  0  0  0  0  0  0  0  0  0  0
   25.2010    1.1680   53.9329 O   0  0  0  0  0  0  0  0  0  0  0  0
   17.4194   -3.9477   47.6990 C   0  0  1  0  0  0  0  0  0  0  0  0
   18.2521   -2.9260   46.8448 C   0  0  1  0  0  0  0  0  0  0  0  0
   17.7929   -3.0226   45.3454 C   0  0  2  0  0  0  0  0  0  0  0  0
   18.0456   -4.4466   44.8275 C   0  0  1  0  0  0  0  0  0  0  0  0
   17.1977   -5.4701   45.6771 C   0  0  0  0  0  0  0  0  0  0  0  0
   17.6465   -5.3639   47.1876 C   0  0  2  0  0  0  0  0  0  0  0  0
   17.6345   -4.5176   43.4350 N   0  0  0  0  0  0  0  0  0  0  0  0
   16.8535   -6.2996   48.0276 N   0  0  0  0  0  0  0  0  0  0  0  0
   18.0160   -1.5741   47.3328 O   0  0  0  0  0  0  0  0  0  0  0  0
   18.5472   -2.1245   44.5755 O   0  0  0  0  0  0  0  0  0  0  0  0
  1  2  1  0  0  0  0
  1 12  1  1  0  0  0
  1 13  1  0  0  0  0
  2  3  1  0  0  0  0
  2 10  1  6  0  0  0
  4  3  1  6  0  0  0
  4  5  1  0  0  0  0
  4 14  1  0  0  0  0
  5  6  1  0  0  0  0
  5 13  1  6  0  0  0
  6  7  1  0  0  0  0
  6 15  1  1  0  0  0
  7  8  1  0  0  0  0
  7 11  1  1  0  0  0
  8 14  1  0  0  0  0
  8 16  1  1  0  0  0
  9 11  1  0  0  0  0
 17 16  1  6  0  0  0
 17 18  1  0  0  0  0
 17 24  1  0  0  0  0
 18 19  1  0  0  0  0
 18 25  1  6  0  0  0
 19 20  1  0  0  0  0
 19 26  1  1  0  0  0
 20 21  1  0  0  0  0
 20 23  1  6  0  0  0
 21 22  1  1  0  0  0
 21 24  1  0  0  0  0
 22 27  1  0  0  0  0
 28 12  1  1  0  0  0
 28 29  1  0  0  0  0
 28 33  1  0  0  0  0
 29 30  1  0  0  0  0
 29 36  1  1  0  0  0
 30 31  1  0  0  0  0
 30 37  1  6  0  0  0
 31 32  1  0  0  0  0
 31 34  1  6  0  0  0
 32 33  1  0  0  0  0
 33 35  1  1  0  0  0
M  END
>  <CHROM.1>
-139.98038639,56.76118376,-152.01083085,174.22591206,-62.76142994,-67.70384344
20.11992832,-1.80044491,51.09606195,2.29000115,-0.93696345,-1.48635397

>  <Name>
2oe5_lig

>  <RI>
0

>  <Rbt.Current_Directory>
/home/itssahil/PROJECTS/Mol_Feturizer/New_Systems/rnas/2oe5

>  <Rbt.Executable>
rbdock ($Id: //depot/dev/client3/rdock/2013.1/src/exe/rbdock.cxx#4 $)

>  <Rbt.Library>
libRbt.so (2013.1, Build901 2013/11/27)

>  <Rbt.Parameter_File>
/export/apps/rDock/src/rDock_2013.1_src/data/scripts/dock_solv.prm

>  <Rbt.Receptor>
prm/pocket_docking_5.prm

>  <SCORE>
-14.6489

>  <SCORE.INTER>
-13.8204

>  <SCORE.INTER.CONST>
1

>  <SCORE.INTER.POLAR>
-3.02384

>  <SCORE.INTER.ROT>
6

>  <SCORE.INTER.SOLV>
13.2073

>  <SCORE.INTER.VDW>
-11.1366

>  <SCORE.INTER.norm>
-0.373525

>  <SCORE.INTRA>
-0.828477

>  <SCORE.INTRA.DIHEDRAL>
-7.08985

>  <SCORE.INTRA.DIHEDRAL.0>
16.2083

>  <SCORE.INTRA.POLAR>
0

>  <SCORE.INTRA.POLAR.0>
0

>  <SCORE.INTRA.REPUL>
0

>  <SCORE.INTRA.REPUL.0>
0

>  <SCORE.INTRA.SOLV>
2.02529

>  <SCORE.INTRA.SOLV.lig_0>
-89.8095

>  <SCORE.INTRA.VDW>
1.7038

>  <SCORE.INTRA.VDW.0>
-3.19502

>  <SCORE.INTRA.norm>
-0.0223913

>  <SCORE.RESTR>
0

>  <SCORE.RESTR.CAVITY>
0

>  <SCORE.RESTR.norm>
0

>  <SCORE.SYSTEM>
0

>  <SCORE.SYSTEM.CONST>
0

>  <SCORE.SYSTEM.DIHEDRAL>
0

>  <SCORE.SYSTEM.SOLV>
0

>  <SCORE.SYSTEM.norm>
0

>  <SCORE.heavy>
37

>  <SCORE.norm>
-0.395916

>  <RMSD>
9.675

$$$$
2oe5_lig
 OpenBabel11021811463D
libRbt.so/2013.1/901 2013/11/27
 37 40  0  0  0  0  0  0  0  0999 V2000
   23.3010   -3.5194   49.8176 C   0  0  1  0  0  0  0  0  0  0  0  0
   24.5308   -3.6760   50.7398 C   0  0  1  0  0  0  0  0  0  0  0  0
   24.0653   -3.6107   52.2419 C   0  0  0  0  0  0  0  0  0  0  0  0
   23.3875   -2.2311   52.3993 C   0  0  1  0  0  0  0  0  0  0  0  0
   22.1258   -2.0855   51.4385 C   0  0  1  0  0  0  0  0  0  0  0  0
   21.4249   -0.7075   51.5864 C   0  0  1  0  0  0  0  0  0  0  0  0
   20.9805   -0.5847   53.0717 C   0  0  1  0  0  0  0  0  0  0  0  0
   22.2485   -0.7790   53.9869 C   0  0  2  0  0  0  0  0  0  0  0  0
   18.9101    1.0099   52.8897 C   0  0  0  0  0  0  0  0  0  0  0  0
   25.1922   -4.9764   50.4848 N   0  0  0  0  0  0  0  0  0  0  0  0
   20.3304    0.7575   53.3172 N   0  0  0  0  0  0  0  0  0  0  0  0
   22.3615   -4.5934   49.9875 O   0  0  0  0  0  0  0  0  0  0  0  0
   22.5829   -2.2588   50.0581 O   0  0  0  0  0  0  0  0  0  0  0  0
   22.9222   -2.0734   53.7665 O   0  0  0  0  0  0  0  0  0  0  0  0
   22.3684    0.3076   51.2290 O   0  0  0  0  0  0  0  0  0  0  0  0
   21.8724   -0.7367   55.3493 O   0  0  0  0  0  0  0  0  0  0  0  0
   23.0228   -0.7322   56.1737 C   0  0  2  0  0  0  0  0  0  0  0  0
   22.6715   -0.6841   57.6602 C   0  0  1  0  0  0  0  0  0  0  0  0
   21.9485    0.6421   58.0232 C   0  0  2  0  0  0  0  0  0  0  0  0
   22.8852    1.8155   57.6089 C   0  0  1  0  0  0  0  0  0  0  0  0
   23.1492    1.7088   56.0710 C   0  0  1  0  0  0  0  0  0  0  0  0
   24.0947    2.7747   55.5637 C   0  0  0  0  0  0  0  0  0  0  0  0
   22.1917    3.1113   57.9608 N   0  0  0  0  0  0  0  0  0  0  0  0
   23.8314    0.4336   55.8204 O   0  0  0  0  0  0  0  0  0  0  0  0
   21.8314   -1.8204   57.9440 O   0  0  0  0  0  0  0  0  0  0  0  0
   21.7482    0.6652   59.4481 O   0  0  0  0  0  0  0  0  0  0  0  0
   24.2832    2.6924   54.1925 O   0  0  0  0  0  0  0  0  0  0  0  0
   21.4553   -4.7555   48.8961 C   0  0  1  0  0  0  0  0  0  0  0  0
   20.5535   -3.4771   48.7569 C   0  0  1  0  0  0  0  0  0  0  0  0
   19.5755   -3.6736   47.5431 C   0  0  2  0  0  0  0  0  0  0  0  0
   20.3938   -3.8640   46.2571 C   0  0  1  0  0  0  0  0  0  0  0  0
   21.2882   -5.1562   46.3928 C   0  0  0  0  0  0  0  0  0  0  0  0
   22.2618   -4.9676   47.6220 C   0  0  2  0  0  0  0  0  0  0  0  0
   19.4780   -4.0257   45.1398 N   0  0  0  0  0  0  0  0  0  0  0  0
   23.1091   -6.1763   47.7982 N   0  0  0  0  0  0  0  0  0  0  0  0
   19.7760   -3.2923   49.9746 O   0  0  0  0  0  0  0  0  0  0  0  0
   18.7805   -2.5261   47.4037 O   0  0  0  0  0  0  0  0  0  0  0  0
  1  2  1  0  0  0  0
  1 12  1  1  0  0  0
  1 13  1  0  0  0  0
  2  3  1  0  0  0  0
  2 10  1  1  0  0  0
  4  3  1  1  0  0  0
  4  5  1  0  0  0  0
  4 14  1  0  0  0  0
  5  6  1  0  0  0  0
  5 13  1  6  0  0  0
  6  7  1  0  0  0  0
  6 15  1  1  0  0  0
  7  8  1  0  0  0  0
  7 11  1  6  0  0  0
  8 14  1  0  0  0  0
  8 16  1  1  0  0  0
  9 11  1  0  0  0  0
 17 16  1  6  0  0  0
 17 18  1  0  0  0  0
 17 24  1  0  0  0  0
 18 19  1  0  0  0  0
 18 25  1  6  0  0  0
 19 20  1  0  0  0  0
 19 26  1  1  0  0  0
 20 21  1  0  0  0  0
 20 23  1  6  0  0  0
 21 22  1  1  0  0  0
 21 24  1  0  0  0  0
 22 27  1  0  0  0  0
 28 12  1  1  0  0  0
 28 29  1  0  0  0  0
 28 33  1  0  0  0  0
 29 30  1  0  0  0  0
 29 36  1  1  0  0  0
 30 31  1  0  0  0  0
 30 37  1  6  0  0  0
 31 32  1  0  0  0  0
 31 34  1  6  0  0  0
 32 33  1  0  0  0  0
 33 35  1  1  0  0  0
M  END
>  <CHROM.1>
-160.32944002,78.16370560,-172.26750511,179.88014657,-178.03090370,-63.52407485
22.07017758,-1.61979315,52.32834651,-1.73133905,-0.67453561,0.95179352

>  <Name>
2oe5_lig

>  <RI>
0

>  <Rbt.Current_Directory>
/home/itssahil/PROJECTS/Mol_Feturizer/New_Systems/rnas/2oe5

>  <Rbt.Executable>
rbdock ($Id: //depot/dev/client3/rdock/2013.1/src/exe/rbdock.cxx#4 $)

>  <Rbt.Library>
libRbt.so (2013.1, Build901 2013/11/27)

>  <Rbt.Parameter_File>
/export/apps/rDock/src/rDock_2013.1_src/data/scripts/dock_solv.prm

>  <Rbt.Receptor>
prm/pocket_docking_5.prm

>  <SCORE>
-11.8788

>  <SCORE.INTER>
-6.53565

>  <SCORE.INTER.CONST>
1

>  <SCORE.INTER.POLAR>
0

>  <SCORE.INTER.ROT>
6

>  <SCORE.INTER.SOLV>
7.61402

>  <SCORE.INTER.VDW>
-14.4951

>  <SCORE.INTER.norm>
-0.176639

>  <SCORE.INTRA>
-5.34317

>  <SCORE.INTRA.DIHEDRAL>
-13.7737

>  <SCORE.INTRA.DIHEDRAL.0>
16.2083

>  <SCORE.INTRA.POLAR>
0

>  <SCORE.INTRA.POLAR.0>
0

>  <SCORE.INTRA.REPUL>
0.00275992

>  <SCORE.INTRA.REPUL.0>
0

>  <SCORE.INTRA.SOLV>
-0.905898

>  <SCORE.INTRA.SOLV.lig_0>
-89.8095

>  <SCORE.INTRA.VDW>
1.98283

>  <SCORE.INTRA.VDW.0>
-3.19502

>  <SCORE.INTRA.norm>
-0.14441

>  <SCORE.RESTR>
0

>  <SCORE.RESTR.CAVITY>
0

>  <SCORE.RESTR.norm>
0

>  <SCORE.SYSTEM>
0

>  <SCORE.SYSTEM.CONST>
0

>  <SCORE.SYSTEM.DIHEDRAL>
0

>  <SCORE.SYSTEM.SOLV>
0

>  <SCORE.SYSTEM.norm>
0

>  <SCORE.heavy>
37

>  <SCORE.norm>
-0.321049

>  <RMSD>
9.692

$$$$
2oe5_lig
 OpenBabel11021811463D
libRbt.so/2013.1/901 2013/11/27
 37 40  0  0  0  0  0  0  0  0999 V2000
   20.2445   -5.7737   50.2193 C   0  0  1  0  0  0  0  0  0  0  0  0
   18.9588   -5.6500   51.0673 C   0  0  1  0  0  0  0  0  0  0  0  0
   18.6786   -4.1305   51.3671 C   0  0  0  0  0  0  0  0  0  0  0  0
   19.9287   -3.6265   52.1225 C   0  0  1  0  0  0  0  0  0  0  0  0
   21.2444   -3.7660   51.2360 C   0  0  1  0  0  0  0  0  0  0  0  0
   22.5125   -3.2577   51.9747 C   0  0  1  0  0  0  0  0  0  0  0  0
   22.2619   -1.7633   52.3248 C   0  0  1  0  0  0  0  0  0  0  0  0
   20.9303   -1.6661   53.1618 C   0  0  2  0  0  0  0  0  0  0  0  0
   24.6478   -0.6827   52.3729 C   0  0  0  0  0  0  0  0  0  0  0  0
   17.8102   -6.2273   50.3318 N   0  0  0  0  0  0  0  0  0  0  0  0
   23.4336   -1.1998   53.0955 N   0  0  0  0  0  0  0  0  0  0  0  0
   20.1072   -5.1367   48.9386 O   0  0  0  0  0  0  0  0  0  0  0  0
   21.4111   -5.1787   50.8886 O   0  0  0  0  0  0  0  0  0  0  0  0
   19.7630   -2.2206   52.4490 O   0  0  0  0  0  0  0  0  0  0  0  0
   22.6880   -4.0559   53.1495 O   0  0  0  0  0  0  0  0  0  0  0  0
   20.6353   -0.3127   53.4454 O   0  0  0  0  0  0  0  0  0  0  0  0
   19.4616   -0.2228   54.2311 C   0  0  2  0  0  0  0  0  0  0  0  0
   18.9048    1.1995   54.2824 C   0  0  1  0  0  0  0  0  0  0  0  0
   19.8977    2.1657   54.9850 C   0  0  2  0  0  0  0  0  0  0  0  0
   20.1759    1.5987   56.4086 C   0  0  1  0  0  0  0  0  0  0  0  0
   20.7836    0.1660   56.2526 C   0  0  1  0  0  0  0  0  0  0  0  0
   21.0472   -0.5063   57.5815 C   0  0  0  0  0  0  0  0  0  0  0  0
   21.1394    2.5338   57.1022 N   0  0  0  0  0  0  0  0  0  0  0  0
   19.7837   -0.6750   55.5837 O   0  0  0  0  0  0  0  0  0  0  0  0
   18.6566    1.6169   52.9252 O   0  0  0  0  0  0  0  0  0  0  0  0
   19.2649    3.4536   55.0942 O   0  0  0  0  0  0  0  0  0  0  0  0
   21.7412   -1.6975   57.4327 O   0  0  0  0  0  0  0  0  0  0  0  0
   19.1009   -5.7115   48.1046 C   0  0  1  0  0  0  0  0  0  0  0  0
   18.0877   -4.6014   47.6485 C   0  0  1  0  0  0  0  0  0  0  0  0
   16.9994   -5.2546   46.7226 C   0  0  2  0  0  0  0  0  0  0  0  0
   17.6815   -5.8622   45.4876 C   0  0  1  0  0  0  0  0  0  0  0  0
   18.6881   -6.9867   45.9463 C   0  0  0  0  0  0  0  0  0  0  0  0
   19.7744   -6.3356   46.8899 C   0  0  2  0  0  0  0  0  0  0  0  0
   16.6628   -6.4462   44.6307 N   0  0  0  0  0  0  0  0  0  0  0  0
   20.7321   -7.3695   47.3631 N   0  0  0  0  0  0  0  0  0  0  0  0
   17.4389   -4.0218   48.8167 O   0  0  0  0  0  0  0  0  0  0  0  0
   16.1028   -4.2627   46.2978 O   0  0  0  0  0  0  0  0  0  0  0  0
  1  2  1  0  0  0  0
  1 12  1  6  0  0  0
  1 13  1  0  0  0  0
  2  3  1  0  0  0  0
  2 10  1  6  0  0  0
  4  3  1  6  0  0  0
  4  5  1  0  0  0  0
  4 14  1  0  0  0  0
  5  6  1  0  0  0  0
  5 13  1  1  0  0  0
  6  7  1  0  0  0  0
  6 15  1  1  0  0  0
  7  8  1  0  0  0  0
  7 11  1  1  0  0  0
  8 14  1  0  0  0  0
  8 16  1  6  0  0  0
  9 11  1  0  0  0  0
 17 16  1  6  0  0  0
 17 18  1  0  0  0  0
 17 24  1  0  0  0  0
 18 19  1  0  0  0  0
 18 25  1  6  0  0  0
 19 20  1  0  0  0  0
 19 26  1  1  0  0  0
 20 21  1  0  0  0  0
 20 23  1  6  0  0  0
 21 22  1  1  0  0  0
 21 24  1  0  0  0  0
 22 27  1  0  0  0  0
 28 12  1  1  0  0  0
 28 29  1  0  0  0  0
 28 33  1  0  0  0  0
 29 30  1  0  0  0  0
 29 36  1  1  0  0  0
 30 31  1  0  0  0  0
 30 37  1  6  0  0  0
 31 32  1  0  0  0  0
 31 34  1  6  0  0  0
 32 33  1  0  0  0  0
 33 35  1  1  0  0  0
M  END
>  <CHROM.1>
-62.78669946,83.95004179,-178.25922925,-166.01402208,-172.24025132,125.20412954
19.93571204,-2.71670401,51.60354104,-1.83583662,-0.56614634,0.75910627

>  <Name>
2oe5_lig

>  <RI>
0

>  <Rbt.Current_Directory>
/home/itssahil/PROJECTS/Mol_Feturizer/New_Systems/rnas/2oe5

>  <Rbt.Executable>
rbdock ($Id: //depot/dev/client3/rdock/2013.1/src/exe/rbdock.cxx#4 $)

>  <Rbt.Library>
libRbt.so (2013.1, Build901 2013/11/27)

>  <Rbt.Parameter_File>
/export/apps/rDock/src/rDock_2013.1_src/data/scripts/dock_solv.prm

>  <Rbt.Receptor>
prm/pocket_docking_7.prm

>  <SCORE>
-17.6783

>  <SCORE.INTER>
-16.3119

>  <SCORE.INTER.CONST>
1

>  <SCORE.INTER.POLAR>
-1.54561

>  <SCORE.INTER.ROT>
6

>  <SCORE.INTER.SOLV>
12.3109

>  <SCORE.INTER.VDW>
-17.4262

>  <SCORE.INTER.norm>
-0.440863

>  <SCORE.INTRA>
-1.36634

>  <SCORE.INTRA.DIHEDRAL>
-7.45167

>  <SCORE.INTRA.DIHEDRAL.0>
16.2083

>  <SCORE.INTRA.POLAR>
0

>  <SCORE.INTRA.POLAR.0>
0

>  <SCORE.INTRA.REPUL>
0

>  <SCORE.INTRA.REPUL.0>
0

>  <SCORE.INTRA.SOLV>
0.933561

>  <SCORE.INTRA.SOLV.lig_0>
-89.8095

>  <SCORE.INTRA.VDW>
1.89271

>  <SCORE.INTRA.VDW.0>
-3.19502

>  <SCORE.INTRA.norm>
-0.0369282

>  <SCORE.RESTR>
0

>  <SCORE.RESTR.CAVITY>
0

>  <SCORE.RESTR.norm>
0

>  <SCORE.SYSTEM>
0

>  <SCORE.SYSTEM.CONST>
0

>  <SCORE.SYSTEM.DIHEDRAL>
0

>  <SCORE.SYSTEM.SOLV>
0

>  <SCORE.SYSTEM.norm>
0

>  <SCORE.heavy>
37

>  <SCORE.norm>
-0.477791

>  <RMSD>
9.705

$$$$
2oe5_lig
 OpenBabel11021811463D
libRbt.so/2013.1/901 2013/11/27
 37 40  0  0  0  0  0  0  0  0999 V2000
   21.5550   -5.2837   49.0422 C   0  0  1  0  0  0  0  0  0  0  0  0
   21.6997   -6.1119   50.3385 C   0  0  1  0  0  0  0  0  0  0  0  0
   20.9389   -5.3833   51.5080 C   0  0  0  0  0  0  0  0  0  0  0  0
   21.6041   -3.9935   51.6239 C   0  0  1  0  0  0  0  0  0  0  0  0
   21.4496   -3.1563   50.2780 C   0  0  1  0  0  0  0  0  0  0  0  0
   22.1055   -1.7519   50.3758 C   0  0  1  0  0  0  0  0  0  0  0  0
   21.4062   -1.0083   51.5492 C   0  0  1  0  0  0  0  0  0  0  0  0
   21.5438   -1.8901   52.8479 C   0  0  2  0  0  0  0  0  0  0  0  0
   21.8038    1.4509   50.7386 C   0  0  0  0  0  0  0  0  0  0  0  0
   21.1250   -7.4627   50.1428 N   0  0  0  0  0  0  0  0  0  0  0  0
   22.0227    0.3573   51.7485 N   0  0  0  0  0  0  0  0  0  0  0  0
   20.1853   -5.1816   48.6196 O   0  0  0  0  0  0  0  0  0  0  0  0
   22.0759   -3.9169   49.1947 O   0  0  0  0  0  0  0  0  0  0  0  0
   20.9666   -3.2390   52.6893 O   0  0  0  0  0  0  0  0  0  0  0  0
   23.5036   -1.9345   50.6212 O   0  0  0  0  0  0  0  0  0  0  0  0
   20.8639   -1.2748   53.9242 O   0  0  0  0  0  0  0  0  0  0  0  0
   21.6199   -0.1865   54.4213 C   0  0  2  0  0  0  0  0  0  0  0  0
   21.9085   -0.3150   55.9166 C   0  0  1  0  0  0  0  0  0  0  0  0
   20.5968   -0.2671   56.7473 C   0  0  2  0  0  0  0  0  0  0  0  0
   19.8750    1.0706   56.4075 C   0  0  1  0  0  0  0  0  0  0  0  0
   19.5816    1.0896   54.8713 C   0  0  1  0  0  0  0  0  0  0  0  0
   18.9244    2.3736   54.4165 C   0  0  0  0  0  0  0  0  0  0  0  0
   18.5979    1.1283   57.2135 N   0  0  0  0  0  0  0  0  0  0  0  0
   20.8692    1.0425   54.1682 O   0  0  0  0  0  0  0  0  0  0  0  0
   22.5984   -1.5643   56.1189 O   0  0  0  0  0  0  0  0  0  0  0  0
   20.9514   -0.2828   58.1420 O   0  0  0  0  0  0  0  0  0  0  0  0
   19.7336    3.4779   54.6363 O   0  0  0  0  0  0  0  0  0  0  0  0
   19.9431   -4.1466   47.6663 C   0  0  1  0  0  0  0  0  0  0  0  0
   20.5383   -4.5558   46.2716 C   0  0  1  0  0  0  0  0  0  0  0  0
   20.2481   -3.4089   45.2378 C   0  0  2  0  0  0  0  0  0  0  0  0
   18.7298   -3.2143   45.1080 C   0  0  1  0  0  0  0  0  0  0  0  0
   18.1357   -2.7894   46.5061 C   0  0  0  0  0  0  0  0  0  0  0  0
   18.4397   -3.9340   47.5511 C   0  0  2  0  0  0  0  0  0  0  0  0
   18.4745   -2.1644   44.1356 N   0  0  0  0  0  0  0  0  0  0  0  0
   17.9139   -3.5614   48.8908 N   0  0  0  0  0  0  0  0  0  0  0  0
   21.9780   -4.7421   46.3901 O   0  0  0  0  0  0  0  0  0  0  0  0
   20.7619   -3.7786   43.9858 O   0  0  0  0  0  0  0  0  0  0  0  0
  1  2  1  0  0  0  0
  1 12  1  1  0  0  0
  1 13  1  0  0  0  0
  2  3  1  0  0  0  0
  2 10  1  6  0  0  0
  4  3  1  6  0  0  0
  4  5  1  0  0  0  0
  4 14  1  0  0  0  0
  5  6  1  0  0  0  0
  5 13  1  6  0  0  0
  6  7  1  0  0  0  0
  6 15  1  1  0  0  0
  7  8  1  0  0  0  0
  7 11  1  1  0  0  0
  8 14  1  0  0  0  0
  8 16  1  1  0  0  0
  9 11  1  0  0  0  0
 17 16  1  1  0  0  0
 17 18  1  0  0  0  0
 17 24  1  0  0  0  0
 18 19  1  0  0  0  0
 18 25  1  6  0  0  0
 19 20  1  0  0  0  0
 19 26  1  1  0  0  0
 20 21  1  0  0  0  0
 20 23  1  1  0  0  0
 21 22  1  1  0  0  0
 21 24  1  0  0  0  0
 22 27  1  0  0  0  0
 28 12  1  1  0  0  0
 28 29  1  0  0  0  0
 28 33  1  0  0  0  0
 29 30  1  0  0  0  0
 29 36  1  1  0  0  0
 30 31  1  0  0  0  0
 30 37  1  6  0  0  0
 31 32  1  0  0  0  0
 31 34  1  6  0  0  0
 32 33  1  0  0  0  0
 33 35  1  1  0  0  0
M  END
>  <CHROM.1>
163.54391503,70.40999466,-76.08433062,-124.05608007,62.04927646,72.52076010
20.70918216,-2.09804361,51.11066976,-1.67367060,-1.14896430,0.99032403

>  <Name>
2oe5_lig

>  <RI>
0

>  <Rbt.Current_Directory>
/home/itssahil/PROJECTS/Mol_Feturizer/New_Systems/rnas/2oe5

>  <Rbt.Executable>
rbdock ($Id: //depot/dev/client3/rdock/2013.1/src/exe/rbdock.cxx#4 $)

>  <Rbt.Library>
libRbt.so (2013.1, Build901 2013/11/27)

>  <Rbt.Parameter_File>
/export/apps/rDock/src/rDock_2013.1_src/data/scripts/dock_solv.prm

>  <Rbt.Receptor>
prm/pocket_docking_8.prm

>  <SCORE>
-22.9799

>  <SCORE.INTER>
-21.3357

>  <SCORE.INTER.CONST>
1

>  <SCORE.INTER.POLAR>
-2.63588

>  <SCORE.INTER.ROT>
6

>  <SCORE.INTER.SOLV>
21.5563

>  <SCORE.INTER.VDW>
-20.223

>  <SCORE.INTER.norm>
-0.576641

>  <SCORE.INTRA>
-1.64422

>  <SCORE.INTRA.DIHEDRAL>
-5.72197

>  <SCORE.INTRA.DIHEDRAL.0>
16.2083

>  <SCORE.INTRA.POLAR>
0

>  <SCORE.INTRA.POLAR.0>
0

>  <SCORE.INTRA.REPUL>
0

>  <SCORE.INTRA.REPUL.0>
0

>  <SCORE.INTRA.SOLV>
-0.931617

>  <SCORE.INTRA.SOLV.lig_0>
-89.8095

>  <SCORE.INTRA.VDW>
1.68257

>  <SCORE.INTRA.VDW.0>
-3.19502

>  <SCORE.INTRA.norm>
-0.0444385

>  <SCORE.RESTR>
0

>  <SCORE.RESTR.CAVITY>
0

>  <SCORE.RESTR.norm>
0

>  <SCORE.SYSTEM>
0

>  <SCORE.SYSTEM.CONST>
0

>  <SCORE.SYSTEM.DIHEDRAL>
0

>  <SCORE.SYSTEM.SOLV>
0

>  <SCORE.SYSTEM.norm>
0

>  <SCORE.heavy>
37

>  <SCORE.norm>
-0.62108

>  <RMSD>
9.709

$$$$
2oe5_lig
 OpenBabel11021811463D
libRbt.so/2013.1/901 2013/11/27
 37 40  0  0  0  0  0  0  0  0999 V2000
   20.7254   -3.2386   49.9235 C   0  0  1  0  0  0  0  0  0  0  0  0
   19.4293   -3.2997   50.7624 C   0  0  1  0  0  0  0  0  0  0  0  0
   18.9854   -1.8376   51.1397 C   0  0  0  0  0  0  0  0  0  0  0  0
   20.1698   -1.2440   51.9348 C   0  0  1  0  0  0  0  0  0  0  0  0
   21.4976   -1.1932   51.0569 C   0  0  1  0  0  0  0  0  0  0  0  0
   22.6996   -0.5926   51.8357 C   0  0  1  0  0  0  0  0  0  0  0  0
   22.2875    0.8452   52.2621 C   0  0  1  0  0  0  0  0  0  0  0  0
   20.9487    0.7534   53.0882 C   0  0  2  0  0  0  0  0  0  0  0  0
   24.6455    1.9769   52.4094 C   0  0  0  0  0  0  0  0  0  0  0  0
   18.3536   -3.9562   49.9845 N   0  0  0  0  0  0  0  0  0  0  0  0
   23.3875    1.4886   53.0748 N   0  0  0  0  0  0  0  0  0  0  0  0
   20.5271   -2.5516   48.6771 O   0  0  0  0  0  0  0  0  0  0  0  0
   21.8174   -2.5590   50.6365 O   0  0  0  0  0  0  0  0  0  0  0  0
   19.8518    0.1163   52.3339 O   0  0  0  0  0  0  0  0  0  0  0  0
   22.9538   -1.4298   52.9682 O   0  0  0  0  0  0  0  0  0  0  0  0
   20.5081    2.0500   53.4402 O   0  0  0  0  0  0  0  0  0  0  0  0
   19.2703    1.9768   54.1225 C   0  0  2  0  0  0  0  0  0  0  0  0
   18.8591    3.3197   54.7249 C   0  0  1  0  0  0  0  0  0  0  0  0
   19.8619    3.7734   55.8212 C   0  0  2  0  0  0  0  0  0  0  0  0
   19.9222    2.6481   56.8962 C   0  0  1  0  0  0  0  0  0  0  0  0
   20.3942    1.3309   56.1973 C   0  0  1  0  0  0  0  0  0  0  0  0
   20.4398    0.1506   57.1418 C   0  0  0  0  0  0  0  0  0  0  0  0
   20.8938    3.0813   57.9697 N   0  0  0  0  0  0  0  0  0  0  0  0
   19.3936    0.9780   55.1831 O   0  0  0  0  0  0  0  0  0  0  0  0
   18.8058    4.2787   53.6501 O   0  0  0  0  0  0  0  0  0  0  0  0
   19.3555    4.9819   56.4162 O   0  0  0  0  0  0  0  0  0  0  0  0
   20.9028   -0.9975   56.5171 O   0  0  0  0  0  0  0  0  0  0  0  0
   19.9155   -3.3474   47.6616 C   0  0  1  0  0  0  0  0  0  0  0  0
   18.7061   -2.5694   47.0300 C   0  0  1  0  0  0  0  0  0  0  0  0
   18.0588   -3.4586   45.9081 C   0  0  2  0  0  0  0  0  0  0  0  0
   19.1051   -3.7459   44.8207 C   0  0  1  0  0  0  0  0  0  0  0  0
   20.3124   -4.5398   45.4536 C   0  0  0  0  0  0  0  0  0  0  0  0
   20.9554   -3.6544   46.5925 C   0  0  2  0  0  0  0  0  0  0  0  0
   18.4889   -4.5528   43.7804 N   0  0  0  0  0  0  0  0  0  0  0  0
   22.0862   -4.3780   47.2310 N   0  0  0  0  0  0  0  0  0  0  0  0
   17.7115   -2.2941   48.0578 O   0  0  0  0  0  0  0  0  0  0  0  0
   16.9893   -2.7597   45.3284 O   0  0  0  0  0  0  0  0  0  0  0  0
  1  2  1  0  0  0  0
  1 12  1  6  0  0  0
  1 13  1  0  0  0  0
  2  3  1  0  0  0  0
  2 10  1  6  0  0  0
  4  3  1  6  0  0  0
  4  5  1  0  0  0  0
  4 14  1  0  0  0  0
  5  6  1  0  0  0  0
  5 13  1  1  0  0  0
  6  7  1  0  0  0  0
  6 15  1  1  0  0  0
  7  8  1  0  0  0  0
  7 11  1  1  0  0  0
  8 14  1  0  0  0  0
  8 16  1  6  0  0  0
  9 11  1  0  0  0  0
 17 16  1  1  0  0  0
 17 18  1  0  0  0  0
 17 24  1  0  0  0  0
 18 19  1  0  0  0  0
 18 25  1  6  0  0  0
 19 20  1  0  0  0  0
 19 26  1  1  0  0  0
 20 21  1  0  0  0  0
 20 23  1  1  0  0  0
 21 22  1  1  0  0  0
 21 24  1  0  0  0  0
 22 27  1  0  0  0  0
 28 12  1  1  0  0  0
 28 29  1  0  0  0  0
 28 33  1  0  0  0  0
 29 30  1  0  0  0  0
 29 36  1  1  0  0  0
 30 31  1  0  0  0  0
 30 37  1  6  0  0  0
 31 32  1  0  0  0  0
 31 34  1  6  0  0  0
 32 33  1  0  0  0  0
 33 35  1  1  0  0  0
M  END
>  <CHROM.1>
-79.89509645,74.18949149,176.99130299,170.66756865,-177.97687651,130.10829162
20.24544972,-0.62802211,51.44378764,-1.68035034,-0.39210713,0.94486877

>  <Name>
2oe5_lig

>  <RI>
0

>  <Rbt.Current_Directory>
/home/itssahil/PROJECTS/Mol_Feturizer/New_Systems/rnas/2oe5

>  <Rbt.Executable>
rbdock ($Id: //depot/dev/client3/rdock/2013.1/src/exe/rbdock.cxx#4 $)

>  <Rbt.Library>
libRbt.so (2013.1, Build901 2013/11/27)

>  <Rbt.Parameter_File>
/export/apps/rDock/src/rDock_2013.1_src/data/scripts/dock_solv.prm

>  <Rbt.Receptor>
prm/pocket_docking_4.prm

>  <SCORE>
-18.8392

>  <SCORE.INTER>
-17.1313

>  <SCORE.INTER.CONST>
1

>  <SCORE.INTER.POLAR>
-1.62555

>  <SCORE.INTER.ROT>
6

>  <SCORE.INTER.SOLV>
11.7159

>  <SCORE.INTER.VDW>
-17.5077

>  <SCORE.INTER.norm>
-0.463007

>  <SCORE.INTRA>
-1.70793

>  <SCORE.INTRA.DIHEDRAL>
-7.00923

>  <SCORE.INTRA.DIHEDRAL.0>
16.2083

>  <SCORE.INTRA.POLAR>
0

>  <SCORE.INTRA.POLAR.0>
0

>  <SCORE.INTRA.REPUL>
0.00759183

>  <SCORE.INTRA.REPUL.0>
0

>  <SCORE.INTRA.SOLV>
0.542648

>  <SCORE.INTRA.SOLV.lig_0>
-89.8095

>  <SCORE.INTRA.VDW>
1.4874

>  <SCORE.INTRA.VDW.0>
-3.19502

>  <SCORE.INTRA.norm>
-0.0461604

>  <SCORE.RESTR>
0

>  <SCORE.RESTR.CAVITY>
0

>  <SCORE.RESTR.norm>
0

>  <SCORE.SYSTEM>
0

>  <SCORE.SYSTEM.CONST>
0

>  <SCORE.SYSTEM.DIHEDRAL>
0

>  <SCORE.SYSTEM.SOLV>
0

>  <SCORE.SYSTEM.norm>
0

>  <SCORE.heavy>
37

>  <SCORE.norm>
-0.509168

>  <RMSD>
9.717

$$$$
2oe5_lig
 OpenBabel11021811463D
libRbt.so/2013.1/901 2013/11/27
 37 40  0  0  0  0  0  0  0  0999 V2000
   20.5944   -3.9178   49.5870 C   0  0  1  0  0  0  0  0  0  0  0  0
   19.4939   -3.7756   50.6622 C   0  0  1  0  0  0  0  0  0  0  0  0
   19.3438   -2.2587   51.0543 C   0  0  0  0  0  0  0  0  0  0  0  0
   20.7334   -1.8336   51.5793 C   0  0  1  0  0  0  0  0  0  0  0  0
   21.8555   -1.9912   50.4602 C   0  0  1  0  0  0  0  0  0  0  0  0
   23.2599   -1.5619   50.9655 C   0  0  1  0  0  0  0  0  0  0  0  0
   23.1469   -0.0731   51.4007 C   0  0  1  0  0  0  0  0  0  0  0  0
   21.9981    0.0448   52.4729 C   0  0  2  0  0  0  0  0  0  0  0  0
   24.7087    1.8828   52.1740 C   0  0  0  0  0  0  0  0  0  0  0  0
   18.2042   -4.2787   50.1358 N   0  0  0  0  0  0  0  0  0  0  0  0
   24.4651    0.4140   51.9570 N   0  0  0  0  0  0  0  0  0  0  0  0
   20.2529   -3.2277   48.3737 O   0  0  0  0  0  0  0  0  0  0  0  0
   21.8903   -3.3952   50.0456 O   0  0  0  0  0  0  0  0  0  0  0  0
   20.6954   -0.4356   51.9730 O   0  0  0  0  0  0  0  0  0  0  0  0
   23.6120   -2.4105   52.0628 O   0  0  0  0  0  0  0  0  0  0  0  0
   21.8229    1.3971   52.8469 O   0  0  0  0  0  0  0  0  0  0  0  0
   20.8989    1.4928   53.9146 C   0  0  2  0  0  0  0  0  0  0  0  0
   19.7011    2.3764   53.5684 C   0  0  1  0  0  0  0  0  0  0  0  0
   20.1403    3.8462   53.3235 C   0  0  2  0  0  0  0  0  0  0  0  0
   20.8727    4.3369   54.6075 C   0  0  1  0  0  0  0  0  0  0  0  0
   22.1039    3.4040   54.8530 C   0  0  1  0  0  0  0  0  0  0  0  0
   22.8648    3.7575   56.1114 C   0  0  0  0  0  0  0  0  0  0  0  0
   21.3019    5.7681   54.3805 N   0  0  0  0  0  0  0  0  0  0  0  0
   21.5988    2.0437   55.0741 O   0  0  0  0  0  0  0  0  0  0  0  0
   19.0808    1.8236   52.3905 O   0  0  0  0  0  0  0  0  0  0  0  0
   18.9561    4.6362   53.1124 O   0  0  0  0  0  0  0  0  0  0  0  0
   22.0864    3.6070   57.2490 O   0  0  0  0  0  0  0  0  0  0  0  0
   19.2527   -3.8805   47.5914 C   0  0  1  0  0  0  0  0  0  0  0  0
   18.4608   -2.8203   46.7452 C   0  0  1  0  0  0  0  0  0  0  0  0
   17.3766   -3.5630   45.8843 C   0  0  2  0  0  0  0  0  0  0  0  0
   18.0708   -4.5555   44.9393 C   0  0  1  0  0  0  0  0  0  0  0  0
   18.8538   -5.6279   45.7908 C   0  0  0  0  0  0  0  0  0  0  0  0
   19.9341   -4.8823   46.6691 C   0  0  2  0  0  0  0  0  0  0  0  0
   17.0590   -5.2218   44.1359 N   0  0  0  0  0  0  0  0  0  0  0  0
   20.6810   -5.8583   47.5053 N   0  0  0  0  0  0  0  0  0  0  0  0
   17.8013   -1.8766   47.6374 O   0  0  0  0  0  0  0  0  0  0  0  0
   16.6791   -2.6215   45.1127 O   0  0  0  0  0  0  0  0  0  0  0  0
  1  2  1  0  0  0  0
  1 12  1  6  0  0  0
  1 13  1  0  0  0  0
  2  3  1  0  0  0  0
  2 10  1  6  0  0  0
  4  3  1  6  0  0  0
  4  5  1  0  0  0  0
  4 14  1  0  0  0  0
  5  6  1  0  0  0  0
  5 13  1  1  0  0  0
  6  7  1  0  0  0  0
  6 15  1  1  0  0  0
  7  8  1  0  0  0  0
  7 11  1  1  0  0  0
  8 14  1  0  0  0  0
  8 16  1  6  0  0  0
  9 11  1  0  0  0  0
 17 16  1  6  0  0  0
 17 18  1  0  0  0  0
 17 24  1  0  0  0  0
 18 19  1  0  0  0  0
 18 25  1  6  0  0  0
 19 20  1  0  0  0  0
 19 26  1  1  0  0  0
 20 21  1  0  0  0  0
 20 23  1  6  0  0  0
 21 22  1  1  0  0  0
 21 24  1  0  0  0  0
 22 27  1  0  0  0  0
 28 12  1  6  0  0  0
 28 29  1  0  0  0  0
 28 33  1  0  0  0  0
 29 30  1  0  0  0  0
 29 36  1  1  0  0  0
 30 31  1  0  0  0  0
 30 37  1  6  0  0  0
 31 32  1  0  0  0  0
 31 34  1  1  0  0  0
 32 33  1  0  0  0  0
 33 35  1  1  0  0  0
M  END
>  <CHROM.1>
-74.31030783,166.88707021,-173.50751075,-121.92329183,62.59226841,152.30135128
20.54159773,-0.74632868,50.80439413,-1.89082935,-0.52373464,0.64764385

>  <Name>
2oe5_lig

>  <RI>
0

>  <Rbt.Current_Directory>
/home/itssahil/PROJECTS/Mol_Feturizer/New_Systems/rnas/2oe5

>  <Rbt.Executable>
rbdock ($Id: //depot/dev/client3/rdock/2013.1/src/exe/rbdock.cxx#4 $)

>  <Rbt.Library>
libRbt.so (2013.1, Build901 2013/11/27)

>  <Rbt.Parameter_File>
/export/apps/rDock/src/rDock_2013.1_src/data/scripts/dock_solv.prm

>  <Rbt.Receptor>
prm/pocket_docking_8.prm

>  <SCORE>
-16.7695

>  <SCORE.INTER>
-16.0042

>  <SCORE.INTER.CONST>
1

>  <SCORE.INTER.POLAR>
-2.02387

>  <SCORE.INTER.ROT>
6

>  <SCORE.INTER.SOLV>
17.1284

>  <SCORE.INTER.VDW>
-17.2327

>  <SCORE.INTER.norm>
-0.432545

>  <SCORE.INTRA>
-0.765361

>  <SCORE.INTRA.DIHEDRAL>
-4.45846

>  <SCORE.INTRA.DIHEDRAL.0>
16.2083

>  <SCORE.INTRA.POLAR>
0

>  <SCORE.INTRA.POLAR.0>
0

>  <SCORE.INTRA.REPUL>
0

>  <SCORE.INTRA.REPUL.0>
0

>  <SCORE.INTRA.SOLV>
1.60224

>  <SCORE.INTRA.SOLV.lig_0>
-89.8095

>  <SCORE.INTRA.VDW>
0.662749

>  <SCORE.INTRA.VDW.0>
-3.19502

>  <SCORE.INTRA.norm>
-0.0206854

>  <SCORE.RESTR>
0

>  <SCORE.RESTR.CAVITY>
0

>  <SCORE.RESTR.norm>
0

>  <SCORE.SYSTEM>
0

>  <SCORE.SYSTEM.CONST>
0

>  <SCORE.SYSTEM.DIHEDRAL>
0

>  <SCORE.SYSTEM.SOLV>
0

>  <SCORE.SYSTEM.norm>
0

>  <SCORE.heavy>
37

>  <SCORE.norm>
-0.45323

>  <RMSD>
9.720

$$$$
2oe5_lig
 OpenBabel11021811463D
libRbt.so/2013.1/901 2013/11/27
 37 40  0  0  0  0  0  0  0  0999 V2000
   23.4627   -2.5149   48.9422 C   0  0  1  0  0  0  0  0  0  0  0  0
   24.5401   -2.6882   50.0360 C   0  0  1  0  0  0  0  0  0  0  0  0
   23.8416   -2.7783   51.4435 C   0  0  0  0  0  0  0  0  0  0  0  0
   23.0599   -1.4542   51.5965 C   0  0  1  0  0  0  0  0  0  0  0  0
   21.9578   -1.2901   50.4586 C   0  0  1  0  0  0  0  0  0  0  0  0
   21.1549    0.0320   50.5984 C   0  0  1  0  0  0  0  0  0  0  0  0
   20.4762    0.0016   51.9974 C   0  0  1  0  0  0  0  0  0  0  0  0
   21.5948   -0.2066   53.0875 C   0  0  2  0  0  0  0  0  0  0  0  0
   18.6090    1.3344   53.2623 C   0  0  0  0  0  0  0  0  0  0  0  0
   25.3158   -3.9257   49.7905 N   0  0  0  0  0  0  0  0  0  0  0  0
   19.7104    1.2822   52.2386 N   0  0  0  0  0  0  0  0  0  0  0  0
   22.5794   -3.6463   48.8736 O   0  0  0  0  0  0  0  0  0  0  0  0
   22.6359   -1.3185   49.1611 O   0  0  0  0  0  0  0  0  0  0  0  0
   22.3767   -1.4407   52.8786 O   0  0  0  0  0  0  0  0  0  0  0  0
   22.0753    1.1214   50.4786 O   0  0  0  0  0  0  0  0  0  0  0  0
   21.0078   -0.3029   54.3702 O   0  0  0  0  0  0  0  0  0  0  0  0
   21.9143    0.1513   55.3576 C   0  0  2  0  0  0  0  0  0  0  0  0
   21.5197   -0.3047   56.7619 C   0  0  1  0  0  0  0  0  0  0  0  0
   20.1610    0.3138   57.1915 C   0  0  2  0  0  0  0  0  0  0  0  0
   20.3012    1.8624   57.1011 C   0  0  1  0  0  0  0  0  0  0  0  0
   20.6589    2.2341   55.6246 C   0  0  1  0  0  0  0  0  0  0  0  0
   20.8714    3.7188   55.4296 C   0  0  0  0  0  0  0  0  0  0  0  0
   18.9844    2.4743   57.5203 N   0  0  0  0  0  0  0  0  0  0  0  0
   21.9496    1.6121   55.3056 O   0  0  0  0  0  0  0  0  0  0  0  0
   21.4455   -1.7441   56.7452 O   0  0  0  0  0  0  0  0  0  0  0  0
   19.9085   -0.0686   58.5557 O   0  0  0  0  0  0  0  0  0  0  0  0
   20.9480    4.0610   54.0880 O   0  0  0  0  0  0  0  0  0  0  0  0
   21.4653   -3.4661   47.9989 C   0  0  1  0  0  0  0  0  0  0  0  0
   21.9630   -3.3805   46.5116 C   0  0  1  0  0  0  0  0  0  0  0  0
   20.7200   -3.1960   45.5686 C   0  0  2  0  0  0  0  0  0  0  0  0
   19.7809   -4.4016   45.7243 C   0  0  1  0  0  0  0  0  0  0  0  0
   19.2707   -4.4779   47.2150 C   0  0  0  0  0  0  0  0  0  0  0  0
   20.5197   -4.6478   48.1665 C   0  0  2  0  0  0  0  0  0  0  0  0
   18.6453   -4.2279   44.8336 N   0  0  0  0  0  0  0  0  0  0  0  0
   20.0823   -4.7017   49.5863 N   0  0  0  0  0  0  0  0  0  0  0  0
   22.8546   -2.2388   46.3594 O   0  0  0  0  0  0  0  0  0  0  0  0
   21.1585   -3.1376   44.2372 O   0  0  0  0  0  0  0  0  0  0  0  0
  1  2  1  0  0  0  0
  1 12  1  1  0  0  0
  1 13  1  0  0  0  0
  2  3  1  0  0  0  0
  2 10  1  6  0  0  0
  4  3  1  6  0  0  0
  4  5  1  0  0  0  0
  4 14  1  0  0  0  0
  5  6  1  0  0  0  0
  5 13  1  6  0  0  0
  6  7  1  0  0  0  0
  6 15  1  1  0  0  0
  7  8  1  0  0  0  0
  7 11  1  1  0  0  0
  8 14  1  0  0  0  0
  8 16  1  1  0  0  0
  9 11  1  0  0  0  0
 17 16  1  6  0  0  0
 17 18  1  0  0  0  0
 17 24  1  0  0  0  0
 18 19  1  0  0  0  0
 18 25  1  6  0  0  0
 19 20  1  0  0  0  0
 19 26  1  1  0  0  0
 20 21  1  0  0  0  0
 20 23  1  6  0  0  0
 21 22  1  1  0  0  0
 21 24  1  0  0  0  0
 22 27  1  0  0  0  0
 28 12  1  1  0  0  0
 28 29  1  0  0  0  0
 28 33  1  0  0  0  0
 29 30  1  0  0  0  0
 29 36  1  1  0  0  0
 30 31  1  0  0  0  0
 30 37  1  6  0  0  0
 31 32  1  0  0  0  0
 31 34  1  6  0  0  0
 32 33  1  0  0  0  0
 33 35  1  1  0  0  0
M  END
>  <CHROM.1>
172.44909231,159.06385128,-151.75009916,-162.93554004,-169.14968192,67.26690482
21.34437217,-1.08586340,51.51517748,-1.47857862,-0.71419234,1.14909825

>  <Name>
2oe5_lig

>  <RI>
0

>  <Rbt.Current_Directory>
/home/itssahil/PROJECTS/Mol_Feturizer/New_Systems/rnas/2oe5

>  <Rbt.Executable>
rbdock ($Id: //depot/dev/client3/rdock/2013.1/src/exe/rbdock.cxx#4 $)

>  <Rbt.Library>
libRbt.so (2013.1, Build901 2013/11/27)

>  <Rbt.Parameter_File>
/export/apps/rDock/src/rDock_2013.1_src/data/scripts/dock_solv.prm

>  <Rbt.Receptor>
prm/pocket_docking_3.prm

>  <SCORE>
-14.2202

>  <SCORE.INTER>
-8.93691

>  <SCORE.INTER.CONST>
1

>  <SCORE.INTER.POLAR>
0

>  <SCORE.INTER.ROT>
6

>  <SCORE.INTER.SOLV>
11.1524

>  <SCORE.INTER.VDW>
-17.2754

>  <SCORE.INTER.norm>
-0.241538

>  <SCORE.INTRA>
-5.31355

>  <SCORE.INTRA.DIHEDRAL>
-10.2639

>  <SCORE.INTRA.DIHEDRAL.0>
16.2083

>  <SCORE.INTRA.POLAR>
0

>  <SCORE.INTRA.POLAR.0>
0

>  <SCORE.INTRA.REPUL>
0

>  <SCORE.INTRA.REPUL.0>
0

>  <SCORE.INTRA.SOLV>
-1.74778

>  <SCORE.INTRA.SOLV.lig_0>
-89.8095

>  <SCORE.INTRA.VDW>
0.692284

>  <SCORE.INTRA.VDW.0>
-3.19502

>  <SCORE.INTRA.norm>
-0.14361

>  <SCORE.RESTR>
0.0302783

>  <SCORE.RESTR.CAVITY>
0.0302783

>  <SCORE.RESTR.norm>
0.000818334

>  <SCORE.SYSTEM>
0

>  <SCORE.SYSTEM.CONST>
0

>  <SCORE.SYSTEM.DIHEDRAL>
0

>  <SCORE.SYSTEM.SOLV>
0

>  <SCORE.SYSTEM.norm>
0

>  <SCORE.heavy>
37

>  <SCORE.norm>
-0.384329

>  <RMSD>
9.723

$$$$
2oe5_lig
 OpenBabel11021811463D
libRbt.so/2013.1/901 2013/11/27
 37 40  0  0  0  0  0  0  0  0999 V2000
   19.7512   -2.4321   49.6838 C   0  0  1  0  0  0  0  0  0  0  0  0
   20.9223   -3.1225   50.4181 C   0  0  1  0  0  0  0  0  0  0  0  0
   20.6788   -3.0463   51.9712 C   0  0  0  0  0  0  0  0  0  0  0  0
   20.5912   -1.5384   52.2968 C   0  0  1  0  0  0  0  0  0  0  0  0
   19.3824   -0.8425   51.5281 C   0  0  1  0  0  0  0  0  0  0  0  0
   19.2720    0.6734   51.8475 C   0  0  1  0  0  0  0  0  0  0  0  0
   19.0677    0.7967   53.3843 C   0  0  1  0  0  0  0  0  0  0  0  0
   20.2591    0.0582   54.1043 C   0  0  2  0  0  0  0  0  0  0  0  0
   18.5199    2.6408   55.1624 C   0  0  0  0  0  0  0  0  0  0  0  0
   21.0142   -4.5410   50.0025 N   0  0  0  0  0  0  0  0  0  0  0  0
   19.0010    2.2508   53.7912 N   0  0  0  0  0  0  0  0  0  0  0  0
   18.5004   -3.0985   49.9210 O   0  0  0  0  0  0  0  0  0  0  0  0
   19.5906   -1.0280   50.0906 O   0  0  0  0  0  0  0  0  0  0  0  0
   20.3681   -1.3629   53.7217 O   0  0  0  0  0  0  0  0  0  0  0  0
   20.4843    1.3032   51.4210 O   0  0  0  0  0  0  0  0  0  0  0  0
   20.0742    0.0947   55.5056 O   0  0  0  0  0  0  0  0  0  0  0  0
   21.1905   -0.4776   56.1608 C   0  0  2  0  0  0  0  0  0  0  0  0
   21.1328   -0.2910   57.6765 C   0  0  1  0  0  0  0  0  0  0  0  0
   21.2069    1.2126   58.0599 C   0  0  2  0  0  0  0  0  0  0  0  0
   22.5214    1.7870   57.4531 C   0  0  1  0  0  0  0  0  0  0  0  0
   22.4679    1.5929   55.9021 C   0  0  1  0  0  0  0  0  0  0  0  0
   23.7240    2.0708   55.2084 C   0  0  0  0  0  0  0  0  0  0  0  0
   22.6046    3.2499   57.8232 N   0  0  0  0  0  0  0  0  0  0  0  0
   22.4001    0.1516   55.6325 O   0  0  0  0  0  0  0  0  0  0  0  0
   19.9001   -0.8779   58.1387 O   0  0  0  0  0  0  0  0  0  0  0  0
   21.2579    1.3048   59.4951 O   0  0  0  0  0  0  0  0  0  0  0  0
   23.6568    1.8977   53.8343 O   0  0  0  0  0  0  0  0  0  0  0  0
   18.2637   -4.2187   49.0679 C   0  0  1  0  0  0  0  0  0  0  0  0
   17.4869   -5.3341   49.8548 C   0  0  1  0  0  0  0  0  0  0  0  0
   17.2269   -6.5487   48.8928 C   0  0  2  0  0  0  0  0  0  0  0  0
   16.3789   -6.0801   47.7007 C   0  0  1  0  0  0  0  0  0  0  0  0
   17.1665   -4.9702   46.9031 C   0  0  0  0  0  0  0  0  0  0  0  0
   17.4428   -3.7542   47.8724 C   0  0  2  0  0  0  0  0  0  0  0  0
   16.1298   -7.2162   46.8288 N   0  0  0  0  0  0  0  0  0  0  0  0
   18.2046   -2.6929   47.1632 N   0  0  0  0  0  0  0  0  0  0  0  0
   18.2871   -5.7811   50.9868 O   0  0  0  0  0  0  0  0  0  0  0  0
   16.5168   -7.5400   49.5867 O   0  0  0  0  0  0  0  0  0  0  0  0
  1  2  1  0  0  0  0
  1 12  1  1  0  0  0
  1 13  1  0  0  0  0
  2  3  1  0  0  0  0
  2 10  1  6  0  0  0
  4  3  1  1  0  0  0
  4  5  1  0  0  0  0
  4 14  1  0  0  0  0
  5  6  1  0  0  0  0
  5 13  1  6  0  0  0
  6  7  1  0  0  0  0
  6 15  1  1  0  0  0
  7  8  1  0  0  0  0
  7 11  1  1  0  0  0
  8 14  1  0  0  0  0
  8 16  1  1  0  0  0
  9 11  1  0  0  0  0
 17 16  1  6  0  0  0
 17 18  1  0  0  0  0
 17 24  1  0  0  0  0
 18 19  1  0  0  0  0
 18 25  1  6  0  0  0
 19 20  1  0  0  0  0
 19 26  1  1  0  0  0
 20 21  1  0  0  0  0
 20 23  1  6  0  0  0
 21 22  1  6  0  0  0
 21 24  1  0  0  0  0
 22 27  1  0  0  0  0
 28 12  1  1  0  0  0
 28 29  1  0  0  0  0
 28 33  1  0  0  0  0
 29 30  1  0  0  0  0
 29 36  1  1  0  0  0
 30 31  1  0  0  0  0
 30 37  1  1  0  0  0
 31 32  1  0  0  0  0
 31 34  1  6  0  0  0
 32 33  1  0  0  0  0
 33 35  1  6  0  0  0
M  END
>  <CHROM.1>
-83.61416734,166.89309861,-175.58828589,172.09002002,-179.68908947,145.06782007
19.81488355,-1.48590362,52.61660141,-2.58045950,1.14183145,1.85217134

>  <Name>
2oe5_lig

>  <RI>
0

>  <Rbt.Current_Directory>
/home/itssahil/PROJECTS/Mol_Feturizer/New_Systems/rnas/2oe5

>  <Rbt.Executable>
rbdock ($Id: //depot/dev/client3/rdock/2013.1/src/exe/rbdock.cxx#4 $)

>  <Rbt.Library>
libRbt.so (2013.1, Build901 2013/11/27)

>  <Rbt.Parameter_File>
/export/apps/rDock/src/rDock_2013.1_src/data/scripts/dock_solv.prm

>  <Rbt.Receptor>
prm/pocket_docking_8.prm

>  <SCORE>
-23.2455

>  <SCORE.INTER>
-19.9479

>  <SCORE.INTER.CONST>
1

>  <SCORE.INTER.POLAR>
-1.93758

>  <SCORE.INTER.ROT>
6

>  <SCORE.INTER.SOLV>
15.3831

>  <SCORE.INTER.VDW>
-19.5677

>  <SCORE.INTER.norm>
-0.539131

>  <SCORE.INTRA>
-3.29761

>  <SCORE.INTRA.DIHEDRAL>
-8.67049

>  <SCORE.INTRA.DIHEDRAL.0>
16.2083

>  <SCORE.INTRA.POLAR>
0

>  <SCORE.INTRA.POLAR.0>
0

>  <SCORE.INTRA.REPUL>
0.0182978

>  <SCORE.INTRA.REPUL.0>
0

>  <SCORE.INTRA.SOLV>
0.300629

>  <SCORE.INTRA.SOLV.lig_0>
-89.8095

>  <SCORE.INTRA.VDW>
0.795834

>  <SCORE.INTRA.VDW.0>
-3.19502

>  <SCORE.INTRA.norm>
-0.0891245

>  <SCORE.RESTR>
0

>  <SCORE.RESTR.CAVITY>
0

>  <SCORE.RESTR.norm>
0

>  <SCORE.SYSTEM>
0

>  <SCORE.SYSTEM.CONST>
0

>  <SCORE.SYSTEM.DIHEDRAL>
0

>  <SCORE.SYSTEM.SOLV>
0

>  <SCORE.SYSTEM.norm>
0

>  <SCORE.heavy>
37

>  <SCORE.norm>
-0.628256

>  <RMSD>
9.739

$$$$
2oe5_lig
 OpenBabel11021811463D
libRbt.so/2013.1/901 2013/11/27
 37 40  0  0  0  0  0  0  0  0999 V2000
   21.4786   -5.4437   48.6960 C   0  0  1  0  0  0  0  0  0  0  0  0
   21.8637   -6.3268   49.9040 C   0  0  1  0  0  0  0  0  0  0  0  0
   21.2380   -5.7174   51.2133 C   0  0  0  0  0  0  0  0  0  0  0  0
   21.8239   -4.2916   51.3201 C   0  0  1  0  0  0  0  0  0  0  0  0
   21.4213   -3.3976   50.0651 C   0  0  1  0  0  0  0  0  0  0  0  0
   21.9946   -1.9570   50.1562 C   0  0  1  0  0  0  0  0  0  0  0  0
   21.4291   -1.3285   51.4616 C   0  0  1  0  0  0  0  0  0  0  0  0
   21.8109   -2.2655   52.6696 C   0  0  2  0  0  0  0  0  0  0  0  0
   21.4764    1.2116   50.8222 C   0  0  0  0  0  0  0  0  0  0  0  0
   21.3530   -7.7030   49.7079 N   0  0  0  0  0  0  0  0  0  0  0  0
   21.9807    0.0653   51.6562 N   0  0  0  0  0  0  0  0  0  0  0  0
   20.0582   -5.4176   48.4803 O   0  0  0  0  0  0  0  0  0  0  0  0
   21.9289   -4.0531   48.8581 O   0  0  0  0  0  0  0  0  0  0  0  0
   21.3029   -3.6420   52.5106 O   0  0  0  0  0  0  0  0  0  0  0  0
   23.4222   -2.0519   50.1879 O   0  0  0  0  0  0  0  0  0  0  0  0
   21.2585   -1.7582   53.8682 O   0  0  0  0  0  0  0  0  0  0  0  0
   21.9959   -0.6332   54.3081 C   0  0  2  0  0  0  0  0  0  0  0  0
   22.3161   -0.6964   55.8011 C   0  0  1  0  0  0  0  0  0  0  0  0
   21.0197   -0.6487   56.6555 C   0  0  2  0  0  0  0  0  0  0  0  0
   20.2578    0.6566   56.2792 C   0  0  1  0  0  0  0  0  0  0  0  0
   19.9348    0.6088   54.7496 C   0  0  1  0  0  0  0  0  0  0  0  0
   19.2366    1.8576   54.2592 C   0  0  0  0  0  0  0  0  0  0  0  0
   18.9952    0.7140   57.1078 N   0  0  0  0  0  0  0  0  0  0  0  0
   21.2096    0.5662   54.0232 O   0  0  0  0  0  0  0  0  0  0  0  0
   23.0412   -1.9196   56.0373 O   0  0  0  0  0  0  0  0  0  0  0  0
   21.4010   -0.6015   58.0423 O   0  0  0  0  0  0  0  0  0  0  0  0
   20.0221    2.9890   54.4191 O   0  0  0  0  0  0  0  0  0  0  0  0
   19.6222   -4.3996   47.5791 C   0  0  1  0  0  0  0  0  0  0  0  0
   20.0101   -4.7878   46.1075 C   0  0  1  0  0  0  0  0  0  0  0  0
   19.5090   -3.6605   45.1346 C   0  0  2  0  0  0  0  0  0  0  0  0
   17.9818   -3.5367   45.2445 C   0  0  1  0  0  0  0  0  0  0  0  0
   17.5947   -3.1328   46.7194 C   0  0  0  0  0  0  0  0  0  0  0  0
   18.1111   -4.2570   47.7011 C   0  0  2  0  0  0  0  0  0  0  0  0
   17.5291   -2.5044   44.3265 N   0  0  0  0  0  0  0  0  0  0  0  0
   17.7847   -3.9025   49.1075 N   0  0  0  0  0  0  0  0  0  0  0  0
   21.4577   -4.9070   45.9987 O   0  0  0  0  0  0  0  0  0  0  0  0
   19.8372   -4.0122   43.8167 O   0  0  0  0  0  0  0  0  0  0  0  0
  1  2  1  0  0  0  0
  1 12  1  1  0  0  0
  1 13  1  0  0  0  0
  2  3  1  0  0  0  0
  2 10  1  6  0  0  0
  4  3  1  6  0  0  0
  4  5  1  0  0  0  0
  4 14  1  0  0  0  0
  5  6  1  0  0  0  0
  5 13  1  6  0  0  0
  6  7  1  0  0  0  0
  6 15  1  1  0  0  0
  7  8  1  0  0  0  0
  7 11  1  1  0  0  0
  8 14  1  0  0  0  0
  8 16  1  1  0  0  0
  9 11  1  0  0  0  0
 17 16  1  1  0  0  0
 17 18  1  0  0  0  0
 17 24  1  0  0  0  0
 18 19  1  0  0  0  0
 18 25  1  6  0  0  0
 19 20  1  0  0  0  0
 19 26  1  1  0  0  0
 20 21  1  0  0  0  0
 20 23  1  1  0  0  0
 21 22  1  6  0  0  0
 21 24  1  0  0  0  0
 22 27  1  0  0  0  0
 28 12  1  1  0  0  0
 28 29  1  0  0  0  0
 28 33  1  0  0  0  0
 29 30  1  0  0  0  0
 29 36  1  1  0  0  0
 30 31  1  0  0  0  0
 30 37  1  6  0  0  0
 31 32  1  0  0  0  0
 31 34  1  6  0  0  0
 32 33  1  0  0  0  0
 33 35  1  1  0  0  0
M  END
>  <CHROM.1>
166.84730654,74.72582331,-75.13825565,-133.74488353,62.11064277,73.26347639
20.69577892,-2.41603459,50.97197072,-1.81786515,-1.01361013,0.88959246

>  <Name>
2oe5_lig

>  <RI>
0

>  <Rbt.Current_Directory>
/home/itssahil/PROJECTS/Mol_Feturizer/New_Systems/rnas/2oe5

>  <Rbt.Executable>
rbdock ($Id: //depot/dev/client3/rdock/2013.1/src/exe/rbdock.cxx#4 $)

>  <Rbt.Library>
libRbt.so (2013.1, Build901 2013/11/27)

>  <Rbt.Parameter_File>
/export/apps/rDock/src/rDock_2013.1_src/data/scripts/dock_solv.prm

>  <Rbt.Receptor>
prm/pocket_docking_8.prm

>  <SCORE>
-17.7687

>  <SCORE.INTER>
-15.6617

>  <SCORE.INTER.CONST>
1

>  <SCORE.INTER.POLAR>
-1.97828

>  <SCORE.INTER.ROT>
6

>  <SCORE.INTER.SOLV>
18.6261

>  <SCORE.INTER.VDW>
-17.6555

>  <SCORE.INTER.norm>
-0.423289

>  <SCORE.INTRA>
-2.10695

>  <SCORE.INTRA.DIHEDRAL>
-6.92046

>  <SCORE.INTRA.DIHEDRAL.0>
16.2083

>  <SCORE.INTRA.POLAR>
0

>  <SCORE.INTRA.POLAR.0>
0

>  <SCORE.INTRA.REPUL>
0

>  <SCORE.INTRA.REPUL.0>
0

>  <SCORE.INTRA.SOLV>
-0.639861

>  <SCORE.INTRA.SOLV.lig_0>
-89.8095

>  <SCORE.INTRA.VDW>
1.67321

>  <SCORE.INTRA.VDW.0>
-3.19502

>  <SCORE.INTRA.norm>
-0.0569446

>  <SCORE.RESTR>
0

>  <SCORE.RESTR.CAVITY>
0

>  <SCORE.RESTR.norm>
0

>  <SCORE.SYSTEM>
0

>  <SCORE.SYSTEM.CONST>
0

>  <SCORE.SYSTEM.DIHEDRAL>
0

>  <SCORE.SYSTEM.SOLV>
0

>  <SCORE.SYSTEM.norm>
0

>  <SCORE.heavy>
37

>  <SCORE.norm>
-0.480234

>  <RMSD>
9.741

$$$$
2oe5_lig
 OpenBabel11021811463D
libRbt.so/2013.1/901 2013/11/27
 37 40  0  0  0  0  0  0  0  0999 V2000
   22.4402   -1.8836   51.6551 C   0  0  1  0  0  0  0  0  0  0  0  0
   23.0210   -2.0335   53.0790 C   0  0  1  0  0  0  0  0  0  0  0  0
   21.8849   -1.7643   54.1344 C   0  0  0  0  0  0  0  0  0  0  0  0
   21.3963   -0.3263   53.8500 C   0  0  1  0  0  0  0  0  0  0  0  0
   20.8058   -0.1890   52.3773 C   0  0  1  0  0  0  0  0  0  0  0  0
   20.3019    1.2483   52.0732 C   0  0  1  0  0  0  0  0  0  0  0  0
   19.1994    1.5708   53.1216 C   0  0  1  0  0  0  0  0  0  0  0  0
   19.8119    1.3797   54.5609 C   0  0  2  0  0  0  0  0  0  0  0  0
   19.5522    4.1625   53.2675 C   0  0  0  0  0  0  0  0  0  0  0  0
   23.5537   -3.4027   53.2666 N   0  0  0  0  0  0  0  0  0  0  0  0
   18.6864    2.9795   52.9291 N   0  0  0  0  0  0  0  0  0  0  0  0
   21.4144   -2.8538   51.3881 O   0  0  0  0  0  0  0  0  0  0  0  0
   21.8609   -0.5509   51.4286 O   0  0  0  0  0  0  0  0  0  0  0  0
   20.3386    0.0194   54.7841 O   0  0  0  0  0  0  0  0  0  0  0  0
   21.4167    2.1389   52.1840 O   0  0  0  0  0  0  0  0  0  0  0  0
   18.8189    1.6035   55.5423 O   0  0  0  0  0  0  0  0  0  0  0  0
   19.4058    1.6496   56.8293 C   0  0  2  0  0  0  0  0  0  0  0  0
   18.4053    2.0592   57.9094 C   0  0  1  0  0  0  0  0  0  0  0  0
   17.8951    3.5086   57.6810 C   0  0  2  0  0  0  0  0  0  0  0  0
   19.1393    4.4452   57.6559 C   0  0  1  0  0  0  0  0  0  0  0  0
   20.0777    3.9782   56.4950 C   0  0  1  0  0  0  0  0  0  0  0  0
   21.3513    4.7894   56.4091 C   0  0  0  0  0  0  0  0  0  0  0  0
   18.6531    5.8593   57.4368 N   0  0  0  0  0  0  0  0  0  0  0  0
   20.5101    2.6073   56.7919 O   0  0  0  0  0  0  0  0  0  0  0  0
   17.3137    1.1188   57.8679 O   0  0  0  0  0  0  0  0  0  0  0  0
   17.0474    3.8628   58.7886 O   0  0  0  0  0  0  0  0  0  0  0  0
   21.2844    5.7585   55.4197 O   0  0  0  0  0  0  0  0  0  0  0  0
   20.7182   -2.6455   50.1590 C   0  0  1  0  0  0  0  0  0  0  0  0
   21.6230   -3.0838   48.9523 C   0  0  1  0  0  0  0  0  0  0  0  0
   20.8315   -2.8580   47.6140 C   0  0  2  0  0  0  0  0  0  0  0  0
   19.5534   -3.7099   47.6299 C   0  0  1  0  0  0  0  0  0  0  0  0
   18.6392   -3.2588   48.8337 C   0  0  0  0  0  0  0  0  0  0  0  0
   19.4384   -3.4703   50.1794 C   0  0  2  0  0  0  0  0  0  0  0  0
   18.8404   -3.5066   46.3795 N   0  0  0  0  0  0  0  0  0  0  0  0
   18.6175   -3.0352   51.3399 N   0  0  0  0  0  0  0  0  0  0  0  0
   22.8368   -2.2789   48.9337 O   0  0  0  0  0  0  0  0  0  0  0  0
   21.6294   -3.2656   46.5344 O   0  0  0  0  0  0  0  0  0  0  0  0
  1  2  1  0  0  0  0
  1 12  1  1  0  0  0
  1 13  1  0  0  0  0
  2  3  1  0  0  0  0
  2 10  1  6  0  0  0
  4  3  1  1  0  0  0
  4  5  1  0  0  0  0
  4 14  1  0  0  0  0
  5  6  1  0  0  0  0
  5 13  1  6  0  0  0
  6  7  1  0  0  0  0
  6 15  1  1  0  0  0
  7  8  1  0  0  0  0
  7 11  1  1  0  0  0
  8 14  1  0  0  0  0
  8 16  1  1  0  0  0
  9 11  1  0  0  0  0
 17 16  1  6  0  0  0
 17 18  1  0  0  0  0
 17 24  1  0  0  0  0
 18 19  1  0  0  0  0
 18 25  1  6  0  0  0
 19 20  1  0  0  0  0
 19 26  1  1  0  0  0
 20 21  1  0  0  0  0
 20 23  1  6  0  0  0
 21 22  1  1  0  0  0
 21 24  1  0  0  0  0
 22 27  1  0  0  0  0
 28 12  1  1  0  0  0
 28 29  1  0  0  0  0
 28 33  1  0  0  0  0
 29 30  1  0  0  0  0
 29 36  1  6  0  0  0
 30 31  1  0  0  0  0
 30 37  1  6  0  0  0
 31 32  1  0  0  0  0
 31 34  1  6  0  0  0
 32 33  1  0  0  0  0
 33 35  1  1  0  0  0
M  END
>  <CHROM.1>
171.85674047,-70.42379766,-170.46663828,172.96230684,-99.89014440,75.20329477
20.23057210,0.32353471,53.14402520,-1.40326847,-0.05740782,0.88128054

>  <Name>
2oe5_lig

>  <RI>
0

>  <Rbt.Current_Directory>
/home/itssahil/PROJECTS/Mol_Feturizer/New_Systems/rnas/2oe5

>  <Rbt.Executable>
rbdock ($Id: //depot/dev/client3/rdock/2013.1/src/exe/rbdock.cxx#4 $)

>  <Rbt.Library>
libRbt.so (2013.1, Build901 2013/11/27)

>  <Rbt.Parameter_File>
/export/apps/rDock/src/rDock_2013.1_src/data/scripts/dock_solv.prm

>  <Rbt.Receptor>
prm/pocket_docking_5.prm

>  <SCORE>
-20.5557

>  <SCORE.INTER>
-17.1024

>  <SCORE.INTER.CONST>
1

>  <SCORE.INTER.POLAR>
-1.82299

>  <SCORE.INTER.ROT>
6

>  <SCORE.INTER.SOLV>
17.872

>  <SCORE.INTER.VDW>
-18.8823

>  <SCORE.INTER.norm>
-0.462226

>  <SCORE.INTRA>
-3.45329

>  <SCORE.INTRA.DIHEDRAL>
-10.0128

>  <SCORE.INTRA.DIHEDRAL.0>
16.2083

>  <SCORE.INTRA.POLAR>
0

>  <SCORE.INTRA.POLAR.0>
0

>  <SCORE.INTRA.REPUL>
0

>  <SCORE.INTRA.REPUL.0>
0

>  <SCORE.INTRA.SOLV>
-1.422

>  <SCORE.INTRA.SOLV.lig_0>
-89.8095

>  <SCORE.INTRA.VDW>
2.26413

>  <SCORE.INTRA.VDW.0>
-3.19502

>  <SCORE.INTRA.norm>
-0.0933321

>  <SCORE.RESTR>
0

>  <SCORE.RESTR.CAVITY>
0

>  <SCORE.RESTR.norm>
0

>  <SCORE.SYSTEM>
0

>  <SCORE.SYSTEM.CONST>
0

>  <SCORE.SYSTEM.DIHEDRAL>
0

>  <SCORE.SYSTEM.SOLV>
0

>  <SCORE.SYSTEM.norm>
0

>  <SCORE.heavy>
37

>  <SCORE.norm>
-0.555558

>  <RMSD>
9.754

$$$$
2oe5_lig
 OpenBabel11021811463D
libRbt.so/2013.1/901 2013/11/27
 37 40  0  0  0  0  0  0  0  0999 V2000
   21.3894   -4.0635   50.8703 C   0  0  1  0  0  0  0  0  0  0  0  0
   19.8741   -3.9259   51.1393 C   0  0  1  0  0  0  0  0  0  0  0  0
   19.5484   -2.4353   51.5252 C   0  0  0  0  0  0  0  0  0  0  0  0
   20.3951   -2.1456   52.7848 C   0  0  1  0  0  0  0  0  0  0  0  0
   21.9530   -2.2968   52.4905 C   0  0  1  0  0  0  0  0  0  0  0  0
   22.8232   -2.0025   53.7428 C   0  0  1  0  0  0  0  0  0  0  0  0
   22.5029   -0.5455   54.1822 C   0  0  1  0  0  0  0  0  0  0  0  0
   20.9494   -0.4285   54.4190 C   0  0  2  0  0  0  0  0  0  0  0  0
   24.7752   -0.0945   55.4053 C   0  0  0  0  0  0  0  0  0  0  0  0
   19.1091   -4.2999   49.9275 N   0  0  0  0  0  0  0  0  0  0  0  0
   23.2740   -0.1916   55.4331 N   0  0  0  0  0  0  0  0  0  0  0  0
   21.8118   -3.2645   49.7531 O   0  0  0  0  0  0  0  0  0  0  0  0
   22.1985   -3.6657   52.0321 O   0  0  0  0  0  0  0  0  0  0  0  0
   20.1589   -0.7810   53.2237 O   0  0  0  0  0  0  0  0  0  0  0  0
   22.4735   -2.9514   54.7555 O   0  0  0  0  0  0  0  0  0  0  0  0
   20.6111    0.9015   54.7595 O   0  0  0  0  0  0  0  0  0  0  0  0
   19.2527    0.9754   55.1496 C   0  0  2  0  0  0  0  0  0  0  0  0
   18.7354    2.4130   55.1824 C   0  0  1  0  0  0  0  0  0  0  0  0
   19.4777    3.2520   56.2586 C   0  0  2  0  0  0  0  0  0  0  0  0
   19.2862    2.5339   57.6274 C   0  0  1  0  0  0  0  0  0  0  0  0
   19.8843    1.0935   57.5102 C   0  0  1  0  0  0  0  0  0  0  0  0
   19.7064    0.2810   58.7734 C   0  0  0  0  0  0  0  0  0  0  0  0
   20.0028    3.3444   58.6826 N   0  0  0  0  0  0  0  0  0  0  0  0
   19.1272    0.3762   56.4774 O   0  0  0  0  0  0  0  0  0  0  0  0
   18.9317    2.9742   53.8693 O   0  0  0  0  0  0  0  0  0  0  0  0
   18.8676    4.5544   56.3079 O   0  0  0  0  0  0  0  0  0  0  0  0
   18.3744   -0.0188   59.0152 O   0  0  0  0  0  0  0  0  0  0  0  0
   21.3805   -3.7584   48.4847 C   0  0  1  0  0  0  0  0  0  0  0  0
   20.8470   -2.5726   47.6037 C   0  0  1  0  0  0  0  0  0  0  0  0
   20.3915   -3.1383   46.2105 C   0  0  2  0  0  0  0  0  0  0  0  0
   21.5918   -3.7942   45.5115 C   0  0  1  0  0  0  0  0  0  0  0  0
   22.1174   -4.9939   46.3906 C   0  0  0  0  0  0  0  0  0  0  0  0
   22.5616   -4.4302   47.7975 C   0  0  2  0  0  0  0  0  0  0  0  0
   21.1619   -4.2964   44.2168 N   0  0  0  0  0  0  0  0  0  0  0  0
   23.0441   -5.5357   48.6664 N   0  0  0  0  0  0  0  0  0  0  0  0
   19.7089   -1.9471   48.2631 O   0  0  0  0  0  0  0  0  0  0  0  0
   19.9314   -2.0795   45.4133 O   0  0  0  0  0  0  0  0  0  0  0  0
  1  2  1  0  0  0  0
  1 12  1  6  0  0  0
  1 13  1  0  0  0  0
  2  3  1  0  0  0  0
  2 10  1  6  0  0  0
  4  3  1  6  0  0  0
  4  5  1  0  0  0  0
  4 14  1  0  0  0  0
  5  6  1  0  0  0  0
  5 13  1  1  0  0  0
  6  7  1  0  0  0  0
  6 15  1  1  0  0  0
  7  8  1  0  0  0  0
  7 11  1  1  0  0  0
  8 14  1  0  0  0  0
  8 16  1  6  0  0  0
  9 11  1  0  0  0  0
 17 16  1  1  0  0  0
 17 18  1  0  0  0  0
 17 24  1  0  0  0  0
 18 19  1  0  0  0  0
 18 25  1  6  0  0  0
 19 20  1  0  0  0  0
 19 26  1  1  0  0  0
 20 21  1  0  0  0  0
 20 23  1  1  0  0  0
 21 22  1  1  0  0  0
 21 24  1  0  0  0  0
 22 27  1  0  0  0  0
 28 12  1  1  0  0  0
 28 29  1  0  0  0  0
 28 33  1  0  0  0  0
 29 30  1  0  0  0  0
 29 36  1  1  0  0  0
 30 31  1  0  0  0  0
 30 37  1  6  0  0  0
 31 32  1  0  0  0  0
 31 34  1  6  0  0  0
 32 33  1  0  0  0  0
 33 35  1  1  0  0  0
M  END
>  <CHROM.1>
-71.81928991,66.07000310,-172.06869665,-165.33323992,67.54612989,135.97379687
20.74664735,-1.23396179,52.46969114,-1.38060905,-0.84608592,1.19226768

>  <Name>
2oe5_lig

>  <RI>
0

>  <Rbt.Current_Directory>
/home/itssahil/PROJECTS/Mol_Feturizer/New_Systems/rnas/2oe5

>  <Rbt.Executable>
rbdock ($Id: //depot/dev/client3/rdock/2013.1/src/exe/rbdock.cxx#4 $)

>  <Rbt.Library>
libRbt.so (2013.1, Build901 2013/11/27)

>  <Rbt.Parameter_File>
/export/apps/rDock/src/rDock_2013.1_src/data/scripts/dock_solv.prm

>  <Rbt.Receptor>
prm/pocket_docking_6.prm

>  <SCORE>
-17.8887

>  <SCORE.INTER>
-15.3447

>  <SCORE.INTER.CONST>
1

>  <SCORE.INTER.POLAR>
-1.40394

>  <SCORE.INTER.ROT>
6

>  <SCORE.INTER.SOLV>
14.8024

>  <SCORE.INTER.VDW>
-18.0842

>  <SCORE.INTER.norm>
-0.414722

>  <SCORE.INTRA>
-2.544

>  <SCORE.INTRA.DIHEDRAL>
-7.90282

>  <SCORE.INTRA.DIHEDRAL.0>
16.2083

>  <SCORE.INTRA.POLAR>
0

>  <SCORE.INTRA.POLAR.0>
0

>  <SCORE.INTRA.REPUL>
0

>  <SCORE.INTRA.REPUL.0>
0

>  <SCORE.INTRA.SOLV>
1.15848

>  <SCORE.INTRA.SOLV.lig_0>
-89.8095

>  <SCORE.INTRA.VDW>
0.828166

>  <SCORE.INTRA.VDW.0>
-3.19502

>  <SCORE.INTRA.norm>
-0.0687568

>  <SCORE.RESTR>
0

>  <SCORE.RESTR.CAVITY>
0

>  <SCORE.RESTR.norm>
0

>  <SCORE.SYSTEM>
0

>  <SCORE.SYSTEM.CONST>
0

>  <SCORE.SYSTEM.DIHEDRAL>
0

>  <SCORE.SYSTEM.SOLV>
0

>  <SCORE.SYSTEM.norm>
0

>  <SCORE.heavy>
37

>  <SCORE.norm>
-0.483479

>  <RMSD>
9.761

$$$$
2oe5_lig
 OpenBabel11021811463D
libRbt.so/2013.1/901 2013/11/27
 37 40  0  0  0  0  0  0  0  0999 V2000
   23.2112   -2.1931   49.0411 C   0  0  1  0  0  0  0  0  0  0  0  0
   24.4078   -1.9621   49.9908 C   0  0  1  0  0  0  0  0  0  0  0  0
   23.9481   -2.2103   51.4755 C   0  0  0  0  0  0  0  0  0  0  0  0
   22.8026   -1.2030   51.7216 C   0  0  1  0  0  0  0  0  0  0  0  0
   21.5805   -1.4526   50.7314 C   0  0  1  0  0  0  0  0  0  0  0  0
   20.4142   -0.4544   50.9671 C   0  0  1  0  0  0  0  0  0  0  0  0
   19.9526   -0.6402   52.4405 C   0  0  1  0  0  0  0  0  0  0  0  0
   21.1988   -0.4291   53.3816 C   0  0  2  0  0  0  0  0  0  0  0  0
   19.1177    1.8144   52.8156 C   0  0  0  0  0  0  0  0  0  0  0  0
   25.5087   -2.8936   49.6534 N   0  0  0  0  0  0  0  0  0  0  0  0
   18.8465    0.3351   52.7723 N   0  0  0  0  0  0  0  0  0  0  0  0
   22.7418   -3.5505   49.0881 O   0  0  0  0  0  0  0  0  0  0  0  0
   22.0726   -1.3182   49.3587 O   0  0  0  0  0  0  0  0  0  0  0  0
   22.3087   -1.3537   53.0796 O   0  0  0  0  0  0  0  0  0  0  0  0
   20.9098    0.8669   50.7286 O   0  0  0  0  0  0  0  0  0  0  0  0
   20.8309   -0.6527   54.7284 O   0  0  0  0  0  0  0  0  0  0  0  0
   21.5993    0.1687   55.5874 C   0  0  2  0  0  0  0  0  0  0  0  0
   21.6694   -0.3846   57.0103 C   0  0  1  0  0  0  0  0  0  0  0  0
   20.2650   -0.4058   57.6738 C   0  0  2  0  0  0  0  0  0  0  0  0
   19.7095    1.0489   57.6425 C   0  0  1  0  0  0  0  0  0  0  0  0
   19.6313    1.5089   56.1496 C   0  0  1  0  0  0  0  0  0  0  0  0
   19.1507    2.9352   56.0007 C   0  0  0  0  0  0  0  0  0  0  0  0
   18.3434    1.0397   58.2889 N   0  0  0  0  0  0  0  0  0  0  0  0
   20.9945    1.4998   55.6055 O   0  0  0  0  0  0  0  0  0  0  0  0
   22.2195   -1.7146   56.9314 O   0  0  0  0  0  0  0  0  0  0  0  0
   20.4233   -0.8321   59.0392 O   0  0  0  0  0  0  0  0  0  0  0  0
   17.8270    3.0807   56.3870 O   0  0  0  0  0  0  0  0  0  0  0  0
   21.6002   -3.8031   48.2686 C   0  0  1  0  0  0  0  0  0  0  0  0
   22.0055   -3.7335   46.7527 C   0  0  1  0  0  0  0  0  0  0  0  0
   20.7377   -4.0275   45.8727 C   0  0  2  0  0  0  0  0  0  0  0  0
   20.2096   -5.4333   46.1962 C   0  0  1  0  0  0  0  0  0  0  0  0
   19.7896   -5.4973   47.7153 C   0  0  0  0  0  0  0  0  0  0  0  0
   21.0591   -5.1868   48.6021 C   0  0  2  0  0  0  0  0  0  0  0  0
   19.0490   -5.7001   45.3626 N   0  0  0  0  0  0  0  0  0  0  0  0
   20.6996   -5.2156   50.0443 N   0  0  0  0  0  0  0  0  0  0  0  0
   22.5076   -2.4021   46.4415 O   0  0  0  0  0  0  0  0  0  0  0  0
   21.0994   -3.9846   44.5178 O   0  0  0  0  0  0  0  0  0  0  0  0
  1  2  1  0  0  0  0
  1 12  1  1  0  0  0
  1 13  1  0  0  0  0
  2  3  1  0  0  0  0
  2 10  1  6  0  0  0
  4  3  1  6  0  0  0
  4  5  1  0  0  0  0
  4 14  1  0  0  0  0
  5  6  1  0  0  0  0
  5 13  1  6  0  0  0
  6  7  1  0  0  0  0
  6 15  1  1  0  0  0
  7  8  1  0  0  0  0
  7 11  1  1  0  0  0
  8 14  1  0  0  0  0
  8 16  1  1  0  0  0
  9 11  1  0  0  0  0
 17 16  1  6  0  0  0
 17 18  1  0  0  0  0
 17 24  1  0  0  0  0
 18 19  1  0  0  0  0
 18 25  1  6  0  0  0
 19 20  1  0  0  0  0
 19 26  1  1  0  0  0
 20 21  1  0  0  0  0
 20 23  1  6  0  0  0
 21 22  1  1  0  0  0
 21 24  1  0  0  0  0
 22 27  1  0  0  0  0
 28 12  1  1  0  0  0
 28 29  1  0  0  0  0
 28 33  1  0  0  0  0
 29 30  1  0  0  0  0
 29 36  1  6  0  0  0
 30 31  1  0  0  0  0
 30 37  1  6  0  0  0
 31 32  1  0  0  0  0
 31 34  1  6  0  0  0
 32 33  1  0  0  0  0
 33 35  1  1  0  0  0
M  END
>  <CHROM.1>
177.54242416,-66.57922741,-148.44342510,-157.31495398,-67.11109440,69.76561301
21.08987890,-1.43329805,51.86913047,-1.41678013,-0.45722426,1.16933354

>  <Name>
2oe5_lig

>  <RI>
0

>  <Rbt.Current_Directory>
/home/itssahil/PROJECTS/Mol_Feturizer/New_Systems/rnas/2oe5

>  <Rbt.Executable>
rbdock ($Id: //depot/dev/client3/rdock/2013.1/src/exe/rbdock.cxx#4 $)

>  <Rbt.Library>
libRbt.so (2013.1, Build901 2013/11/27)

>  <Rbt.Parameter_File>
/export/apps/rDock/src/rDock_2013.1_src/data/scripts/dock_solv.prm

>  <Rbt.Receptor>
prm/pocket_docking_3.prm

>  <SCORE>
-14.8194

>  <SCORE.INTER>
-11.3794

>  <SCORE.INTER.CONST>
1

>  <SCORE.INTER.POLAR>
-0.387586

>  <SCORE.INTER.ROT>
6

>  <SCORE.INTER.SOLV>
16.6443

>  <SCORE.INTER.VDW>
-19.4424

>  <SCORE.INTER.norm>
-0.307553

>  <SCORE.INTRA>
-3.43999

>  <SCORE.INTRA.DIHEDRAL>
-9.28608

>  <SCORE.INTRA.DIHEDRAL.0>
16.2083

>  <SCORE.INTRA.POLAR>
0

>  <SCORE.INTRA.POLAR.0>
0

>  <SCORE.INTRA.REPUL>
0

>  <SCORE.INTRA.REPUL.0>
0

>  <SCORE.INTRA.SOLV>
-1.10781

>  <SCORE.INTRA.SOLV.lig_0>
-89.8095

>  <SCORE.INTRA.VDW>
1.75696

>  <SCORE.INTRA.VDW.0>
-3.19502

>  <SCORE.INTRA.norm>
-0.0929726

>  <SCORE.RESTR>
0

>  <SCORE.RESTR.CAVITY>
0

>  <SCORE.RESTR.norm>
0

>  <SCORE.SYSTEM>
0

>  <SCORE.SYSTEM.CONST>
0

>  <SCORE.SYSTEM.DIHEDRAL>
0

>  <SCORE.SYSTEM.SOLV>
0

>  <SCORE.SYSTEM.norm>
0

>  <SCORE.heavy>
37

>  <SCORE.norm>
-0.400525

>  <RMSD>
9.764

$$$$
2oe5_lig
 OpenBabel11021811463D
libRbt.so/2013.1/901 2013/11/27
 37 40  0  0  0  0  0  0  0  0999 V2000
   17.7153   -5.1693   48.0087 C   0  0  1  0  0  0  0  0  0  0  0  0
   17.2865   -3.7702   47.5129 C   0  0  1  0  0  0  0  0  0  0  0  0
   18.5159   -2.7909   47.5945 C   0  0  0  0  0  0  0  0  0  0  0  0
   18.9325   -2.7823   49.0824 C   0  0  1  0  0  0  0  0  0  0  0  0
   19.3664   -4.2325   49.5773 C   0  0  1  0  0  0  0  0  0  0  0  0
   19.7963   -4.2446   51.0697 C   0  0  1  0  0  0  0  0  0  0  0  0
   20.9901   -3.2568   51.2031 C   0  0  1  0  0  0  0  0  0  0  0  0
   20.5325   -1.8492   50.6622 C   0  0  2  0  0  0  0  0  0  0  0  0
   22.9058   -3.1716   52.9879 C   0  0  0  0  0  0  0  0  0  0  0  0
   16.8142   -3.8528   46.1116 N   0  0  0  0  0  0  0  0  0  0  0  0
   21.4413   -3.1681   52.6429 N   0  0  0  0  0  0  0  0  0  0  0  0
   18.7355   -5.7452   47.1765 O   0  0  0  0  0  0  0  0  0  0  0  0
   18.2310   -5.1371   49.3856 O   0  0  0  0  0  0  0  0  0  0  0  0
   20.0695   -1.8958   49.2617 O   0  0  0  0  0  0  0  0  0  0  0  0
   18.6741   -3.8301   51.8551 O   0  0  0  0  0  0  0  0  0  0  0  0
   21.6133   -0.9388   50.7089 O   0  0  0  0  0  0  0  0  0  0  0  0
   21.1304    0.3906   50.7575 C   0  0  2  0  0  0  0  0  0  0  0  0
   22.2468    1.4054   51.0015 C   0  0  1  0  0  0  0  0  0  0  0  0
   22.9006    1.1959   52.3949 C   0  0  2  0  0  0  0  0  0  0  0  0
   21.7726    1.3046   53.4634 C   0  0  1  0  0  0  0  0  0  0  0  0
   20.7054    0.2023   53.1594 C   0  0  1  0  0  0  0  0  0  0  0  0
   19.5296    0.2477   54.1097 C   0  0  0  0  0  0  0  0  0  0  0  0
   22.3994    1.1050   54.8240 N   0  0  0  0  0  0  0  0  0  0  0  0
   20.1425    0.4770   51.8320 O   0  0  0  0  0  0  0  0  0  0  0  0
   23.2183    1.2420   49.9493 O   0  0  0  0  0  0  0  0  0  0  0  0
   23.8613    2.2478   52.5994 O   0  0  0  0  0  0  0  0  0  0  0  0
   19.9044   -0.0360   55.4142 O   0  0  0  0  0  0  0  0  0  0  0  0
   19.1296   -7.0624   47.5616 C   0  0  1  0  0  0  0  0  0  0  0  0
   17.9801   -8.0810   47.2328 C   0  0  1  0  0  0  0  0  0  0  0  0
   18.4419   -9.5228   47.6525 C   0  0  2  0  0  0  0  0  0  0  0  0
   19.7028   -9.9028   46.8615 C   0  0  1  0  0  0  0  0  0  0  0  0
   20.8605   -8.8875   47.2037 C   0  0  0  0  0  0  0  0  0  0  0  0
   20.3927   -7.4348   46.7970 C   0  0  2  0  0  0  0  0  0  0  0  0
   20.1085  -11.2449   47.2449 N   0  0  0  0  0  0  0  0  0  0  0  0
   21.4500   -6.4425   47.1245 N   0  0  0  0  0  0  0  0  0  0  0  0
   16.7821   -7.7241   47.9803 O   0  0  0  0  0  0  0  0  0  0  0  0
   17.4251  -10.4387   47.3434 O   0  0  0  0  0  0  0  0  0  0  0  0
  1  2  1  0  0  0  0
  1 12  1  6  0  0  0
  1 13  1  0  0  0  0
  2  3  1  0  0  0  0
  2 10  1  6  0  0  0
  4  3  1  6  0  0  0
  4  5  1  0  0  0  0
  4 14  1  0  0  0  0
  5  6  1  0  0  0  0
  5 13  1  1  0  0  0
  6  7  1  0  0  0  0
  6 15  1  1  0  0  0
  7  8  1  0  0  0  0
  7 11  1  1  0  0  0
  8 14  1  0  0  0  0
  8 16  1  6  0  0  0
  9 11  1  0  0  0  0
 17 16  1  1  0  0  0
 17 18  1  0  0  0  0
 17 24  1  0  0  0  0
 18 19  1  0  0  0  0
 18 25  1  6  0  0  0
 19 20  1  0  0  0  0
 19 26  1  1  0  0  0
 20 21  1  0  0  0  0
 20 23  1  1  0  0  0
 21 22  1  1  0  0  0
 21 24  1  0  0  0  0
 22 27  1  0  0  0  0
 28 12  1  6  0  0  0
 28 29  1  0  0  0  0
 28 33  1  0  0  0  0
 29 30  1  0  0  0  0
 29 36  1  1  0  0  0
 30 31  1  0  0  0  0
 30 37  1  6  0  0  0
 31 32  1  0  0  0  0
 31 34  1  1  0  0  0
 32 33  1  0  0  0  0
 33 35  1  1  0  0  0
M  END
>  <CHROM.1>
-177.64392094,136.79222941,-156.42063998,172.17192638,-64.48527785,71.12641319
20.04792024,-3.55560700,49.95964070,2.02617867,0.87975703,-2.95128220

>  <Name>
2oe5_lig

>  <RI>
0

>  <Rbt.Current_Directory>
/home/itssahil/PROJECTS/Mol_Feturizer/New_Systems/rnas/2oe5

>  <Rbt.Executable>
rbdock ($Id: //depot/dev/client3/rdock/2013.1/src/exe/rbdock.cxx#4 $)

>  <Rbt.Library>
libRbt.so (2013.1, Build901 2013/11/27)

>  <Rbt.Parameter_File>
/export/apps/rDock/src/rDock_2013.1_src/data/scripts/dock_solv.prm

>  <Rbt.Receptor>
prm/pocket_docking_7.prm

>  <SCORE>
-24.4086

>  <SCORE.INTER>
-18.6325

>  <SCORE.INTER.CONST>
1

>  <SCORE.INTER.POLAR>
-1.04969

>  <SCORE.INTER.ROT>
6

>  <SCORE.INTER.SOLV>
14.0818

>  <SCORE.INTER.VDW>
-21.2166

>  <SCORE.INTER.norm>
-0.503581

>  <SCORE.INTRA>
-5.77614

>  <SCORE.INTRA.DIHEDRAL>
-11.7409

>  <SCORE.INTRA.DIHEDRAL.0>
16.2083

>  <SCORE.INTRA.POLAR>
0

>  <SCORE.INTRA.POLAR.0>
0

>  <SCORE.INTRA.REPUL>
0

>  <SCORE.INTRA.REPUL.0>
0

>  <SCORE.INTRA.SOLV>
-1.34002

>  <SCORE.INTRA.SOLV.lig_0>
-89.8095

>  <SCORE.INTRA.VDW>
0.764298

>  <SCORE.INTRA.VDW.0>
-3.19502

>  <SCORE.INTRA.norm>
-0.156112

>  <SCORE.RESTR>
0

>  <SCORE.RESTR.CAVITY>
0

>  <SCORE.RESTR.norm>
0

>  <SCORE.SYSTEM>
0

>  <SCORE.SYSTEM.CONST>
0

>  <SCORE.SYSTEM.DIHEDRAL>
0

>  <SCORE.SYSTEM.SOLV>
0

>  <SCORE.SYSTEM.norm>
0

>  <SCORE.heavy>
37

>  <SCORE.norm>
-0.659693

>  <RMSD>
9.786

$$$$
2oe5_lig
 OpenBabel11021811463D
libRbt.so/2013.1/901 2013/11/27
 37 40  0  0  0  0  0  0  0  0999 V2000
   19.7335   -2.4038   49.7229 C   0  0  1  0  0  0  0  0  0  0  0  0
   20.9343   -3.0636   50.4371 C   0  0  1  0  0  0  0  0  0  0  0  0
   20.7088   -3.0055   51.9936 C   0  0  0  0  0  0  0  0  0  0  0  0
   20.5802   -1.5032   52.3314 C   0  0  1  0  0  0  0  0  0  0  0  0
   19.3412   -0.8388   51.5832 C   0  0  1  0  0  0  0  0  0  0  0  0
   19.1895    0.6709   51.9150 C   0  0  1  0  0  0  0  0  0  0  0  0
   19.0016    0.7774   53.4551 C   0  0  1  0  0  0  0  0  0  0  0  0
   20.2238    0.0702   54.1545 C   0  0  2  0  0  0  0  0  0  0  0  0
   20.0758    3.1502   53.7355 C   0  0  0  0  0  0  0  0  0  0  0  0
   21.0633   -4.4759   50.0101 N   0  0  0  0  0  0  0  0  0  0  0  0
   18.8965    2.2261   53.8734 N   0  0  0  0  0  0  0  0  0  0  0  0
   18.5065   -3.1093   49.9712 O   0  0  0  0  0  0  0  0  0  0  0  0
   19.5361   -1.0080   50.1418 O   0  0  0  0  0  0  0  0  0  0  0  0
   20.3705   -1.3443   53.7602 O   0  0  0  0  0  0  0  0  0  0  0  0
   20.3767    1.3398   51.4776 O   0  0  0  0  0  0  0  0  0  0  0  0
   20.0562    0.0916   55.5583 O   0  0  0  0  0  0  0  0  0  0  0  0
   21.1715   -0.5056   56.1926 C   0  0  2  0  0  0  0  0  0  0  0  0
   21.1402   -0.3281   57.7102 C   0  0  1  0  0  0  0  0  0  0  0  0
   21.2481    1.1712   58.1020 C   0  0  2  0  0  0  0  0  0  0  0  0
   22.5636    1.7253   57.4790 C   0  0  1  0  0  0  0  0  0  0  0  0
   22.4830    1.5426   55.9277 C   0  0  1  0  0  0  0  0  0  0  0  0
   23.7371    2.0019   55.2180 C   0  0  0  0  0  0  0  0  0  0  0  0
   22.6795    3.1839   57.8571 N   0  0  0  0  0  0  0  0  0  0  0  0
   22.3844    0.1047   55.6500 O   0  0  0  0  0  0  0  0  0  0  0  0
   19.9040   -0.8953   58.1873 O   0  0  0  0  0  0  0  0  0  0  0  0
   21.3225    1.2529   59.5369 O   0  0  0  0  0  0  0  0  0  0  0  0
   23.9465    3.3649   55.3625 O   0  0  0  0  0  0  0  0  0  0  0  0
   18.2732   -4.2059   49.0871 C   0  0  1  0  0  0  0  0  0  0  0  0
   17.4831   -5.3373   49.8372 C   0  0  1  0  0  0  0  0  0  0  0  0
   17.2273   -6.5255   48.8416 C   0  0  2  0  0  0  0  0  0  0  0  0
   16.3938   -6.0221   47.6534 C   0  0  1  0  0  0  0  0  0  0  0  0
   17.1947   -4.8959   46.8927 C   0  0  0  0  0  0  0  0  0  0  0  0
   17.4668   -3.7067   47.8958 C   0  0  2  0  0  0  0  0  0  0  0  0
   16.1483   -7.1341   46.7500 N   0  0  0  0  0  0  0  0  0  0  0  0
   18.2409   -2.6313   47.2219 N   0  0  0  0  0  0  0  0  0  0  0  0
   18.2696   -5.8173   50.9653 O   0  0  0  0  0  0  0  0  0  0  0  0
   16.5054   -7.5307   49.5024 O   0  0  0  0  0  0  0  0  0  0  0  0
  1  2  1  0  0  0  0
  1 12  1  1  0  0  0
  1 13  1  0  0  0  0
  2  3  1  0  0  0  0
  2 10  1  6  0  0  0
  4  3  1  1  0  0  0
  4  5  1  0  0  0  0
  4 14  1  0  0  0  0
  5  6  1  0  0  0  0
  5 13  1  6  0  0  0
  6  7  1  0  0  0  0
  6 15  1  1  0  0  0
  7  8  1  0  0  0  0
  7 11  1  1  0  0  0
  8 14  1  0  0  0  0
  8 16  1  1  0  0  0
  9 11  1  0  0  0  0
 17 16  1  6  0  0  0
 17 18  1  0  0  0  0
 17 24  1  0  0  0  0
 18 19  1  0  0  0  0
 18 25  1  6  0  0  0
 19 20  1  0  0  0  0
 19 26  1  1  0  0  0
 20 21  1  0  0  0  0
 20 23  1  6  0  0  0
 21 22  1  6  0  0  0
 21 24  1  0  0  0  0
 22 27  1  0  0  0  0
 28 12  1  1  0  0  0
 28 29  1  0  0  0  0
 28 33  1  0  0  0  0
 29 30  1  0  0  0  0
 29 36  1  1  0  0  0
 30 31  1  0  0  0  0
 30 37  1  1  0  0  0
 31 32  1  0  0  0  0
 31 34  1  6  0  0  0
 32 33  1  0  0  0  0
 33 35  1  6  0  0  0
M  END
>  <CHROM.1>
-85.39074016,-66.60009785,-178.18920327,171.64198757,-64.26826950,147.86354745
19.86499102,-1.42376356,52.64380173,-2.73875082,1.16356607,2.01596326

>  <Name>
2oe5_lig

>  <RI>
0

>  <Rbt.Current_Directory>
/home/itssahil/PROJECTS/Mol_Feturizer/New_Systems/rnas/2oe5

>  <Rbt.Executable>
rbdock ($Id: //depot/dev/client3/rdock/2013.1/src/exe/rbdock.cxx#4 $)

>  <Rbt.Library>
libRbt.so (2013.1, Build901 2013/11/27)

>  <Rbt.Parameter_File>
/export/apps/rDock/src/rDock_2013.1_src/data/scripts/dock_solv.prm

>  <Rbt.Receptor>
prm/pocket_docking_7.prm

>  <SCORE>
-22.3657

>  <SCORE.INTER>
-20.5505

>  <SCORE.INTER.CONST>
1

>  <SCORE.INTER.POLAR>
-1.92458

>  <SCORE.INTER.ROT>
6

>  <SCORE.INTER.SOLV>
15.5982

>  <SCORE.INTER.VDW>
-20.0845

>  <SCORE.INTER.norm>
-0.555418

>  <SCORE.INTRA>
-1.81523

>  <SCORE.INTRA.DIHEDRAL>
-8.94648

>  <SCORE.INTRA.DIHEDRAL.0>
16.2083

>  <SCORE.INTRA.POLAR>
0

>  <SCORE.INTRA.POLAR.0>
0

>  <SCORE.INTRA.REPUL>
0

>  <SCORE.INTRA.REPUL.0>
0

>  <SCORE.INTRA.SOLV>
1.35942

>  <SCORE.INTRA.SOLV.lig_0>
-89.8095

>  <SCORE.INTRA.VDW>
1.9783

>  <SCORE.INTRA.VDW.0>
-3.19502

>  <SCORE.INTRA.norm>
-0.0490604

>  <SCORE.RESTR>
0

>  <SCORE.RESTR.CAVITY>
0

>  <SCORE.RESTR.norm>
0

>  <SCORE.SYSTEM>
0

>  <SCORE.SYSTEM.CONST>
0

>  <SCORE.SYSTEM.DIHEDRAL>
0

>  <SCORE.SYSTEM.SOLV>
0

>  <SCORE.SYSTEM.norm>
0

>  <SCORE.heavy>
37

>  <SCORE.norm>
-0.604479

>  <RMSD>
9.789

$$$$
2oe5_lig
 OpenBabel11021811463D
libRbt.so/2013.1/901 2013/11/27
 37 40  0  0  0  0  0  0  0  0999 V2000
   22.4453   -2.5892   49.1424 C   0  0  1  0  0  0  0  0  0  0  0  0
   23.3919   -3.1163   50.2440 C   0  0  1  0  0  0  0  0  0  0  0  0
   22.7068   -2.9329   51.6490 C   0  0  0  0  0  0  0  0  0  0  0  0
   22.4439   -1.4160   51.7798 C   0  0  1  0  0  0  0  0  0  0  0  0
   21.4709   -0.8894   50.6343 C   0  0  1  0  0  0  0  0  0  0  0  0
   21.1876    0.6331   50.7518 C   0  0  1  0  0  0  0  0  0  0  0  0
   20.5420    0.8652   52.1476 C   0  0  1  0  0  0  0  0  0  0  0  0
   21.5149    0.2908   53.2461 C   0  0  2  0  0  0  0  0  0  0  0  0
   19.2128    2.7892   53.3282 C   0  0  0  0  0  0  0  0  0  0  0  0
   23.6798   -4.5516   50.0195 N   0  0  0  0  0  0  0  0  0  0  0  0
   20.2787    2.3372   52.3673 N   0  0  0  0  0  0  0  0  0  0  0  0
   21.2190   -3.3361   49.0849 O   0  0  0  0  0  0  0  0  0  0  0  0
   22.0950   -1.1747   49.3407 O   0  0  0  0  0  0  0  0  0  0  0  0
   21.8098   -1.1429   53.0581 O   0  0  0  0  0  0  0  0  0  0  0  0
   22.4337    1.3248   50.6217 O   0  0  0  0  0  0  0  0  0  0  0  0
   20.9319    0.4272   54.5271 O   0  0  0  0  0  0  0  0  0  0  0  0
   21.8849    0.1336   55.5313 C   0  0  2  0  0  0  0  0  0  0  0  0
   21.2341   -0.1451   56.8857 C   0  0  1  0  0  0  0  0  0  0  0  0
   20.5007    1.1135   57.4253 C   0  0  2  0  0  0  0  0  0  0  0  0
   21.5457    2.2655   57.5085 C   0  0  1  0  0  0  0  0  0  0  0  0
   22.1197    2.5075   56.0739 C   0  0  1  0  0  0  0  0  0  0  0  0
   23.1887    3.5770   56.0436 C   0  0  0  0  0  0  0  0  0  0  0  0
   20.8423    3.4949   58.0357 N   0  0  0  0  0  0  0  0  0  0  0  0
   22.7917    1.2748   55.6458 O   0  0  0  0  0  0  0  0  0  0  0  0
   20.3121   -1.2385   56.7066 O   0  0  0  0  0  0  0  0  0  0  0  0
   20.0093    0.8122   58.7439 O   0  0  0  0  0  0  0  0  0  0  0  0
   23.6410    3.8234   54.7562 O   0  0  0  0  0  0  0  0  0  0  0  0
   20.2714   -2.8325   48.1430 C   0  0  1  0  0  0  0  0  0  0  0  0
   20.7584   -3.1371   46.6812 C   0  0  1  0  0  0  0  0  0  0  0  0
   19.6944   -2.5861   45.6649 C   0  0  2  0  0  0  0  0  0  0  0  0
   18.3482   -3.2841   45.9106 C   0  0  1  0  0  0  0  0  0  0  0  0
   17.8535   -2.9655   47.3742 C   0  0  0  0  0  0  0  0  0  0  0  0
   18.9289   -3.5046   48.3976 C   0  0  2  0  0  0  0  0  0  0  0  0
   17.3783   -2.7797   44.9525 N   0  0  0  0  0  0  0  0  0  0  0  0
   18.5097   -3.2036   49.7917 N   0  0  0  0  0  0  0  0  0  0  0  0
   22.0352   -2.4776   46.4439 O   0  0  0  0  0  0  0  0  0  0  0  0
   20.1166   -2.8725   44.3580 O   0  0  0  0  0  0  0  0  0  0  0  0
  1  2  1  0  0  0  0
  1 12  1  1  0  0  0
  1 13  1  0  0  0  0
  2  3  1  0  0  0  0
  2 10  1  6  0  0  0
  4  3  1  6  0  0  0
  4  5  1  0  0  0  0
  4 14  1  0  0  0  0
  5  6  1  0  0  0  0
  5 13  1  6  0  0  0
  6  7  1  0  0  0  0
  6 15  1  1  0  0  0
  7  8  1  0  0  0  0
  7 11  1  1  0  0  0
  8 14  1  0  0  0  0
  8 16  1  1  0  0  0
  9 11  1  0  0  0  0
 17 16  1  6  0  0  0
 17 18  1  0  0  0  0
 17 24  1  0  0  0  0
 18 19  1  0  0  0  0
 18 25  1  6  0  0  0
 19 20  1  0  0  0  0
 19 26  1  1  0  0  0
 20 21  1  0  0  0  0
 20 23  1  6  0  0  0
 21 22  1  1  0  0  0
 21 24  1  0  0  0  0
 22 27  1  0  0  0  0
 28 12  1  1  0  0  0
 28 29  1  0  0  0  0
 28 33  1  0  0  0  0
 29 30  1  0  0  0  0
 29 36  1  6  0  0  0
 30 31  1  0  0  0  0
 30 37  1  6  0  0  0
 31 32  1  0  0  0  0
 31 34  1  6  0  0  0
 32 33  1  0  0  0  0
 33 35  1  1  0  0  0
M  END
>  <CHROM.1>
176.01221488,155.59894889,-169.78859121,-162.88350752,-177.13326386,71.96463064
21.08061082,-0.63694927,51.72887939,-1.72016748,-0.49282502,1.03613816

>  <Name>
2oe5_lig

>  <RI>
0

>  <Rbt.Current_Directory>
/home/itssahil/PROJECTS/Mol_Feturizer/New_Systems/rnas/2oe5

>  <Rbt.Executable>
rbdock ($Id: //depot/dev/client3/rdock/2013.1/src/exe/rbdock.cxx#4 $)

>  <Rbt.Library>
libRbt.so (2013.1, Build901 2013/11/27)

>  <Rbt.Parameter_File>
/export/apps/rDock/src/rDock_2013.1_src/data/scripts/dock_solv.prm

>  <Rbt.Receptor>
prm/pocket_docking_8.prm

>  <SCORE>
-23.7864

>  <SCORE.INTER>
-16.5063

>  <SCORE.INTER.CONST>
1

>  <SCORE.INTER.POLAR>
-2.00566

>  <SCORE.INTER.ROT>
6

>  <SCORE.INTER.SOLV>
14.8204

>  <SCORE.INTER.VDW>
-16.8588

>  <SCORE.INTER.norm>
-0.446117

>  <SCORE.INTRA>
-7.28004

>  <SCORE.INTRA.DIHEDRAL>
-13.0491

>  <SCORE.INTRA.DIHEDRAL.0>
16.2083

>  <SCORE.INTRA.POLAR>
0

>  <SCORE.INTRA.POLAR.0>
0

>  <SCORE.INTRA.REPUL>
0

>  <SCORE.INTRA.REPUL.0>
0

>  <SCORE.INTRA.SOLV>
-2.91048

>  <SCORE.INTRA.SOLV.lig_0>
-89.8095

>  <SCORE.INTRA.VDW>
0.699748

>  <SCORE.INTRA.VDW.0>
-3.19502

>  <SCORE.INTRA.norm>
-0.196758

>  <SCORE.RESTR>
0

>  <SCORE.RESTR.CAVITY>
0

>  <SCORE.RESTR.norm>
0

>  <SCORE.SYSTEM>
0

>  <SCORE.SYSTEM.CONST>
0

>  <SCORE.SYSTEM.DIHEDRAL>
0

>  <SCORE.SYSTEM.SOLV>
0

>  <SCORE.SYSTEM.norm>
0

>  <SCORE.heavy>
37

>  <SCORE.norm>
-0.642875

>  <RMSD>
9.789

$$$$
2oe5_lig
 OpenBabel11021811463D
libRbt.so/2013.1/901 2013/11/27
 37 40  0  0  0  0  0  0  0  0999 V2000
   19.7595   -2.4773   49.8431 C   0  0  1  0  0  0  0  0  0  0  0  0
   20.9325   -3.1083   50.6262 C   0  0  1  0  0  0  0  0  0  0  0  0
   20.6521   -2.9854   52.1700 C   0  0  0  0  0  0  0  0  0  0  0  0
   20.5157   -1.4702   52.4405 C   0  0  1  0  0  0  0  0  0  0  0  0
   19.3057   -0.8360   51.6220 C   0  0  1  0  0  0  0  0  0  0  0  0
   19.1463    0.6863   51.8854 C   0  0  1  0  0  0  0  0  0  0  0  0
   18.9042    0.8568   53.4122 C   0  0  1  0  0  0  0  0  0  0  0  0
   20.0991    0.1778   54.1831 C   0  0  2  0  0  0  0  0  0  0  0  0
   19.9585    3.2491   53.5807 C   0  0  0  0  0  0  0  0  0  0  0  0
   21.0728   -4.5372   50.2629 N   0  0  0  0  0  0  0  0  0  0  0  0
   18.7883    2.3217   53.7661 N   0  0  0  0  0  0  0  0  0  0  0  0
   18.5225   -3.1704   50.0768 O   0  0  0  0  0  0  0  0  0  0  0  0
   19.5510   -1.0651   50.1967 O   0  0  0  0  0  0  0  0  0  0  0  0
   20.2560   -1.2520   53.8532 O   0  0  0  0  0  0  0  0  0  0  0  0
   20.3500    1.3351   51.4630 O   0  0  0  0  0  0  0  0  0  0  0  0
   19.8819    0.2575   55.5780 O   0  0  0  0  0  0  0  0  0  0  0  0
   21.0153   -0.2219   56.2770 C   0  0  2  0  0  0  0  0  0  0  0  0
   20.8701   -0.0717   57.7909 C   0  0  1  0  0  0  0  0  0  0  0  0
   20.7856    1.4243   58.2008 C   0  0  2  0  0  0  0  0  0  0  0  0
   22.0673    2.1299   57.6669 C   0  0  1  0  0  0  0  0  0  0  0  0
   22.1042    1.9626   56.1123 C   0  0  1  0  0  0  0  0  0  0  0  0
   23.3411    2.5685   55.4873 C   0  0  0  0  0  0  0  0  0  0  0  0
   21.9962    3.5866   58.0633 N   0  0  0  0  0  0  0  0  0  0  0  0
   22.1839    0.5270   55.8174 O   0  0  0  0  0  0  0  0  0  0  0  0
   19.6775   -0.7793   58.1842 O   0  0  0  0  0  0  0  0  0  0  0  0
   20.7610    1.4922   59.6381 O   0  0  0  0  0  0  0  0  0  0  0  0
   23.3442    2.4357   54.1070 O   0  0  0  0  0  0  0  0  0  0  0  0
   18.1787   -4.1119   49.0599 C   0  0  1  0  0  0  0  0  0  0  0  0
   18.6914   -3.6023   47.6655 C   0  0  1  0  0  0  0  0  0  0  0  0
   18.3135   -4.6597   46.5666 C   0  0  2  0  0  0  0  0  0  0  0  0
   18.9858   -6.0002   46.8992 C   0  0  1  0  0  0  0  0  0  0  0  0
   18.4592   -6.5177   48.2931 C   0  0  0  0  0  0  0  0  0  0  0  0
   18.8242   -5.4491   49.3974 C   0  0  2  0  0  0  0  0  0  0  0  0
   18.6439   -6.9638   45.8659 N   0  0  0  0  0  0  0  0  0  0  0  0
   18.3243   -5.8901   50.7261 N   0  0  0  0  0  0  0  0  0  0  0  0
   18.0568   -2.3307   47.3463 O   0  0  0  0  0  0  0  0  0  0  0  0
   18.7859   -4.2171   45.3220 O   0  0  0  0  0  0  0  0  0  0  0  0
  1  2  1  0  0  0  0
  1 12  1  1  0  0  0
  1 13  1  0  0  0  0
  2  3  1  0  0  0  0
  2 10  1  6  0  0  0
  4  3  1  1  0  0  0
  4  5  1  0  0  0  0
  4 14  1  0  0  0  0
  5  6  1  0  0  0  0
  5 13  1  6  0  0  0
  6  7  1  0  0  0  0
  6 15  1  1  0  0  0
  7  8  1  0  0  0  0
  7 11  1  6  0  0  0
  8 14  1  0  0  0  0
  8 16  1  1  0  0  0
  9 11  1  0  0  0  0
 17 16  1  6  0  0  0
 17 18  1  0  0  0  0
 17 24  1  0  0  0  0
 18 19  1  0  0  0  0
 18 25  1  6  0  0  0
 19 20  1  0  0  0  0
 19 26  1  1  0  0  0
 20 21  1  0  0  0  0
 20 23  1  6  0  0  0
 21 22  1  1  0  0  0
 21 24  1  0  0  0  0
 22 27  1  0  0  0  0
 28 12  1  1  0  0  0
 28 29  1  0  0  0  0
 28 33  1  0  0  0  0
 29 30  1  0  0  0  0
 29 36  1  6  0  0  0
 30 31  1  0  0  0  0
 30 37  1  6  0  0  0
 31 32  1  0  0  0  0
 31 34  1  6  0  0  0
 32 33  1  0  0  0  0
 33 35  1  1  0  0  0
M  END
>  <CHROM.1>
-98.24061557,-64.17682358,-173.80382759,176.20175768,-178.75667363,-32.83961734
20.03759364,-1.22032676,52.44141055,-2.87983454,1.34198706,2.25651766

>  <Name>
2oe5_lig

>  <RI>
0

>  <Rbt.Current_Directory>
/home/itssahil/PROJECTS/Mol_Feturizer/New_Systems/rnas/2oe5

>  <Rbt.Executable>
rbdock ($Id: //depot/dev/client3/rdock/2013.1/src/exe/rbdock.cxx#4 $)

>  <Rbt.Library>
libRbt.so (2013.1, Build901 2013/11/27)

>  <Rbt.Parameter_File>
/export/apps/rDock/src/rDock_2013.1_src/data/scripts/dock_solv.prm

>  <Rbt.Receptor>
prm/pocket_docking_4.prm

>  <SCORE>
-13.9977

>  <SCORE.INTER>
-16.4159

>  <SCORE.INTER.CONST>
1

>  <SCORE.INTER.POLAR>
-1.91852

>  <SCORE.INTER.ROT>
6

>  <SCORE.INTER.SOLV>
12.9541

>  <SCORE.INTER.VDW>
-16.4669

>  <SCORE.INTER.norm>
-0.443674

>  <SCORE.INTRA>
2.40093

>  <SCORE.INTRA.DIHEDRAL>
-7.72881

>  <SCORE.INTRA.DIHEDRAL.0>
16.2083

>  <SCORE.INTRA.POLAR>
0

>  <SCORE.INTRA.POLAR.0>
0

>  <SCORE.INTRA.REPUL>
0.0100776

>  <SCORE.INTRA.REPUL.0>
0

>  <SCORE.INTRA.SOLV>
2.63351

>  <SCORE.INTRA.SOLV.lig_0>
-89.8095

>  <SCORE.INTRA.VDW>
4.89819

>  <SCORE.INTRA.VDW.0>
-3.19502

>  <SCORE.INTRA.norm>
0.0648899

>  <SCORE.RESTR>
0.0172701

>  <SCORE.RESTR.CAVITY>
0.0172701

>  <SCORE.RESTR.norm>
0.000466759

>  <SCORE.SYSTEM>
0

>  <SCORE.SYSTEM.CONST>
0

>  <SCORE.SYSTEM.DIHEDRAL>
0

>  <SCORE.SYSTEM.SOLV>
0

>  <SCORE.SYSTEM.norm>
0

>  <SCORE.heavy>
37

>  <SCORE.norm>
-0.378317

>  <RMSD>
9.792

$$$$
2oe5_lig
 OpenBabel11021811463D
libRbt.so/2013.1/901 2013/11/27
 37 40  0  0  0  0  0  0  0  0999 V2000
   22.9673   -1.8284   49.3600 C   0  0  1  0  0  0  0  0  0  0  0  0
   24.1361   -1.7738   50.3692 C   0  0  1  0  0  0  0  0  0  0  0  0
   23.5788   -2.0075   51.8225 C   0  0  0  0  0  0  0  0  0  0  0  0
   22.5530   -0.8752   52.0530 C   0  0  1  0  0  0  0  0  0  0  0  0
   21.3588   -0.9440   51.0016 C   0  0  1  0  0  0  0  0  0  0  0  0
   20.3118    0.1820   51.2205 C   0  0  1  0  0  0  0  0  0  0  0  0
   19.7607    0.0108   52.6647 C   0  0  1  0  0  0  0  0  0  0  0  0
   20.9766    0.0398   53.6667 C   0  0  2  0  0  0  0  0  0  0  0  0
   19.2165    2.5330   53.1173 C   0  0  0  0  0  0  0  0  0  0  0  0
   25.1312   -2.8227   50.0482 N   0  0  0  0  0  0  0  0  0  0  0  0
   18.7661    1.1039   52.9814 N   0  0  0  0  0  0  0  0  0  0  0  0
   22.3356   -3.1189   49.3385 O   0  0  0  0  0  0  0  0  0  0  0  0
   21.9290   -0.8304   49.6576 O   0  0  0  0  0  0  0  0  0  0  0  0
   21.9798   -1.0043   53.3817 O   0  0  0  0  0  0  0  0  0  0  0  0
   20.9744    1.4391   51.0508 O   0  0  0  0  0  0  0  0  0  0  0  0
   20.5200   -0.1766   54.9873 O   0  0  0  0  0  0  0  0  0  0  0  0
   21.5098    0.2207   55.9176 C   0  0  2  0  0  0  0  0  0  0  0  0
   21.3622   -0.4912   57.2618 C   0  0  1  0  0  0  0  0  0  0  0  0
   20.0255   -0.1097   57.9550 C   0  0  2  0  0  0  0  0  0  0  0  0
   20.0044    1.4397   58.1124 C   0  0  1  0  0  0  0  0  0  0  0  0
   20.1133    2.0760   56.6878 C   0  0  1  0  0  0  0  0  0  0  0  0
   20.1548    3.5874   56.7231 C   0  0  0  0  0  0  0  0  0  0  0  0
   18.7080    1.8213   58.7891 N   0  0  0  0  0  0  0  0  0  0  0  0
   21.3990    1.6658   56.1106 O   0  0  0  0  0  0  0  0  0  0  0  0
   21.4229   -1.9092   57.0101 O   0  0  0  0  0  0  0  0  0  0  0  0
   20.0053   -0.7267   59.2550 O   0  0  0  0  0  0  0  0  0  0  0  0
   20.3074    4.1328   55.4574 O   0  0  0  0  0  0  0  0  0  0  0  0
   21.2989   -3.2462   48.3650 C   0  0  1  0  0  0  0  0  0  0  0  0
   21.9145   -3.1996   46.9207 C   0  0  1  0  0  0  0  0  0  0  0  0
   20.7577   -3.3547   45.8689 C   0  0  2  0  0  0  0  0  0  0  0  0
   20.0556   -4.7043   46.0815 C   0  0  1  0  0  0  0  0  0  0  0  0
   19.4256   -4.7441   47.5271 C   0  0  0  0  0  0  0  0  0  0  0  0
   20.5846   -4.5727   48.5862 C   0  0  2  0  0  0  0  0  0  0  0  0
   19.0007   -4.8437   45.0911 N   0  0  0  0  0  0  0  0  0  0  0  0
   20.0284   -4.5826   49.9648 N   0  0  0  0  0  0  0  0  0  0  0  0
   22.5821   -1.9215   46.7149 O   0  0  0  0  0  0  0  0  0  0  0  0
   21.3055   -3.3321   44.5775 O   0  0  0  0  0  0  0  0  0  0  0  0
  1  2  1  0  0  0  0
  1 12  1  1  0  0  0
  1 13  1  0  0  0  0
  2  3  1  0  0  0  0
  2 10  1  6  0  0  0
  4  3  1  6  0  0  0
  4  5  1  0  0  0  0
  4 14  1  0  0  0  0
  5  6  1  0  0  0  0
  5 13  1  6  0  0  0
  6  7  1  0  0  0  0
  6 15  1  1  0  0  0
  7  8  1  0  0  0  0
  7 11  1  1  0  0  0
  8 14  1  0  0  0  0
  8 16  1  1  0  0  0
  9 11  1  0  0  0  0
 17 16  1  6  0  0  0
 17 18  1  0  0  0  0
 17 24  1  0  0  0  0
 18 19  1  0  0  0  0
 18 25  1  6  0  0  0
 19 20  1  0  0  0  0
 19 26  1  1  0  0  0
 20 21  1  0  0  0  0
 20 23  1  6  0  0  0
 21 22  1  1  0  0  0
 21 24  1  0  0  0  0
 22 27  1  0  0  0  0
 28 12  1  1  0  0  0
 28 29  1  0  0  0  0
 28 33  1  0  0  0  0
 29 30  1  0  0  0  0
 29 36  1  6  0  0  0
 30 31  1  0  0  0  0
 30 37  1  6  0  0  0
 31 32  1  0  0  0  0
 31 34  1  6  0  0  0
 32 33  1  0  0  0  0
 33 35  1  1  0  0  0
M  END
>  <CHROM.1>
-176.49834799,-67.87635749,-163.29142017,-155.95831391,177.49177352,67.79179555
21.04478288,-0.96194313,52.07220867,-1.33700919,-1.17857591,1.34061108

>  <Name>
2oe5_lig

>  <RI>
0

>  <Rbt.Current_Directory>
/home/itssahil/PROJECTS/Mol_Feturizer/New_Systems/rnas/2oe5

>  <Rbt.Executable>
rbdock ($Id: //depot/dev/client3/rdock/2013.1/src/exe/rbdock.cxx#4 $)

>  <Rbt.Library>
libRbt.so (2013.1, Build901 2013/11/27)

>  <Rbt.Parameter_File>
/export/apps/rDock/src/rDock_2013.1_src/data/scripts/dock_solv.prm

>  <Rbt.Receptor>
prm/pocket_docking_4.prm

>  <SCORE>
-14.6874

>  <SCORE.INTER>
-9.45369

>  <SCORE.INTER.CONST>
1

>  <SCORE.INTER.POLAR>
0

>  <SCORE.INTER.ROT>
6

>  <SCORE.INTER.SOLV>
12.0384

>  <SCORE.INTER.VDW>
-17.9153

>  <SCORE.INTER.norm>
-0.255505

>  <SCORE.INTRA>
-5.23368

>  <SCORE.INTRA.DIHEDRAL>
-11.9078

>  <SCORE.INTRA.DIHEDRAL.0>
16.2083

>  <SCORE.INTRA.POLAR>
0

>  <SCORE.INTRA.POLAR.0>
0

>  <SCORE.INTRA.REPUL>
0

>  <SCORE.INTRA.REPUL.0>
0

>  <SCORE.INTRA.SOLV>
-2.40661

>  <SCORE.INTRA.SOLV.lig_0>
-89.8095

>  <SCORE.INTRA.VDW>
1.92351

>  <SCORE.INTRA.VDW.0>
-3.19502

>  <SCORE.INTRA.norm>
-0.141451

>  <SCORE.RESTR>
0

>  <SCORE.RESTR.CAVITY>
0

>  <SCORE.RESTR.norm>
0

>  <SCORE.SYSTEM>
0

>  <SCORE.SYSTEM.CONST>
0

>  <SCORE.SYSTEM.DIHEDRAL>
0

>  <SCORE.SYSTEM.SOLV>
0

>  <SCORE.SYSTEM.norm>
0

>  <SCORE.heavy>
37

>  <SCORE.norm>
-0.396956

>  <RMSD>
9.794

$$$$
2oe5_lig
 OpenBabel11021811463D
libRbt.so/2013.1/901 2013/11/27
 37 40  0  0  0  0  0  0  0  0999 V2000
   17.8269   -5.0357   47.5389 C   0  0  1  0  0  0  0  0  0  0  0  0
   17.5960   -3.6469   46.9023 C   0  0  1  0  0  0  0  0  0  0  0  0
   18.8667   -2.7490   47.1395 C   0  0  0  0  0  0  0  0  0  0  0  0
   19.0296   -2.6698   48.6740 C   0  0  1  0  0  0  0  0  0  0  0  0
   19.2617   -4.1098   49.3133 C   0  0  1  0  0  0  0  0  0  0  0  0
   19.4353   -4.0518   50.8556 C   0  0  1  0  0  0  0  0  0  0  0  0
   20.6630   -3.1397   51.1372 C   0  0  1  0  0  0  0  0  0  0  0  0
   20.4120   -1.7435   50.4509 C   0  0  2  0  0  0  0  0  0  0  0  0
   22.2354   -2.6585   53.1765 C   0  0  0  0  0  0  0  0  0  0  0  0
   17.3583   -3.7903   45.4476 N   0  0  0  0  0  0  0  0  0  0  0  0
   20.8740   -2.9862   52.6260 N   0  0  0  0  0  0  0  0  0  0  0  0
   18.9236   -5.7327   46.9253 O   0  0  0  0  0  0  0  0  0  0  0  0
   18.1075   -4.9470   48.9798 O   0  0  0  0  0  0  0  0  0  0  0  0
   20.1860   -1.8517   48.9966 O   0  0  0  0  0  0  0  0  0  0  0  0
   18.2335   -3.5118   51.4145 O   0  0  0  0  0  0  0  0  0  0  0  0
   21.5371   -0.9066   50.6322 O   0  0  0  0  0  0  0  0  0  0  0  0
   21.1564    0.4527   50.5294 C   0  0  2  0  0  0  0  0  0  0  0  0
   22.3390    1.4025   50.7157 C   0  0  1  0  0  0  0  0  0  0  0  0
   22.9296    1.2889   52.1480 C   0  0  2  0  0  0  0  0  0  0  0  0
   21.7794    1.5881   53.1546 C   0  0  1  0  0  0  0  0  0  0  0  0
   20.6410    0.5417   52.9193 C   0  0  1  0  0  0  0  0  0  0  0  0
   19.4422    0.7696   53.8127 C   0  0  0  0  0  0  0  0  0  0  0  0
   22.3448    1.4829   54.5523 N   0  0  0  0  0  0  0  0  0  0  0  0
   20.1440    0.7202   51.5498 O   0  0  0  0  0  0  0  0  0  0  0  0
   23.3286    1.0622   49.7245 O   0  0  0  0  0  0  0  0  0  0  0  0
   23.9611    2.2830   52.2852 O   0  0  0  0  0  0  0  0  0  0  0  0
   18.5066   -0.2471   53.6965 O   0  0  0  0  0  0  0  0  0  0  0  0
   19.1367   -7.0500   47.4332 C   0  0  1  0  0  0  0  0  0  0  0  0
   17.9027   -7.9596   47.0915 C   0  0  1  0  0  0  0  0  0  0  0  0
   18.1661   -9.4051   47.6479 C   0  0  2  0  0  0  0  0  0  0  0  0
   19.4257   -9.9829   46.9850 C   0  0  1  0  0  0  0  0  0  0  0  0
   20.6665   -9.0763   47.3408 C   0  0  0  0  0  0  0  0  0  0  0  0
   20.3975   -7.6184   46.7961 C   0  0  2  0  0  0  0  0  0  0  0  0
   19.6475  -11.3264   47.4938 N   0  0  0  0  0  0  0  0  0  0  0  0
   21.5372   -6.7248   47.1314 N   0  0  0  0  0  0  0  0  0  0  0  0
   16.7057   -7.4151   47.7176 O   0  0  0  0  0  0  0  0  0  0  0  0
   17.0741  -10.2260   47.3286 O   0  0  0  0  0  0  0  0  0  0  0  0
  1  2  1  0  0  0  0
  1 12  1  6  0  0  0
  1 13  1  0  0  0  0
  2  3  1  0  0  0  0
  2 10  1  6  0  0  0
  4  3  1  6  0  0  0
  4  5  1  0  0  0  0
  4 14  1  0  0  0  0
  5  6  1  0  0  0  0
  5 13  1  1  0  0  0
  6  7  1  0  0  0  0
  6 15  1  1  0  0  0
  7  8  1  0  0  0  0
  7 11  1  1  0  0  0
  8 14  1  0  0  0  0
  8 16  1  6  0  0  0
  9 11  1  0  0  0  0
 17 16  1  1  0  0  0
 17 18  1  0  0  0  0
 17 24  1  0  0  0  0
 18 19  1  0  0  0  0
 18 25  1  6  0  0  0
 19 20  1  0  0  0  0
 19 26  1  6  0  0  0
 20 21  1  0  0  0  0
 20 23  1  1  0  0  0
 21 22  1  1  0  0  0
 21 24  1  0  0  0  0
 22 27  1  0  0  0  0
 28 12  1  6  0  0  0
 28 29  1  0  0  0  0
 28 33  1  0  0  0  0
 29 30  1  0  0  0  0
 29 36  1  1  0  0  0
 30 31  1  0  0  0  0
 30 37  1  6  0  0  0
 31 32  1  0  0  0  0
 31 34  1  1  0  0  0
 32 33  1  0  0  0  0
 33 35  1  1  0  0  0
M  END
>  <CHROM.1>
-177.03952444,154.95693850,-156.26152283,-179.90518604,-173.43657725,64.82945448
19.93609260,-3.45179343,49.70817013,2.21235724,1.08283066,3.07845104

>  <Name>
2oe5_lig

>  <RI>
0

>  <Rbt.Current_Directory>
/home/itssahil/PROJECTS/Mol_Feturizer/New_Systems/rnas/2oe5

>  <Rbt.Executable>
rbdock ($Id: //depot/dev/client3/rdock/2013.1/src/exe/rbdock.cxx#4 $)

>  <Rbt.Library>
libRbt.so (2013.1, Build901 2013/11/27)

>  <Rbt.Parameter_File>
/export/apps/rDock/src/rDock_2013.1_src/data/scripts/dock_solv.prm

>  <Rbt.Receptor>
prm/pocket_docking_6.prm

>  <SCORE>
-27.0467

>  <SCORE.INTER>
-20.4007

>  <SCORE.INTER.CONST>
1

>  <SCORE.INTER.POLAR>
-1.71067

>  <SCORE.INTER.ROT>
6

>  <SCORE.INTER.SOLV>
15.3737

>  <SCORE.INTER.VDW>
-20.6228

>  <SCORE.INTER.norm>
-0.551369

>  <SCORE.INTRA>
-6.64599

>  <SCORE.INTRA.DIHEDRAL>
-12.939

>  <SCORE.INTRA.DIHEDRAL.0>
16.2083

>  <SCORE.INTRA.POLAR>
0

>  <SCORE.INTRA.POLAR.0>
0

>  <SCORE.INTRA.REPUL>
0

>  <SCORE.INTRA.REPUL.0>
0

>  <SCORE.INTRA.SOLV>
-1.96379

>  <SCORE.INTRA.SOLV.lig_0>
-89.8095

>  <SCORE.INTRA.VDW>
0.80539

>  <SCORE.INTRA.VDW.0>
-3.19502

>  <SCORE.INTRA.norm>
-0.179621

>  <SCORE.RESTR>
0

>  <SCORE.RESTR.CAVITY>
0

>  <SCORE.RESTR.norm>
0

>  <SCORE.SYSTEM>
0

>  <SCORE.SYSTEM.CONST>
0

>  <SCORE.SYSTEM.DIHEDRAL>
0

>  <SCORE.SYSTEM.SOLV>
0

>  <SCORE.SYSTEM.norm>
0

>  <SCORE.heavy>
37

>  <SCORE.norm>
-0.730991

>  <RMSD>
9.796

$$$$
2oe5_lig
 OpenBabel11021811463D
libRbt.so/2013.1/901 2013/11/27
 37 40  0  0  0  0  0  0  0  0999 V2000
   22.2642   -2.8492   49.0481 C   0  0  1  0  0  0  0  0  0  0  0  0
   23.2453   -3.3726   50.1209 C   0  0  1  0  0  0  0  0  0  0  0  0
   22.5999   -3.1958   51.5455 C   0  0  0  0  0  0  0  0  0  0  0  0
   22.3319   -1.6806   51.6867 C   0  0  1  0  0  0  0  0  0  0  0  0
   21.3232   -1.1579   50.5707 C   0  0  1  0  0  0  0  0  0  0  0  0
   21.0343    0.3627   50.6993 C   0  0  1  0  0  0  0  0  0  0  0  0
   20.4279    0.5884   52.1135 C   0  0  1  0  0  0  0  0  0  0  0  0
   21.4354    0.0180   53.1825 C   0  0  2  0  0  0  0  0  0  0  0  0
   19.2454    2.5070   53.4490 C   0  0  0  0  0  0  0  0  0  0  0  0
   23.5351   -4.8058   49.8854 N   0  0  0  0  0  0  0  0  0  0  0  0
   20.1623    2.0585   52.3435 N   0  0  0  0  0  0  0  0  0  0  0  0
   21.0412   -3.6033   49.0245 O   0  0  0  0  0  0  0  0  0  0  0  0
   21.9114   -1.4372   49.2591 O   0  0  0  0  0  0  0  0  0  0  0  0
   21.7333   -1.4136   52.9833 O   0  0  0  0  0  0  0  0  0  0  0  0
   22.2721    1.0620   50.5346 O   0  0  0  0  0  0  0  0  0  0  0  0
   20.8887    0.1486   54.4799 O   0  0  0  0  0  0  0  0  0  0  0  0
   21.8856   -0.0885   55.4561 C   0  0  2  0  0  0  0  0  0  0  0  0
   21.3029   -0.2082   56.8638 C   0  0  1  0  0  0  0  0  0  0  0  0
   20.6494    1.1265   57.3160 C   0  0  2  0  0  0  0  0  0  0  0  0
   21.7400    2.2352   57.2307 C   0  0  1  0  0  0  0  0  0  0  0  0
   22.2402    2.3142   55.7509 C   0  0  1  0  0  0  0  0  0  0  0  0
   23.3453    3.3289   55.5596 C   0  0  0  0  0  0  0  0  0  0  0  0
   21.1146    3.5384   57.6717 N   0  0  0  0  0  0  0  0  0  0  0  0
   22.8398    1.0184   55.4104 O   0  0  0  0  0  0  0  0  0  0  0  0
   20.3316   -1.2731   56.8416 O   0  0  0  0  0  0  0  0  0  0  0  0
   20.2228    0.9740   58.6819 O   0  0  0  0  0  0  0  0  0  0  0  0
   22.9118    4.6224   55.8076 O   0  0  0  0  0  0  0  0  0  0  0  0
   20.0450   -3.0743   48.1491 C   0  0  1  0  0  0  0  0  0  0  0  0
   20.5455   -3.1517   46.6623 C   0  0  1  0  0  0  0  0  0  0  0  0
   19.4286   -2.5772   45.7185 C   0  0  2  0  0  0  0  0  0  0  0  0
   18.1520   -3.4176   45.8720 C   0  0  1  0  0  0  0  0  0  0  0  0
   17.6426   -3.3273   47.3621 C   0  0  0  0  0  0  0  0  0  0  0  0
   18.7698   -3.8900   48.3145 C   0  0  2  0  0  0  0  0  0  0  0  0
   17.1334   -2.8878   44.9805 N   0  0  0  0  0  0  0  0  0  0  0  0
   18.3365   -3.8018   49.7338 N   0  0  0  0  0  0  0  0  0  0  0  0
   21.7566   -2.3565   46.5122 O   0  0  0  0  0  0  0  0  0  0  0  0
   19.8642   -2.6615   44.3875 O   0  0  0  0  0  0  0  0  0  0  0  0
  1  2  1  0  0  0  0
  1 12  1  1  0  0  0
  1 13  1  0  0  0  0
  2  3  1  0  0  0  0
  2 10  1  6  0  0  0
  4  3  1  6  0  0  0
  4  5  1  0  0  0  0
  4 14  1  0  0  0  0
  5  6  1  0  0  0  0
  5 13  1  6  0  0  0
  6  7  1  0  0  0  0
  6 15  1  1  0  0  0
  7  8  1  0  0  0  0
  7 11  1  1  0  0  0
  8 14  1  0  0  0  0
  8 16  1  1  0  0  0
  9 11  1  0  0  0  0
 17 16  1  6  0  0  0
 17 18  1  0  0  0  0
 17 24  1  0  0  0  0
 18 19  1  0  0  0  0
 18 25  1  6  0  0  0
 19 20  1  0  0  0  0
 19 26  1  1  0  0  0
 20 21  1  0  0  0  0
 20 23  1  6  0  0  0
 21 22  1  1  0  0  0
 21 24  1  0  0  0  0
 22 27  1  0  0  0  0
 28 12  1  1  0  0  0
 28 29  1  0  0  0  0
 28 33  1  0  0  0  0
 29 30  1  0  0  0  0
 29 36  1  1  0  0  0
 30 31  1  0  0  0  0
 30 37  1  6  0  0  0
 31 32  1  0  0  0  0
 31 34  1  6  0  0  0
 32 33  1  0  0  0  0
 33 35  1  1  0  0  0
M  END
>  <CHROM.1>
173.74933501,163.02561100,-167.44449102,-169.73167445,-64.55682412,64.53593728
20.98060421,-0.78841723,51.68589857,-1.85512068,-0.97859600,0.85044393

>  <Name>
2oe5_lig

>  <RI>
0

>  <Rbt.Current_Directory>
/home/itssahil/PROJECTS/Mol_Feturizer/New_Systems/rnas/2oe5

>  <Rbt.Executable>
rbdock ($Id: //depot/dev/client3/rdock/2013.1/src/exe/rbdock.cxx#4 $)

>  <Rbt.Library>
libRbt.so (2013.1, Build901 2013/11/27)

>  <Rbt.Parameter_File>
/export/apps/rDock/src/rDock_2013.1_src/data/scripts/dock_solv.prm

>  <Rbt.Receptor>
prm/pocket_docking_6.prm

>  <SCORE>
-23.1774

>  <SCORE.INTER>
-16.7284

>  <SCORE.INTER.CONST>
1

>  <SCORE.INTER.POLAR>
-2.09563

>  <SCORE.INTER.ROT>
6

>  <SCORE.INTER.SOLV>
13.5715

>  <SCORE.INTER.VDW>
-16.2907

>  <SCORE.INTER.norm>
-0.452119

>  <SCORE.INTRA>
-6.44898

>  <SCORE.INTRA.DIHEDRAL>
-14.2702

>  <SCORE.INTRA.DIHEDRAL.0>
16.2083

>  <SCORE.INTRA.POLAR>
0

>  <SCORE.INTRA.POLAR.0>
0

>  <SCORE.INTRA.REPUL>
0

>  <SCORE.INTRA.REPUL.0>
0

>  <SCORE.INTRA.SOLV>
-1.987

>  <SCORE.INTRA.SOLV.lig_0>
-89.8095

>  <SCORE.INTRA.VDW>
1.67961

>  <SCORE.INTRA.VDW.0>
-3.19502

>  <SCORE.INTRA.norm>
-0.174297

>  <SCORE.RESTR>
0

>  <SCORE.RESTR.CAVITY>
0

>  <SCORE.RESTR.norm>
0

>  <SCORE.SYSTEM>
0

>  <SCORE.SYSTEM.CONST>
0

>  <SCORE.SYSTEM.DIHEDRAL>
0

>  <SCORE.SYSTEM.SOLV>
0

>  <SCORE.SYSTEM.norm>
0

>  <SCORE.heavy>
37

>  <SCORE.norm>
-0.626416

>  <RMSD>
9.796

$$$$
2oe5_lig
 OpenBabel11021811463D
libRbt.so/2013.1/901 2013/11/27
 37 40  0  0  0  0  0  0  0  0999 V2000
   22.3522   -2.6081   49.0073 C   0  0  1  0  0  0  0  0  0  0  0  0
   23.4158   -3.1641   49.9805 C   0  0  1  0  0  0  0  0  0  0  0  0
   22.8497   -3.1211   51.4484 C   0  0  0  0  0  0  0  0  0  0  0  0
   22.5295   -1.6339   51.7188 C   0  0  1  0  0  0  0  0  0  0  0  0
   21.4358   -1.0766   50.7041 C   0  0  1  0  0  0  0  0  0  0  0  0
   21.0938    0.4160   50.9634 C   0  0  1  0  0  0  0  0  0  0  0  0
   20.5639    0.5102   52.4225 C   0  0  1  0  0  0  0  0  0  0  0  0
   21.6555   -0.0912   53.3869 C   0  0  2  0  0  0  0  0  0  0  0  0
   19.0941    2.2786   53.6777 C   0  0  0  0  0  0  0  0  0  0  0  0
   23.7488   -4.5618   49.6213 N   0  0  0  0  0  0  0  0  0  0  0  0
   20.2531    1.9461   52.7777 N   0  0  0  0  0  0  0  0  0  0  0  0
   21.1615   -3.4125   48.9956 O   0  0  0  0  0  0  0  0  0  0  0  0
   21.9558   -1.2326   49.3441 O   0  0  0  0  0  0  0  0  0  0  0  0
   21.9987   -1.4896   53.0635 O   0  0  0  0  0  0  0  0  0  0  0  0
   22.2902    1.1802   50.7827 O   0  0  0  0  0  0  0  0  0  0  0  0
   21.1822   -0.0805   54.7192 O   0  0  0  0  0  0  0  0  0  0  0  0
   22.2703   -0.0874   55.6242 C   0  0  2  0  0  0  0  0  0  0  0  0
   21.8816   -0.6395   56.9952 C   0  0  1  0  0  0  0  0  0  0  0  0
   20.8278    0.2680   57.6873 C   0  0  2  0  0  0  0  0  0  0  0  0
   21.4347    1.6989   57.7876 C   0  0  1  0  0  0  0  0  0  0  0  0
   21.7557    2.1949   56.3394 C   0  0  1  0  0  0  0  0  0  0  0  0
   22.4016    3.5623   56.3184 C   0  0  0  0  0  0  0  0  0  0  0  0
   20.4175    2.5897   58.4628 N   0  0  0  0  0  0  0  0  0  0  0  0
   22.7540    1.2852   55.7648 O   0  0  0  0  0  0  0  0  0  0  0  0
   21.3616   -1.9689   56.7954 O   0  0  0  0  0  0  0  0  0  0  0  0
   20.5929   -0.2498   59.0094 O   0  0  0  0  0  0  0  0  0  0  0  0
   22.5747    4.0355   55.0266 O   0  0  0  0  0  0  0  0  0  0  0  0
   20.1377   -2.9288   48.1258 C   0  0  1  0  0  0  0  0  0  0  0  0
   20.5719   -3.1258   46.6293 C   0  0  1  0  0  0  0  0  0  0  0  0
   19.4253   -2.5992   45.6930 C   0  0  2  0  0  0  0  0  0  0  0  0
   18.1420   -3.3994   45.9621 C   0  0  1  0  0  0  0  0  0  0  0  0
   17.6993   -3.1891   47.4614 C   0  0  0  0  0  0  0  0  0  0  0  0
   18.8568   -3.7035   48.4049 C   0  0  2  0  0  0  0  0  0  0  0  0
   17.0951   -2.9157   45.0771 N   0  0  0  0  0  0  0  0  0  0  0  0
   18.4871   -3.5021   49.8306 N   0  0  0  0  0  0  0  0  0  0  0  0
   21.7891   -2.3692   46.3697 O   0  0  0  0  0  0  0  0  0  0  0  0
   19.8013   -2.7903   44.3549 O   0  0  0  0  0  0  0  0  0  0  0  0
  1  2  1  0  0  0  0
  1 12  1  1  0  0  0
  1 13  1  0  0  0  0
  2  3  1  0  0  0  0
  2 10  1  6  0  0  0
  4  3  1  6  0  0  0
  4  5  1  0  0  0  0
  4 14  1  0  0  0  0
  5  6  1  0  0  0  0
  5 13  1  6  0  0  0
  6  7  1  0  0  0  0
  6 15  1  1  0  0  0
  7  8  1  0  0  0  0
  7 11  1  1  0  0  0
  8 14  1  0  0  0  0
  8 16  1  1  0  0  0
  9 11  1  0  0  0  0
 17 16  1  6  0  0  0
 17 18  1  0  0  0  0
 17 24  1  0  0  0  0
 18 19  1  0  0  0  0
 18 25  1  6  0  0  0
 19 20  1  0  0  0  0
 19 26  1  1  0  0  0
 20 21  1  0  0  0  0
 20 23  1  6  0  0  0
 21 22  1  1  0  0  0
 21 24  1  0  0  0  0
 22 27  1  0  0  0  0
 28 12  1  1  0  0  0
 28 29  1  0  0  0  0
 28 33  1  0  0  0  0
 29 30  1  0  0  0  0
 29 36  1  1  0  0  0
 30 31  1  0  0  0  0
 30 37  1  6  0  0  0
 31 32  1  0  0  0  0
 31 34  1  6  0  0  0
 32 33  1  0  0  0  0
 33 35  1  1  0  0  0
M  END
>  <CHROM.1>
179.08996330,144.85446282,-156.32023269,-156.56952793,-174.84980643,70.23354862
21.04119893,-0.89234052,51.81935042,-1.81868119,-0.93586777,0.95140735

>  <Name>
2oe5_lig

>  <RI>
0

>  <Rbt.Current_Directory>
/home/itssahil/PROJECTS/Mol_Feturizer/New_Systems/rnas/2oe5

>  <Rbt.Executable>
rbdock ($Id: //depot/dev/client3/rdock/2013.1/src/exe/rbdock.cxx#4 $)

>  <Rbt.Library>
libRbt.so (2013.1, Build901 2013/11/27)

>  <Rbt.Parameter_File>
/export/apps/rDock/src/rDock_2013.1_src/data/scripts/dock_solv.prm

>  <Rbt.Receptor>
prm/pocket_docking_4.prm

>  <SCORE>
-20.6113

>  <SCORE.INTER>
-14.6076

>  <SCORE.INTER.CONST>
1

>  <SCORE.INTER.POLAR>
-1.63235

>  <SCORE.INTER.ROT>
6

>  <SCORE.INTER.SOLV>
14.385

>  <SCORE.INTER.VDW>
-16.6923

>  <SCORE.INTER.norm>
-0.3948

>  <SCORE.INTRA>
-6.00365

>  <SCORE.INTRA.DIHEDRAL>
-9.95885

>  <SCORE.INTRA.DIHEDRAL.0>
16.2083

>  <SCORE.INTRA.POLAR>
0

>  <SCORE.INTRA.POLAR.0>
0

>  <SCORE.INTRA.REPUL>
0

>  <SCORE.INTRA.REPUL.0>
0

>  <SCORE.INTRA.SOLV>
-2.4447

>  <SCORE.INTRA.SOLV.lig_0>
-89.8095

>  <SCORE.INTRA.VDW>
0.198124

>  <SCORE.INTRA.VDW.0>
-3.19502

>  <SCORE.INTRA.norm>
-0.162261

>  <SCORE.RESTR>
0

>  <SCORE.RESTR.CAVITY>
0

>  <SCORE.RESTR.norm>
0

>  <SCORE.SYSTEM>
0

>  <SCORE.SYSTEM.CONST>
0

>  <SCORE.SYSTEM.DIHEDRAL>
0

>  <SCORE.SYSTEM.SOLV>
0

>  <SCORE.SYSTEM.norm>
0

>  <SCORE.heavy>
37

>  <SCORE.norm>
-0.557061

>  <RMSD>
9.803

$$$$
2oe5_lig
 OpenBabel11021811463D
libRbt.so/2013.1/901 2013/11/27
 37 40  0  0  0  0  0  0  0  0999 V2000
   22.2570   -3.5787   50.4834 C   0  0  1  0  0  0  0  0  0  0  0  0
   23.6254   -3.6435   51.1979 C   0  0  1  0  0  0  0  0  0  0  0  0
   23.4081   -3.5010   52.7502 C   0  0  0  0  0  0  0  0  0  0  0  0
   22.7123   -2.1346   52.9410 C   0  0  1  0  0  0  0  0  0  0  0  0
   21.3066   -2.0841   52.1943 C   0  0  1  0  0  0  0  0  0  0  0  0
   20.5866   -0.7205   52.3796 C   0  0  1  0  0  0  0  0  0  0  0  0
   20.3851   -0.5211   53.9088 C   0  0  1  0  0  0  0  0  0  0  0  0
   21.7915   -0.6228   54.6122 C   0  0  2  0  0  0  0  0  0  0  0  0
   18.6320    1.3261   53.2944 C   0  0  0  0  0  0  0  0  0  0  0  0
   24.2861   -4.9372   50.9094 N   0  0  0  0  0  0  0  0  0  0  0  0
   19.7324    0.8142   54.1838 N   0  0  0  0  0  0  0  0  0  0  0  0
   21.3996   -4.6672   50.8642 O   0  0  0  0  0  0  0  0  0  0  0  0
   21.5395   -2.3272   50.7692 O   0  0  0  0  0  0  0  0  0  0  0  0
   22.4697   -1.9081   54.3554 O   0  0  0  0  0  0  0  0  0  0  0  0
   21.4196    0.2980   51.8167 O   0  0  0  0  0  0  0  0  0  0  0  0
   21.6405   -0.5092   56.0135 O   0  0  0  0  0  0  0  0  0  0  0  0
   22.9067   -0.3796   56.6323 C   0  0  2  0  0  0  0  0  0  0  0  0
   22.8158   -0.4314   58.1570 C   0  0  1  0  0  0  0  0  0  0  0  0
   22.0056    0.7722   58.7119 C   0  0  2  0  0  0  0  0  0  0  0  0
   22.7006    2.0744   58.2149 C   0  0  1  0  0  0  0  0  0  0  0  0
   22.7047    2.0584   56.6509 C   0  0  1  0  0  0  0  0  0  0  0  0
   23.4059    3.2586   56.0548 C   0  0  0  0  0  0  0  0  0  0  0  0
   21.9210    3.2524   58.7522 N   0  0  0  0  0  0  0  0  0  0  0  0
   23.4882    0.8958   56.2164 O   0  0  0  0  0  0  0  0  0  0  0  0
   22.1878   -1.6794   58.5115 O   0  0  0  0  0  0  0  0  0  0  0  0
   22.0545    0.7181   60.1492 O   0  0  0  0  0  0  0  0  0  0  0  0
   23.4514    3.1993   54.6702 O   0  0  0  0  0  0  0  0  0  0  0  0
   20.2305   -4.8010   50.0556 C   0  0  1  0  0  0  0  0  0  0  0  0
   20.4369   -5.9503   49.0052 C   0  0  1  0  0  0  0  0  0  0  0  0
   19.1343   -6.0871   48.1375 C   0  0  2  0  0  0  0  0  0  0  0  0
   17.9499   -6.4369   49.0511 C   0  0  1  0  0  0  0  0  0  0  0  0
   17.7348   -5.2751   50.0963 C   0  0  0  0  0  0  0  0  0  0  0  0
   19.0488   -5.1251   50.9596 C   0  0  2  0  0  0  0  0  0  0  0  0
   16.7556   -6.5790   48.2346 N   0  0  0  0  0  0  0  0  0  0  0  0
   18.8948   -4.0226   51.9449 N   0  0  0  0  0  0  0  0  0  0  0  0
   21.5597   -5.6232   48.1369 O   0  0  0  0  0  0  0  0  0  0  0  0
   19.3075   -7.1252   47.2099 O   0  0  0  0  0  0  0  0  0  0  0  0
  1  2  1  0  0  0  0
  1 12  1  1  0  0  0
  1 13  1  0  0  0  0
  2  3  1  0  0  0  0
  2 10  1  1  0  0  0
  4  3  1  1  0  0  0
  4  5  1  0  0  0  0
  4 14  1  0  0  0  0
  5  6  1  0  0  0  0
  5 13  1  6  0  0  0
  6  7  1  0  0  0  0
  6 15  1  1  0  0  0
  7  8  1  0  0  0  0
  7 11  1  6  0  0  0
  8 14  1  0  0  0  0
  8 16  1  1  0  0  0
  9 11  1  0  0  0  0
 17 16  1  6  0  0  0
 17 18  1  0  0  0  0
 17 24  1  0  0  0  0
 18 19  1  0  0  0  0
 18 25  1  6  0  0  0
 19 20  1  0  0  0  0
 19 26  1  1  0  0  0
 20 21  1  0  0  0  0
 20 23  1  6  0  0  0
 21 22  1  6  0  0  0
 21 24  1  0  0  0  0
 22 27  1  0  0  0  0
 28 12  1  1  0  0  0
 28 29  1  0  0  0  0
 28 33  1  0  0  0  0
 29 30  1  0  0  0  0
 29 36  1  6  0  0  0
 30 31  1  0  0  0  0
 30 37  1  6  0  0  0
 31 32  1  0  0  0  0
 31 34  1  6  0  0  0
 32 33  1  0  0  0  0
 33 35  1  1  0  0  0
M  END
>  <CHROM.1>
-168.80630179,39.80645126,-170.45105523,-172.73296919,177.37524205,100.71349722
21.31179788,-1.92091001,53.21097111,-1.81954458,-0.14956937,0.82970984

>  <Name>
2oe5_lig

>  <RI>
0

>  <Rbt.Current_Directory>
/home/itssahil/PROJECTS/Mol_Feturizer/New_Systems/rnas/2oe5

>  <Rbt.Executable>
rbdock ($Id: //depot/dev/client3/rdock/2013.1/src/exe/rbdock.cxx#4 $)

>  <Rbt.Library>
libRbt.so (2013.1, Build901 2013/11/27)

>  <Rbt.Parameter_File>
/export/apps/rDock/src/rDock_2013.1_src/data/scripts/dock_solv.prm

>  <Rbt.Receptor>
prm/pocket_docking_5.prm

>  <SCORE>
-16.4132

>  <SCORE.INTER>
-12.6318

>  <SCORE.INTER.CONST>
1

>  <SCORE.INTER.POLAR>
-1.0447

>  <SCORE.INTER.ROT>
6

>  <SCORE.INTER.SOLV>
12.5576

>  <SCORE.INTER.VDW>
-16.7247

>  <SCORE.INTER.norm>
-0.3414

>  <SCORE.INTRA>
-3.78139

>  <SCORE.INTRA.DIHEDRAL>
-8.97763

>  <SCORE.INTRA.DIHEDRAL.0>
16.2083

>  <SCORE.INTRA.POLAR>
0

>  <SCORE.INTRA.POLAR.0>
0

>  <SCORE.INTRA.REPUL>
0

>  <SCORE.INTRA.REPUL.0>
0

>  <SCORE.INTRA.SOLV>
-0.664961

>  <SCORE.INTRA.SOLV.lig_0>
-89.8095

>  <SCORE.INTRA.VDW>
1.03991

>  <SCORE.INTRA.VDW.0>
-3.19502

>  <SCORE.INTRA.norm>
-0.1022

>  <SCORE.RESTR>
0

>  <SCORE.RESTR.CAVITY>
0

>  <SCORE.RESTR.norm>
0

>  <SCORE.SYSTEM>
0

>  <SCORE.SYSTEM.CONST>
0

>  <SCORE.SYSTEM.DIHEDRAL>
0

>  <SCORE.SYSTEM.SOLV>
0

>  <SCORE.SYSTEM.norm>
0

>  <SCORE.heavy>
37

>  <SCORE.norm>
-0.4436

>  <RMSD>
9.807

$$$$
2oe5_lig
 OpenBabel11021811463D
libRbt.so/2013.1/901 2013/11/27
 37 40  0  0  0  0  0  0  0  0999 V2000
   22.3722   -2.6689   48.9566 C   0  0  1  0  0  0  0  0  0  0  0  0
   23.4580   -3.2707   49.8765 C   0  0  1  0  0  0  0  0  0  0  0  0
   22.9668   -3.2068   51.3705 C   0  0  0  0  0  0  0  0  0  0  0  0
   22.7228   -1.7080   51.6559 C   0  0  1  0  0  0  0  0  0  0  0  0
   21.6050   -1.1035   50.6959 C   0  0  1  0  0  0  0  0  0  0  0  0
   21.3390    0.4017   50.9714 C   0  0  1  0  0  0  0  0  0  0  0  0
   20.8857    0.5153   52.4548 C   0  0  1  0  0  0  0  0  0  0  0  0
   21.9971   -0.1331   53.3645 C   0  0  2  0  0  0  0  0  0  0  0  0
   19.2777    2.4461   53.1957 C   0  0  0  0  0  0  0  0  0  0  0  0
   23.7141   -4.6805   49.5017 N   0  0  0  0  0  0  0  0  0  0  0  0
   20.6532    1.9623   52.8244 N   0  0  0  0  0  0  0  0  0  0  0  0
   21.1497   -3.4226   49.0035 O   0  0  0  0  0  0  0  0  0  0  0  0
   22.0507   -1.2785   49.3121 O   0  0  0  0  0  0  0  0  0  0  0  0
   22.2651   -1.5440   53.0249 O   0  0  0  0  0  0  0  0  0  0  0  0
   22.5561    1.1155   50.7321 O   0  0  0  0  0  0  0  0  0  0  0  0
   21.5905   -0.1050   54.7184 O   0  0  0  0  0  0  0  0  0  0  0  0
   22.6884   -0.3915   55.5642 C   0  0  2  0  0  0  0  0  0  0  0  0
   22.2480   -0.7931   56.9715 C   0  0  1  0  0  0  0  0  0  0  0  0
   21.5223    0.3786   57.6880 C   0  0  2  0  0  0  0  0  0  0  0  0
   22.4982    1.5923   57.7085 C   0  0  1  0  0  0  0  0  0  0  0  0
   22.8539    1.9569   56.2297 C   0  0  1  0  0  0  0  0  0  0  0  0
   23.8429    3.0967   56.1292 C   0  0  0  0  0  0  0  0  0  0  0  0
   21.8022    2.7377   58.4067 N   0  0  0  0  0  0  0  0  0  0  0  0
   23.5328    0.8002   55.6334 O   0  0  0  0  0  0  0  0  0  0  0  0
   21.3769   -1.9344   56.8437 O   0  0  0  0  0  0  0  0  0  0  0  0
   21.2359   -0.0325   59.0371 O   0  0  0  0  0  0  0  0  0  0  0  0
   24.0508    3.4901   54.8159 O   0  0  0  0  0  0  0  0  0  0  0  0
   20.1280   -2.9343   48.1337 C   0  0  1  0  0  0  0  0  0  0  0  0
   20.5624   -3.1308   46.6372 C   0  0  1  0  0  0  0  0  0  0  0  0
   19.4182   -2.5991   45.7010 C   0  0  2  0  0  0  0  0  0  0  0  0
   18.1320   -3.3953   45.9682 C   0  0  1  0  0  0  0  0  0  0  0  0
   17.6892   -3.1855   47.4676 C   0  0  0  0  0  0  0  0  0  0  0  0
   18.8444   -3.7050   48.4111 C   0  0  2  0  0  0  0  0  0  0  0  0
   17.0873   -2.9068   45.0833 N   0  0  0  0  0  0  0  0  0  0  0  0
   18.4745   -3.5043   49.8368 N   0  0  0  0  0  0  0  0  0  0  0  0
   21.7823   -2.3779   46.3793 O   0  0  0  0  0  0  0  0  0  0  0  0
   19.7942   -2.7897   44.3628 O   0  0  0  0  0  0  0  0  0  0  0  0
  1  2  1  0  0  0  0
  1 12  1  1  0  0  0
  1 13  1  0  0  0  0
  2  3  1  0  0  0  0
  2 10  1  6  0  0  0
  4  3  1  6  0  0  0
  4  5  1  0  0  0  0
  4 14  1  0  0  0  0
  5  6  1  0  0  0  0
  5 13  1  6  0  0  0
  6  7  1  0  0  0  0
  6 15  1  1  0  0  0
  7  8  1  0  0  0  0
  7 11  1  1  0  0  0
  8 14  1  0  0  0  0
  8 16  1  1  0  0  0
  9 11  1  0  0  0  0
 17 16  1  6  0  0  0
 17 18  1  0  0  0  0
 17 24  1  0  0  0  0
 18 19  1  0  0  0  0
 18 25  1  6  0  0  0
 19 20  1  0  0  0  0
 19 26  1  1  0  0  0
 20 21  1  0  0  0  0
 20 23  1  6  0  0  0
 21 22  1  1  0  0  0
 21 24  1  0  0  0  0
 22 27  1  0  0  0  0
 28 12  1  1  0  0  0
 28 29  1  0  0  0  0
 28 33  1  0  0  0  0
 29 30  1  0  0  0  0
 29 36  1  1  0  0  0
 30 31  1  0  0  0  0
 30 37  1  6  0  0  0
 31 32  1  0  0  0  0
 31 34  1  6  0  0  0
 32 33  1  0  0  0  0
 33 35  1  1  0  0  0
M  END
>  <CHROM.1>
-177.90543484,115.55961711,-166.45366580,-162.55771791,-174.32155479,66.66849799
21.37600710,-0.95618183,51.77336506,-1.95006350,-0.90862796,0.85729000

>  <Name>
2oe5_lig

>  <RI>
0

>  <Rbt.Current_Directory>
/home/itssahil/PROJECTS/Mol_Feturizer/New_Systems/rnas/2oe5

>  <Rbt.Executable>
rbdock ($Id: //depot/dev/client3/rdock/2013.1/src/exe/rbdock.cxx#4 $)

>  <Rbt.Library>
libRbt.so (2013.1, Build901 2013/11/27)

>  <Rbt.Parameter_File>
/export/apps/rDock/src/rDock_2013.1_src/data/scripts/dock_solv.prm

>  <Rbt.Receptor>
prm/pocket_docking_7.prm

>  <SCORE>
-21.505

>  <SCORE.INTER>
-14.8462

>  <SCORE.INTER.CONST>
1

>  <SCORE.INTER.POLAR>
-1.67134

>  <SCORE.INTER.ROT>
6

>  <SCORE.INTER.SOLV>
13.8177

>  <SCORE.INTER.VDW>
-16.5322

>  <SCORE.INTER.norm>
-0.401248

>  <SCORE.INTRA>
-6.65877

>  <SCORE.INTRA.DIHEDRAL>
-12.3197

>  <SCORE.INTRA.DIHEDRAL.0>
16.2083

>  <SCORE.INTRA.POLAR>
0

>  <SCORE.INTRA.POLAR.0>
0

>  <SCORE.INTRA.REPUL>
0

>  <SCORE.INTRA.REPUL.0>
0

>  <SCORE.INTRA.SOLV>
-3.05895

>  <SCORE.INTRA.SOLV.lig_0>
-89.8095

>  <SCORE.INTRA.VDW>
1.03057

>  <SCORE.INTRA.VDW.0>
-3.19502

>  <SCORE.INTRA.norm>
-0.179967

>  <SCORE.RESTR>
0

>  <SCORE.RESTR.CAVITY>
0

>  <SCORE.RESTR.norm>
0

>  <SCORE.SYSTEM>
0

>  <SCORE.SYSTEM.CONST>
0

>  <SCORE.SYSTEM.DIHEDRAL>
0

>  <SCORE.SYSTEM.SOLV>
0

>  <SCORE.SYSTEM.norm>
0

>  <SCORE.heavy>
37

>  <SCORE.norm>
-0.581215

>  <RMSD>
9.808

$$$$
2oe5_lig
 OpenBabel11021811463D
libRbt.so/2013.1/901 2013/11/27
 37 40  0  0  0  0  0  0  0  0999 V2000
   21.7706   -3.7548   49.3096 C   0  0  1  0  0  0  0  0  0  0  0  0
   23.1704   -3.9947   49.9180 C   0  0  1  0  0  0  0  0  0  0  0  0
   23.1480   -3.6048   51.4426 C   0  0  0  0  0  0  0  0  0  0  0  0
   22.7427   -2.1141   51.4765 C   0  0  1  0  0  0  0  0  0  0  0  0
   21.3003   -1.8849   50.8415 C   0  0  1  0  0  0  0  0  0  0  0  0
   20.8702   -0.3928   50.8722 C   0  0  1  0  0  0  0  0  0  0  0  0
   20.8714    0.0460   52.3642 C   0  0  1  0  0  0  0  0  0  0  0  0
   22.3004   -0.2388   52.9644 C   0  0  2  0  0  0  0  0  0  0  0  0
   19.1816    1.9270   53.0495 C   0  0  0  0  0  0  0  0  0  0  0  0
   23.5447   -5.4210   49.7794 N   0  0  0  0  0  0  0  0  0  0  0  0
   20.5112    1.5092   52.4825 N   0  0  0  0  0  0  0  0  0  0  0  0
   20.7705   -4.5894   49.9164 O   0  0  0  0  0  0  0  0  0  0  0  0
   21.3327   -2.3586   49.4562 O   0  0  0  0  0  0  0  0  0  0  0  0
   22.6966   -1.6561   52.8545 O   0  0  0  0  0  0  0  0  0  0  0  0
   21.8144    0.3541   50.0984 O   0  0  0  0  0  0  0  0  0  0  0  0
   22.3214    0.0897   54.3395 O   0  0  0  0  0  0  0  0  0  0  0  0
   23.5639   -0.2757   54.9100 C   0  0  2  0  0  0  0  0  0  0  0  0
   23.4087   -1.3052   56.0288 C   0  0  1  0  0  0  0  0  0  0  0  0
   22.6086   -0.7185   57.2241 C   0  0  2  0  0  0  0  0  0  0  0  0
   23.3580    0.5580   57.7086 C   0  0  1  0  0  0  0  0  0  0  0  0
   23.4264    1.5659   56.5146 C   0  0  1  0  0  0  0  0  0  0  0  0
   24.1833    2.8296   56.8575 C   0  0  0  0  0  0  0  0  0  0  0  0
   22.5886    1.1353   58.8743 N   0  0  0  0  0  0  0  0  0  0  0  0
   24.1959    0.9329   55.4368 O   0  0  0  0  0  0  0  0  0  0  0  0
   22.7335   -2.4509   55.4728 O   0  0  0  0  0  0  0  0  0  0  0  0
   22.5966   -1.6994   58.2771 O   0  0  0  0  0  0  0  0  0  0  0  0
   24.1527    3.7510   55.8218 O   0  0  0  0  0  0  0  0  0  0  0  0
   19.6841   -4.9227   49.0520 C   0  0  1  0  0  0  0  0  0  0  0  0
   20.1054   -6.0924   48.0922 C   0  0  1  0  0  0  0  0  0  0  0  0
   18.8911   -6.4498   47.1615 C   0  0  2  0  0  0  0  0  0  0  0  0
   17.7041   -6.9009   48.0259 C   0  0  1  0  0  0  0  0  0  0  0  0
   17.2730   -5.7203   48.9791 C   0  0  0  0  0  0  0  0  0  0  0  0
   18.4970   -5.3486   49.9054 C   0  0  2  0  0  0  0  0  0  0  0  0
   16.5944   -7.2463   47.1527 N   0  0  0  0  0  0  0  0  0  0  0  0
   18.1378   -4.2220   50.8063 N   0  0  0  0  0  0  0  0  0  0  0  0
   21.2314   -5.6693   47.2709 O   0  0  0  0  0  0  0  0  0  0  0  0
   19.2572   -7.5069   46.3148 O   0  0  0  0  0  0  0  0  0  0  0  0
  1  2  1  0  0  0  0
  1 12  1  1  0  0  0
  1 13  1  0  0  0  0
  2  3  1  0  0  0  0
  2 10  1  1  0  0  0
  4  3  1  1  0  0  0
  4  5  1  0  0  0  0
  4 14  1  0  0  0  0
  5  6  1  0  0  0  0
  5 13  1  6  0  0  0
  6  7  1  0  0  0  0
  6 15  1  6  0  0  0
  7  8  1  0  0  0  0
  7 11  1  6  0  0  0
  8 14  1  0  0  0  0
  8 16  1  1  0  0  0
  9 11  1  0  0  0  0
 17 16  1  1  0  0  0
 17 18  1  0  0  0  0
 17 24  1  0  0  0  0
 18 19  1  0  0  0  0
 18 25  1  6  0  0  0
 19 20  1  0  0  0  0
 19 26  1  1  0  0  0
 20 21  1  0  0  0  0
 20 23  1  1  0  0  0
 21 22  1  1  0  0  0
 21 24  1  0  0  0  0
 22 27  1  0  0  0  0
 28 12  1  1  0  0  0
 28 29  1  0  0  0  0
 28 33  1  0  0  0  0
 29 30  1  0  0  0  0
 29 36  1  6  0  0  0
 30 31  1  0  0  0  0
 30 37  1  6  0  0  0
 31 32  1  0  0  0  0
 31 34  1  6  0  0  0
 32 33  1  0  0  0  0
 33 35  1  1  0  0  0
M  END
>  <CHROM.1>
-150.76578470,108.94787320,174.77768780,-119.14452755,-175.69729865,79.83659612
21.44377050,-2.18166332,52.09908927,2.41851872,1.10313673,-3.06022547

>  <Name>
2oe5_lig

>  <RI>
0

>  <Rbt.Current_Directory>
/home/itssahil/PROJECTS/Mol_Feturizer/New_Systems/rnas/2oe5

>  <Rbt.Executable>
rbdock ($Id: //depot/dev/client3/rdock/2013.1/src/exe/rbdock.cxx#4 $)

>  <Rbt.Library>
libRbt.so (2013.1, Build901 2013/11/27)

>  <Rbt.Parameter_File>
/export/apps/rDock/src/rDock_2013.1_src/data/scripts/dock_solv.prm

>  <Rbt.Receptor>
prm/pocket_docking_8.prm

>  <SCORE>
-12.9545

>  <SCORE.INTER>
-11.5981

>  <SCORE.INTER.CONST>
1

>  <SCORE.INTER.POLAR>
-0.979284

>  <SCORE.INTER.ROT>
6

>  <SCORE.INTER.SOLV>
11.6898

>  <SCORE.INTER.VDW>
-15.9644

>  <SCORE.INTER.norm>
-0.313461

>  <SCORE.INTRA>
-1.35644

>  <SCORE.INTRA.DIHEDRAL>
-2.44231

>  <SCORE.INTRA.DIHEDRAL.0>
16.2083

>  <SCORE.INTRA.POLAR>
0

>  <SCORE.INTRA.POLAR.0>
0

>  <SCORE.INTRA.REPUL>
0

>  <SCORE.INTRA.REPUL.0>
0

>  <SCORE.INTRA.SOLV>
-1.63393

>  <SCORE.INTRA.SOLV.lig_0>
-89.8095

>  <SCORE.INTRA.VDW>
0.681676

>  <SCORE.INTRA.VDW.0>
-3.19502

>  <SCORE.INTRA.norm>
-0.0366606

>  <SCORE.RESTR>
0

>  <SCORE.RESTR.CAVITY>
0

>  <SCORE.RESTR.norm>
0

>  <SCORE.SYSTEM>
0

>  <SCORE.SYSTEM.CONST>
0

>  <SCORE.SYSTEM.DIHEDRAL>
0

>  <SCORE.SYSTEM.SOLV>
0

>  <SCORE.SYSTEM.norm>
0

>  <SCORE.heavy>
37

>  <SCORE.norm>
-0.350122

>  <RMSD>
9.808

$$$$
2oe5_lig
 OpenBabel11021811463D
libRbt.so/2013.1/901 2013/11/27
 37 40  0  0  0  0  0  0  0  0999 V2000
   19.7145   -2.7572   49.2115 C   0  0  1  0  0  0  0  0  0  0  0  0
   20.7871   -3.6299   49.9008 C   0  0  1  0  0  0  0  0  0  0  0  0
   20.6946   -3.4321   51.4595 C   0  0  0  0  0  0  0  0  0  0  0  0
   20.9288   -1.9229   51.6938 C   0  0  1  0  0  0  0  0  0  0  0  0
   19.8176   -1.0390   50.9725 C   0  0  1  0  0  0  0  0  0  0  0  0
   20.0305    0.4823   51.2017 C   0  0  1  0  0  0  0  0  0  0  0  0
   19.9841    0.7177   52.7383 C   0  0  1  0  0  0  0  0  0  0  0  0
   21.0660   -0.2069   53.4150 C   0  0  2  0  0  0  0  0  0  0  0  0
   19.1437    3.0297   53.6387 C   0  0  0  0  0  0  0  0  0  0  0  0
   20.5668   -5.0569   49.5711 N   0  0  0  0  0  0  0  0  0  0  0  0
   20.2351    2.1740   53.0553 N   0  0  0  0  0  0  0  0  0  0  0  0
   18.3827   -3.1500   49.5815 O   0  0  0  0  0  0  0  0  0  0  0  0
   19.8640   -1.3312   49.5384 O   0  0  0  0  0  0  0  0  0  0  0  0
   20.8648   -1.6382   53.1170 O   0  0  0  0  0  0  0  0  0  0  0  0
   21.3016    0.8378   50.6484 O   0  0  0  0  0  0  0  0  0  0  0  0
   21.0103   -0.0668   54.8209 O   0  0  0  0  0  0  0  0  0  0  0  0
   21.9590   -0.9191   55.4347 C   0  0  2  0  0  0  0  0  0  0  0  0
   21.7166   -1.0720   56.9358 C   0  0  1  0  0  0  0  0  0  0  0  0
   21.9003    0.2821   57.6745 C   0  0  2  0  0  0  0  0  0  0  0  0
   23.3393    0.7927   57.3670 C   0  0  1  0  0  0  0  0  0  0  0  0
   23.4760    0.9615   55.8181 C   0  0  1  0  0  0  0  0  0  0  0  0
   24.8589    1.4065   55.3973 C   0  0  0  0  0  0  0  0  0  0  0  0
   23.5292    2.1094   58.0841 N   0  0  0  0  0  0  0  0  0  0  0  0
   23.2899   -0.3590   55.2049 O   0  0  0  0  0  0  0  0  0  0  0  0
   20.3764   -1.5733   57.1095 O   0  0  0  0  0  0  0  0  0  0  0  0
   21.7657    0.0414   59.0870 O   0  0  0  0  0  0  0  0  0  0  0  0
   25.1353    2.7018   55.8075 O   0  0  0  0  0  0  0  0  0  0  0  0
   17.7184   -3.9548   48.6070 C   0  0  1  0  0  0  0  0  0  0  0  0
   18.2357   -3.5883   47.1700 C   0  0  1  0  0  0  0  0  0  0  0  0
   17.5011   -4.4948   46.1178 C   0  0  2  0  0  0  0  0  0  0  0  0
   17.8131   -5.9698   46.4123 C   0  0  1  0  0  0  0  0  0  0  0  0
   17.2802   -6.3401   47.8500 C   0  0  0  0  0  0  0  0  0  0  0  0
   18.0059   -5.4194   48.9084 C   0  0  2  0  0  0  0  0  0  0  0  0
   17.1434   -6.7962   45.4214 N   0  0  0  0  0  0  0  0  0  0  0  0
   17.5140   -5.7225   50.2781 N   0  0  0  0  0  0  0  0  0  0  0  0
   17.9425   -2.1900   46.8866 O   0  0  0  0  0  0  0  0  0  0  0  0
   17.9738   -4.1836   44.8341 O   0  0  0  0  0  0  0  0  0  0  0  0
  1  2  1  0  0  0  0
  1 12  1  1  0  0  0
  1 13  1  0  0  0  0
  2  3  1  0  0  0  0
  2 10  1  1  0  0  0
  4  3  1  1  0  0  0
  4  5  1  0  0  0  0
  4 14  1  0  0  0  0
  5  6  1  0  0  0  0
  5 13  1  6  0  0  0
  6  7  1  0  0  0  0
  6 15  1  1  0  0  0
  7  8  1  0  0  0  0
  7 11  1  6  0  0  0
  8 14  1  0  0  0  0
  8 16  1  1  0  0  0
  9 11  1  0  0  0  0
 17 16  1  1  0  0  0
 17 18  1  0  0  0  0
 17 24  1  0  0  0  0
 18 19  1  0  0  0  0
 18 25  1  6  0  0  0
 19 20  1  0  0  0  0
 19 26  1  1  0  0  0
 20 21  1  0  0  0  0
 20 23  1  1  0  0  0
 21 22  1  1  0  0  0
 21 24  1  0  0  0  0
 22 27  1  0  0  0  0
 28 12  1  1  0  0  0
 28 29  1  0  0  0  0
 28 33  1  0  0  0  0
 29 30  1  0  0  0  0
 29 36  1  6  0  0  0
 30 31  1  0  0  0  0
 30 37  1  6  0  0  0
 31 32  1  0  0  0  0
 31 34  1  6  0  0  0
 32 33  1  0  0  0  0
 33 35  1  1  0  0  0
M  END
>  <CHROM.1>
-100.62060714,112.87373305,178.62134559,-165.86148853,-68.02699083,-29.90973684
20.36459521,-1.61256751,51.94820544,-2.94978062,1.15864211,2.38708509

>  <Name>
2oe5_lig

>  <RI>
0

>  <Rbt.Current_Directory>
/home/itssahil/PROJECTS/Mol_Feturizer/New_Systems/rnas/2oe5

>  <Rbt.Executable>
rbdock ($Id: //depot/dev/client3/rdock/2013.1/src/exe/rbdock.cxx#4 $)

>  <Rbt.Library>
libRbt.so (2013.1, Build901 2013/11/27)

>  <Rbt.Parameter_File>
/export/apps/rDock/src/rDock_2013.1_src/data/scripts/dock_solv.prm

>  <Rbt.Receptor>
prm/pocket_docking_5.prm

>  <SCORE>
-14.874

>  <SCORE.INTER>
-17.5106

>  <SCORE.INTER.CONST>
1

>  <SCORE.INTER.POLAR>
-2.38547

>  <SCORE.INTER.ROT>
6

>  <SCORE.INTER.SOLV>
11.8337

>  <SCORE.INTER.VDW>
-15.2667

>  <SCORE.INTER.norm>
-0.473259

>  <SCORE.INTRA>
2.63661

>  <SCORE.INTRA.DIHEDRAL>
-4.7208

>  <SCORE.INTRA.DIHEDRAL.0>
16.2083

>  <SCORE.INTRA.POLAR>
0

>  <SCORE.INTRA.POLAR.0>
0

>  <SCORE.INTRA.REPUL>
0

>  <SCORE.INTRA.REPUL.0>
0

>  <SCORE.INTRA.SOLV>
2.50866

>  <SCORE.INTRA.SOLV.lig_0>
-89.8095

>  <SCORE.INTRA.VDW>
3.74268

>  <SCORE.INTRA.VDW.0>
-3.19502

>  <SCORE.INTRA.norm>
0.0712597

>  <SCORE.RESTR>
0

>  <SCORE.RESTR.CAVITY>
0

>  <SCORE.RESTR.norm>
0

>  <SCORE.SYSTEM>
0

>  <SCORE.SYSTEM.CONST>
0

>  <SCORE.SYSTEM.DIHEDRAL>
0

>  <SCORE.SYSTEM.SOLV>
0

>  <SCORE.SYSTEM.norm>
0

>  <SCORE.heavy>
37

>  <SCORE.norm>
-0.401999

>  <RMSD>
9.813

$$$$
2oe5_lig
 OpenBabel11021811463D
libRbt.so/2013.1/901 2013/11/27
 37 40  0  0  0  0  0  0  0  0999 V2000
   22.3004   -2.7893   49.1006 C   0  0  1  0  0  0  0  0  0  0  0  0
   23.2634   -3.3163   50.1879 C   0  0  1  0  0  0  0  0  0  0  0  0
   22.5683   -3.2048   51.5956 C   0  0  0  0  0  0  0  0  0  0  0  0
   22.2483   -1.7038   51.7748 C   0  0  1  0  0  0  0  0  0  0  0  0
   21.2591   -1.1769   50.6434 C   0  0  1  0  0  0  0  0  0  0  0  0
   20.9184    0.3293   50.8094 C   0  0  1  0  0  0  0  0  0  0  0  0
   20.2610    0.4912   52.2096 C   0  0  1  0  0  0  0  0  0  0  0  0
   21.2520   -0.0820   53.2925 C   0  0  2  0  0  0  0  0  0  0  0  0
   18.9711    2.3288   53.5594 C   0  0  0  0  0  0  0  0  0  0  0  0
   23.6056   -4.7317   49.9178 N   0  0  0  0  0  0  0  0  0  0  0  0
   19.9420    1.9443   52.4761 N   0  0  0  0  0  0  0  0  0  0  0  0
   21.1032   -3.5793   49.0141 O   0  0  0  0  0  0  0  0  0  0  0  0
   21.8967   -1.3961   49.3435 O   0  0  0  0  0  0  0  0  0  0  0  0
   21.6011   -1.4967   53.0589 O   0  0  0  0  0  0  0  0  0  0  0  0
   22.1380    1.0710   50.7066 O   0  0  0  0  0  0  0  0  0  0  0  0
   20.6610   -0.0095   54.5750 O   0  0  0  0  0  0  0  0  0  0  0  0
   21.4708    0.7609   55.4432 C   0  0  2  0  0  0  0  0  0  0  0  0
   22.3558   -0.1085   56.3356 C   0  0  1  0  0  0  0  0  0  0  0  0
   21.5005   -0.9775   57.2980 C   0  0  2  0  0  0  0  0  0  0  0  0
   20.6052   -0.0125   58.1305 C   0  0  1  0  0  0  0  0  0  0  0  0
   19.7072    0.7972   57.1384 C   0  0  1  0  0  0  0  0  0  0  0  0
   18.8275    1.8095   57.8375 C   0  0  0  0  0  0  0  0  0  0  0  0
   19.7704   -0.8486   59.0730 N   0  0  0  0  0  0  0  0  0  0  0  0
   20.5930    1.5849   56.2727 O   0  0  0  0  0  0  0  0  0  0  0  0
   23.1591   -0.9380   55.4729 O   0  0  0  0  0  0  0  0  0  0  0  0
   22.3958   -1.6829   58.1766 O   0  0  0  0  0  0  0  0  0  0  0  0
   19.5703    2.7490   58.5362 O   0  0  0  0  0  0  0  0  0  0  0  0
   20.1150   -3.0485   48.1307 C   0  0  1  0  0  0  0  0  0  0  0  0
   20.5924   -3.2017   46.6422 C   0  0  1  0  0  0  0  0  0  0  0  0
   19.4843   -2.6236   45.6901 C   0  0  2  0  0  0  0  0  0  0  0  0
   18.1804   -3.4103   45.8918 C   0  0  1  0  0  0  0  0  0  0  0  0
   17.6946   -3.2438   47.3833 C   0  0  0  0  0  0  0  0  0  0  0  0
   18.8136   -3.8101   48.3433 C   0  0  2  0  0  0  0  0  0  0  0  0
   17.1696   -2.8786   44.9926 N   0  0  0  0  0  0  0  0  0  0  0  0
   18.4029   -3.6512   49.7632 N   0  0  0  0  0  0  0  0  0  0  0  0
   21.8292   -2.4577   46.4465 O   0  0  0  0  0  0  0  0  0  0  0  0
   19.8986   -2.7753   44.3584 O   0  0  0  0  0  0  0  0  0  0  0  0
  1  2  1  0  0  0  0
  1 12  1  1  0  0  0
  1 13  1  0  0  0  0
  2  3  1  0  0  0  0
  2 10  1  6  0  0  0
  4  3  1  6  0  0  0
  4  5  1  0  0  0  0
  4 14  1  0  0  0  0
  5  6  1  0  0  0  0
  5 13  1  6  0  0  0
  6  7  1  0  0  0  0
  6 15  1  1  0  0  0
  7  8  1  0  0  0  0
  7 11  1  1  0  0  0
  8 14  1  0  0  0  0
  8 16  1  1  0  0  0
  9 11  1  0  0  0  0
 17 16  1  6  0  0  0
 17 18  1  0  0  0  0
 17 24  1  0  0  0  0
 18 19  1  0  0  0  0
 18 25  1  6  0  0  0
 19 20  1  0  0  0  0
 19 26  1  1  0  0  0
 20 21  1  0  0  0  0
 20 23  1  1  0  0  0
 21 22  1  1  0  0  0
 21 24  1  0  0  0  0
 22 27  1  0  0  0  0
 28 12  1  1  0  0  0
 28 29  1  0  0  0  0
 28 33  1  0  0  0  0
 29 30  1  0  0  0  0
 29 36  1  1  0  0  0
 30 31  1  0  0  0  0
 30 37  1  6  0  0  0
 31 32  1  0  0  0  0
 31 34  1  6  0  0  0
 32 33  1  0  0  0  0
 33 35  1  1  0  0  0
M  END
>  <CHROM.1>
173.33763185,162.67226526,-121.84836447,-98.43516218,60.44838051,70.83400911
20.72509867,-1.19408666,51.91429342,-1.65550242,-0.62797271,1.18154617

>  <Name>
2oe5_lig

>  <RI>
0

>  <Rbt.Current_Directory>
/home/itssahil/PROJECTS/Mol_Feturizer/New_Systems/rnas/2oe5

>  <Rbt.Executable>
rbdock ($Id: //depot/dev/client3/rdock/2013.1/src/exe/rbdock.cxx#4 $)

>  <Rbt.Library>
libRbt.so (2013.1, Build901 2013/11/27)

>  <Rbt.Parameter_File>
/export/apps/rDock/src/rDock_2013.1_src/data/scripts/dock_solv.prm

>  <Rbt.Receptor>
prm/pocket_docking_7.prm

>  <SCORE>
-18.4644

>  <SCORE.INTER>
-16.8368

>  <SCORE.INTER.CONST>
1

>  <SCORE.INTER.POLAR>
-1.71997

>  <SCORE.INTER.ROT>
6

>  <SCORE.INTER.SOLV>
19.5078

>  <SCORE.INTER.VDW>
-19.5939

>  <SCORE.INTER.norm>
-0.455048

>  <SCORE.INTRA>
-1.62765

>  <SCORE.INTRA.DIHEDRAL>
-2.8431

>  <SCORE.INTRA.DIHEDRAL.0>
16.2083

>  <SCORE.INTRA.POLAR>
0

>  <SCORE.INTRA.POLAR.0>
0

>  <SCORE.INTRA.REPUL>
0

>  <SCORE.INTRA.REPUL.0>
0

>  <SCORE.INTRA.SOLV>
-1.67708

>  <SCORE.INTRA.SOLV.lig_0>
-89.8095

>  <SCORE.INTRA.VDW>
0.632437

>  <SCORE.INTRA.VDW.0>
-3.19502

>  <SCORE.INTRA.norm>
-0.0439906

>  <SCORE.RESTR>
0

>  <SCORE.RESTR.CAVITY>
0

>  <SCORE.RESTR.norm>
0

>  <SCORE.SYSTEM>
0

>  <SCORE.SYSTEM.CONST>
0

>  <SCORE.SYSTEM.DIHEDRAL>
0

>  <SCORE.SYSTEM.SOLV>
0

>  <SCORE.SYSTEM.norm>
0

>  <SCORE.heavy>
37

>  <SCORE.norm>
-0.499038

>  <RMSD>
9.818

$$$$
2oe5_lig
 OpenBabel11021811463D
libRbt.so/2013.1/901 2013/11/27
 37 40  0  0  0  0  0  0  0  0999 V2000
   19.7670   -2.4280   49.7736 C   0  0  1  0  0  0  0  0  0  0  0  0
   20.9180   -3.1053   50.5507 C   0  0  1  0  0  0  0  0  0  0  0  0
   20.6316   -3.0049   52.0951 C   0  0  0  0  0  0  0  0  0  0  0  0
   20.5339   -1.4922   52.3944 C   0  0  1  0  0  0  0  0  0  0  0  0
   19.3462   -0.8101   51.5817 C   0  0  1  0  0  0  0  0  0  0  0  0
   19.2259    0.7106   51.8740 C   0  0  1  0  0  0  0  0  0  0  0  0
   18.9791    0.8578   53.4024 C   0  0  1  0  0  0  0  0  0  0  0  0
   20.1508    0.1322   54.1666 C   0  0  2  0  0  0  0  0  0  0  0  0
   18.4538    2.7260   55.1621 C   0  0  0  0  0  0  0  0  0  0  0  0
   21.0224   -4.5301   50.1603 N   0  0  0  0  0  0  0  0  0  0  0  0
   18.9000    2.3181   53.7843 N   0  0  0  0  0  0  0  0  0  0  0  0
   18.5107   -3.0922   49.9868 O   0  0  0  0  0  0  0  0  0  0  0  0
   19.5941   -1.0179   50.1536 O   0  0  0  0  0  0  0  0  0  0  0  0
   20.2715   -1.2946   53.8096 O   0  0  0  0  0  0  0  0  0  0  0  0
   20.4489    1.3351   51.4711 O   0  0  0  0  0  0  0  0  0  0  0  0
   19.9273    0.1906   55.5615 O   0  0  0  0  0  0  0  0  0  0  0  0
   21.0881   -0.2190   56.2598 C   0  0  2  0  0  0  0  0  0  0  0  0
   20.9318   -0.0864   57.7742 C   0  0  1  0  0  0  0  0  0  0  0  0
   20.7513    1.3989   58.1917 C   0  0  2  0  0  0  0  0  0  0  0  0
   21.9859    2.1879   57.6635 C   0  0  1  0  0  0  0  0  0  0  0  0
   22.0353    2.0315   56.1080 C   0  0  1  0  0  0  0  0  0  0  0  0
   23.2316    2.7186   55.4881 C   0  0  0  0  0  0  0  0  0  0  0  0
   21.8213    3.6349   58.0673 N   0  0  0  0  0  0  0  0  0  0  0  0
   22.2071    0.6055   55.8059 O   0  0  0  0  0  0  0  0  0  0  0  0
   19.7864   -0.8709   58.1620 O   0  0  0  0  0  0  0  0  0  0  0  0
   20.7207    1.4575   59.6293 O   0  0  0  0  0  0  0  0  0  0  0  0
   23.2777    2.5422   54.1135 O   0  0  0  0  0  0  0  0  0  0  0  0
   18.2794   -4.1995   49.1155 C   0  0  1  0  0  0  0  0  0  0  0  0
   17.5120   -5.3331   49.8855 C   0  0  1  0  0  0  0  0  0  0  0  0
   17.2579   -6.5333   48.9039 C   0  0  2  0  0  0  0  0  0  0  0  0
   16.4040   -6.0505   47.7217 C   0  0  1  0  0  0  0  0  0  0  0  0
   17.1821   -4.9221   46.9410 C   0  0  0  0  0  0  0  0  0  0  0  0
   17.4526   -3.7207   47.9299 C   0  0  2  0  0  0  0  0  0  0  0  0
   16.1604   -7.1735   46.8315 N   0  0  0  0  0  0  0  0  0  0  0  0
   18.2055   -2.6425   47.2368 N   0  0  0  0  0  0  0  0  0  0  0  0
   18.3179   -5.7936   51.0080 O   0  0  0  0  0  0  0  0  0  0  0  0
   16.5561   -7.5408   49.5826 O   0  0  0  0  0  0  0  0  0  0  0  0
  1  2  1  0  0  0  0
  1 12  1  1  0  0  0
  1 13  1  0  0  0  0
  2  3  1  0  0  0  0
  2 10  1  6  0  0  0
  4  3  1  1  0  0  0
  4  5  1  0  0  0  0
  4 14  1  0  0  0  0
  5  6  1  0  0  0  0
  5 13  1  6  0  0  0
  6  7  1  0  0  0  0
  6 15  1  1  0  0  0
  7  8  1  0  0  0  0
  7 11  1  1  0  0  0
  8 14  1  0  0  0  0
  8 16  1  1  0  0  0
  9 11  1  0  0  0  0
 17 16  1  6  0  0  0
 17 18  1  0  0  0  0
 17 24  1  0  0  0  0
 18 19  1  0  0  0  0
 18 25  1  6  0  0  0
 19 20  1  0  0  0  0
 19 26  1  1  0  0  0
 20 21  1  0  0  0  0
 20 23  1  6  0  0  0
 21 22  1  1  0  0  0
 21 24  1  0  0  0  0
 22 27  1  0  0  0  0
 28 12  1  1  0  0  0
 28 29  1  0  0  0  0
 28 33  1  0  0  0  0
 29 30  1  0  0  0  0
 29 36  1  1  0  0  0
 30 31  1  0  0  0  0
 30 37  1  1  0  0  0
 31 32  1  0  0  0  0
 31 34  1  6  0  0  0
 32 33  1  0  0  0  0
 33 35  1  6  0  0  0
M  END
>  <CHROM.1>
-85.55280522,170.32735446,-168.53838233,176.20632405,178.51350385,144.02127971
19.68488784,-1.35827470,52.70455047,-2.54095069,1.17752720,1.80250462

>  <Name>
2oe5_lig

>  <RI>
0

>  <Rbt.Current_Directory>
/home/itssahil/PROJECTS/Mol_Feturizer/New_Systems/rnas/2oe5

>  <Rbt.Executable>
rbdock ($Id: //depot/dev/client3/rdock/2013.1/src/exe/rbdock.cxx#4 $)

>  <Rbt.Library>
libRbt.so (2013.1, Build901 2013/11/27)

>  <Rbt.Parameter_File>
/export/apps/rDock/src/rDock_2013.1_src/data/scripts/dock_solv.prm

>  <Rbt.Receptor>
prm/pocket_docking_4.prm

>  <SCORE>
-22.9371

>  <SCORE.INTER>
-19.5569

>  <SCORE.INTER.CONST>
1

>  <SCORE.INTER.POLAR>
-1.93443

>  <SCORE.INTER.ROT>
6

>  <SCORE.INTER.SOLV>
15.9491

>  <SCORE.INTER.VDW>
-19.5062

>  <SCORE.INTER.norm>
-0.528564

>  <SCORE.INTRA>
-3.38022

>  <SCORE.INTRA.DIHEDRAL>
-7.89033

>  <SCORE.INTRA.DIHEDRAL.0>
16.2083

>  <SCORE.INTRA.POLAR>
0

>  <SCORE.INTRA.POLAR.0>
0

>  <SCORE.INTRA.REPUL>
0.0146814

>  <SCORE.INTRA.REPUL.0>
0

>  <SCORE.INTRA.SOLV>
0.512672

>  <SCORE.INTRA.SOLV.lig_0>
-89.8095

>  <SCORE.INTRA.VDW>
0.2352

>  <SCORE.INTRA.VDW.0>
-3.19502

>  <SCORE.INTRA.norm>
-0.0913574

>  <SCORE.RESTR>
0

>  <SCORE.RESTR.CAVITY>
0

>  <SCORE.RESTR.norm>
0

>  <SCORE.SYSTEM>
0

>  <SCORE.SYSTEM.CONST>
0

>  <SCORE.SYSTEM.DIHEDRAL>
0

>  <SCORE.SYSTEM.SOLV>
0

>  <SCORE.SYSTEM.norm>
0

>  <SCORE.heavy>
37

>  <SCORE.norm>
-0.619922

>  <RMSD>
9.822

$$$$
2oe5_lig
 OpenBabel11021811463D
libRbt.so/2013.1/901 2013/11/27
 37 40  0  0  0  0  0  0  0  0999 V2000
   22.3975   -2.3587   49.1210 C   0  0  1  0  0  0  0  0  0  0  0  0
   23.4259   -2.8704   50.1544 C   0  0  1  0  0  0  0  0  0  0  0  0
   22.7976   -2.7915   51.5953 C   0  0  0  0  0  0  0  0  0  0  0  0
   22.4472   -1.3015   51.8066 C   0  0  1  0  0  0  0  0  0  0  0  0
   21.3905   -0.7902   50.7304 C   0  0  1  0  0  0  0  0  0  0  0  0
   21.0187    0.7045   50.9296 C   0  0  1  0  0  0  0  0  0  0  0  0
   20.4264    0.8349   52.3616 C   0  0  1  0  0  0  0  0  0  0  0  0
   21.4838    0.2779   53.3888 C   0  0  2  0  0  0  0  0  0  0  0  0
   19.0875    2.6195   53.7347 C   0  0  0  0  0  0  0  0  0  0  0  0
   23.7917   -4.2734   49.8522 N   0  0  0  0  0  0  0  0  0  0  0  0
   20.0825    2.2763   52.6596 N   0  0  0  0  0  0  0  0  0  0  0  0
   21.2187   -3.1797   49.0838 O   0  0  0  0  0  0  0  0  0  0  0  0
   21.9695   -0.9794   49.3988 O   0  0  0  0  0  0  0  0  0  0  0  0
   21.8582   -1.1245   53.1228 O   0  0  0  0  0  0  0  0  0  0  0  0
   22.2119    1.4798   50.7760 O   0  0  0  0  0  0  0  0  0  0  0  0
   20.9543    0.3218   54.6991 O   0  0  0  0  0  0  0  0  0  0  0  0
   21.9146   -0.1417   55.6297 C   0  0  2  0  0  0  0  0  0  0  0  0
   21.3055   -0.4174   57.0039 C   0  0  1  0  0  0  0  0  0  0  0  0
   20.7620    0.8871   57.6487 C   0  0  2  0  0  0  0  0  0  0  0  0
   21.9440    1.8982   57.7291 C   0  0  1  0  0  0  0  0  0  0  0  0
   22.4683    2.1516   56.2775 C   0  0  1  0  0  0  0  0  0  0  0  0
   23.6581    3.0845   56.2390 C   0  0  0  0  0  0  0  0  0  0  0  0
   21.4260    3.1710   58.3582 N   0  0  0  0  0  0  0  0  0  0  0  0
   22.9600    0.8736   55.7488 O   0  0  0  0  0  0  0  0  0  0  0  0
   20.2476   -1.3798   56.8238 O   0  0  0  0  0  0  0  0  0  0  0  0
   20.3062    0.5718   58.9768 O   0  0  0  0  0  0  0  0  0  0  0  0
   24.7545    2.5562   56.9035 O   0  0  0  0  0  0  0  0  0  0  0  0
   20.2233   -2.7323   48.1632 C   0  0  1  0  0  0  0  0  0  0  0  0
   20.7036   -2.9914   46.6904 C   0  0  1  0  0  0  0  0  0  0  0  0
   19.5877   -2.5038   45.6977 C   0  0  2  0  0  0  0  0  0  0  0  0
   18.2953   -3.2917   45.9595 C   0  0  1  0  0  0  0  0  0  0  0  0
   17.8064   -3.0192   47.4343 C   0  0  0  0  0  0  0  0  0  0  0  0
   18.9331   -3.4943   48.4340 C   0  0  2  0  0  0  0  0  0  0  0  0
   17.2774   -2.8448   45.0230 N   0  0  0  0  0  0  0  0  0  0  0  0
   18.5194   -3.2337   49.8379 N   0  0  0  0  0  0  0  0  0  0  0  0
   21.9295   -2.2465   46.4378 O   0  0  0  0  0  0  0  0  0  0  0  0
   20.0049   -2.7504   44.3811 O   0  0  0  0  0  0  0  0  0  0  0  0
  1  2  1  0  0  0  0
  1 12  1  1  0  0  0
  1 13  1  0  0  0  0
  2  3  1  0  0  0  0
  2 10  1  6  0  0  0
  4  3  1  6  0  0  0
  4  5  1  0  0  0  0
  4 14  1  0  0  0  0
  5  6  1  0  0  0  0
  5 13  1  6  0  0  0
  6  7  1  0  0  0  0
  6 15  1  1  0  0  0
  7  8  1  0  0  0  0
  7 11  1  1  0  0  0
  8 14  1  0  0  0  0
  8 16  1  1  0  0  0
  9 11  1  0  0  0  0
 17 16  1  6  0  0  0
 17 18  1  0  0  0  0
 17 24  1  0  0  0  0
 18 19  1  0  0  0  0
 18 25  1  6  0  0  0
 19 20  1  0  0  0  0
 19 26  1  1  0  0  0
 20 21  1  0  0  0  0
 20 23  1  6  0  0  0
 21 22  1  1  0  0  0
 21 24  1  0  0  0  0
 22 27  1  0  0  0  0
 28 12  1  1  0  0  0
 28 29  1  0  0  0  0
 28 33  1  0  0  0  0
 29 30  1  0  0  0  0
 29 36  1  6  0  0  0
 30 31  1  0  0  0  0
 30 37  1  6  0  0  0
 31 32  1  0  0  0  0
 31 34  1  6  0  0  0
 32 33  1  0  0  0  0
 33 35  1  1  0  0  0
M  END
>  <CHROM.1>
178.74469776,158.69447510,-178.32701853,-166.97622474,63.11480856,71.55531476
21.14379747,-0.70810395,51.89318590,-1.74439014,-0.13243363,1.13646647

>  <Name>
2oe5_lig

>  <RI>
0

>  <Rbt.Current_Directory>
/home/itssahil/PROJECTS/Mol_Feturizer/New_Systems/rnas/2oe5

>  <Rbt.Executable>
rbdock ($Id: //depot/dev/client3/rdock/2013.1/src/exe/rbdock.cxx#4 $)

>  <Rbt.Library>
libRbt.so (2013.1, Build901 2013/11/27)

>  <Rbt.Parameter_File>
/export/apps/rDock/src/rDock_2013.1_src/data/scripts/dock_solv.prm

>  <Rbt.Receptor>
prm/pocket_docking_5.prm

>  <SCORE>
-22.9539

>  <SCORE.INTER>
-15.8733

>  <SCORE.INTER.CONST>
1

>  <SCORE.INTER.POLAR>
-2.09681

>  <SCORE.INTER.ROT>
6

>  <SCORE.INTER.SOLV>
14.564

>  <SCORE.INTER.VDW>
-16.0476

>  <SCORE.INTER.norm>
-0.429009

>  <SCORE.INTRA>
-7.08054

>  <SCORE.INTRA.DIHEDRAL>
-14.2791

>  <SCORE.INTRA.DIHEDRAL.0>
16.2083

>  <SCORE.INTRA.POLAR>
0

>  <SCORE.INTRA.POLAR.0>
0

>  <SCORE.INTRA.REPUL>
0

>  <SCORE.INTRA.REPUL.0>
0

>  <SCORE.INTRA.SOLV>
-2.44399

>  <SCORE.INTRA.SOLV.lig_0>
-89.8095

>  <SCORE.INTRA.VDW>
1.28101

>  <SCORE.INTRA.VDW.0>
-3.19502

>  <SCORE.INTRA.norm>
-0.191366

>  <SCORE.RESTR>
0

>  <SCORE.RESTR.CAVITY>
0

>  <SCORE.RESTR.norm>
0

>  <SCORE.SYSTEM>
0

>  <SCORE.SYSTEM.CONST>
0

>  <SCORE.SYSTEM.DIHEDRAL>
0

>  <SCORE.SYSTEM.SOLV>
0

>  <SCORE.SYSTEM.norm>
0

>  <SCORE.heavy>
37

>  <SCORE.norm>
-0.620375

>  <RMSD>
9.833

$$$$
2oe5_lig
 OpenBabel11021811463D
libRbt.so/2013.1/901 2013/11/27
 37 40  0  0  0  0  0  0  0  0999 V2000
   17.6773   -5.0784   47.5287 C   0  0  1  0  0  0  0  0  0  0  0  0
   17.4112   -3.6829   46.9212 C   0  0  1  0  0  0  0  0  0  0  0  0
   18.6820   -2.7769   47.1244 C   0  0  0  0  0  0  0  0  0  0  0  0
   18.9007   -2.7179   48.6529 C   0  0  1  0  0  0  0  0  0  0  0  0
   19.1685   -4.1646   49.2624 C   0  0  1  0  0  0  0  0  0  0  0  0
   19.3983   -4.1268   50.7980 C   0  0  1  0  0  0  0  0  0  0  0  0
   20.6277   -3.2075   51.0474 C   0  0  1  0  0  0  0  0  0  0  0  0
   20.3396   -1.8042   50.3910 C   0  0  2  0  0  0  0  0  0  0  0  0
   22.2636   -2.7137   53.0330 C   0  0  0  0  0  0  0  0  0  0  0  0
   17.1213   -3.8079   45.4742 N   0  0  0  0  0  0  0  0  0  0  0  0
   20.8921   -3.0731   52.5295 N   0  0  0  0  0  0  0  0  0  0  0  0
   18.7566   -5.7566   46.8653 O   0  0  0  0  0  0  0  0  0  0  0  0
   18.0100   -5.0074   48.9595 O   0  0  0  0  0  0  0  0  0  0  0  0
   20.0611   -1.8939   48.9445 O   0  0  0  0  0  0  0  0  0  0  0  0
   18.2133   -3.6057   51.4083 O   0  0  0  0  0  0  0  0  0  0  0  0
   21.4634   -0.9597   50.5429 O   0  0  0  0  0  0  0  0  0  0  0  0
   21.0628    0.3973   50.5091 C   0  0  2  0  0  0  0  0  0  0  0  0
   22.2219    1.3521   50.7928 C   0  0  1  0  0  0  0  0  0  0  0  0
   22.7663    1.1606   52.2350 C   0  0  2  0  0  0  0  0  0  0  0  0
   21.5782    1.3805   53.2178 C   0  0  1  0  0  0  0  0  0  0  0  0
   20.4666    0.3330   52.8810 C   0  0  1  0  0  0  0  0  0  0  0  0
   19.2349    0.4878   53.7449 C   0  0  0  0  0  0  0  0  0  0  0  0
   22.0985    1.1992   54.6251 N   0  0  0  0  0  0  0  0  0  0  0  0
   20.0124    0.5867   51.5085 O   0  0  0  0  0  0  0  0  0  0  0  0
   23.2496    1.0878   49.8174 O   0  0  0  0  0  0  0  0  0  0  0  0
   23.7753    2.1602   52.4671 O   0  0  0  0  0  0  0  0  0  0  0  0
   19.4989    0.2191   55.0794 O   0  0  0  0  0  0  0  0  0  0  0  0
   19.0320   -7.0599   47.3792 C   0  0  1  0  0  0  0  0  0  0  0  0
   17.8500   -8.0328   47.0280 C   0  0  1  0  0  0  0  0  0  0  0  0
   18.1818   -9.4613   47.5915 C   0  0  2  0  0  0  0  0  0  0  0  0
   19.4762   -9.9751   46.9430 C   0  0  1  0  0  0  0  0  0  0  0  0
   20.6650   -9.0049   47.3085 C   0  0  0  0  0  0  0  0  0  0  0  0
   20.3269   -7.5643   46.7566 C   0  0  2  0  0  0  0  0  0  0  0  0
   19.7616  -11.3041   47.4582 N   0  0  0  0  0  0  0  0  0  0  0  0
   21.4156   -6.6122   47.1006 N   0  0  0  0  0  0  0  0  0  0  0  0
   16.6202   -7.5490   47.6404 O   0  0  0  0  0  0  0  0  0  0  0  0
   17.1368  -10.3382   47.2637 O   0  0  0  0  0  0  0  0  0  0  0  0
  1  2  1  0  0  0  0
  1 12  1  6  0  0  0
  1 13  1  0  0  0  0
  2  3  1  0  0  0  0
  2 10  1  6  0  0  0
  4  3  1  6  0  0  0
  4  5  1  0  0  0  0
  4 14  1  0  0  0  0
  5  6  1  0  0  0  0
  5 13  1  1  0  0  0
  6  7  1  0  0  0  0
  6 15  1  1  0  0  0
  7  8  1  0  0  0  0
  7 11  1  1  0  0  0
  8 14  1  0  0  0  0
  8 16  1  6  0  0  0
  9 11  1  0  0  0  0
 17 16  1  1  0  0  0
 17 18  1  0  0  0  0
 17 24  1  0  0  0  0
 18 19  1  0  0  0  0
 18 25  1  6  0  0  0
 19 20  1  0  0  0  0
 19 26  1  1  0  0  0
 20 21  1  0  0  0  0
 20 23  1  1  0  0  0
 21 22  1  1  0  0  0
 21 24  1  0  0  0  0
 22 27  1  0  0  0  0
 28 12  1  6  0  0  0
 28 29  1  0  0  0  0
 28 33  1  0  0  0  0
 29 30  1  0  0  0  0
 29 36  1  1  0  0  0
 30 31  1  0  0  0  0
 30 37  1  6  0  0  0
 31 32  1  0  0  0  0
 31 34  1  1  0  0  0
 32 33  1  0  0  0  0
 33 35  1  1  0  0  0
M  END
>  <CHROM.1>
-179.25427887,156.19151279,-154.72196709,174.92669223,-65.24609909,68.91195542
19.87647253,-3.50280202,49.72843121,2.30110390,1.14439529,3.00168450

>  <Name>
2oe5_lig

>  <RI>
0

>  <Rbt.Current_Directory>
/home/itssahil/PROJECTS/Mol_Feturizer/New_Systems/rnas/2oe5

>  <Rbt.Executable>
rbdock ($Id: //depot/dev/client3/rdock/2013.1/src/exe/rbdock.cxx#4 $)

>  <Rbt.Library>
libRbt.so (2013.1, Build901 2013/11/27)

>  <Rbt.Parameter_File>
/export/apps/rDock/src/rDock_2013.1_src/data/scripts/dock_solv.prm

>  <Rbt.Receptor>
prm/pocket_docking_7.prm

>  <SCORE>
-25.8746

>  <SCORE.INTER>
-19.9338

>  <SCORE.INTER.CONST>
1

>  <SCORE.INTER.POLAR>
-1.34266

>  <SCORE.INTER.ROT>
6

>  <SCORE.INTER.SOLV>
14.1847

>  <SCORE.INTER.VDW>
-21.1419

>  <SCORE.INTER.norm>
-0.53875

>  <SCORE.INTRA>
-5.94086

>  <SCORE.INTRA.DIHEDRAL>
-12.3883

>  <SCORE.INTRA.DIHEDRAL.0>
16.2083

>  <SCORE.INTRA.POLAR>
0

>  <SCORE.INTRA.POLAR.0>
0

>  <SCORE.INTRA.REPUL>
0

>  <SCORE.INTRA.REPUL.0>
0

>  <SCORE.INTRA.SOLV>
-1.0398

>  <SCORE.INTRA.SOLV.lig_0>
-89.8095

>  <SCORE.INTRA.VDW>
0.773197

>  <SCORE.INTRA.VDW.0>
-3.19502

>  <SCORE.INTRA.norm>
-0.160564

>  <SCORE.RESTR>
0

>  <SCORE.RESTR.CAVITY>
0

>  <SCORE.RESTR.norm>
0

>  <SCORE.SYSTEM>
0

>  <SCORE.SYSTEM.CONST>
0

>  <SCORE.SYSTEM.DIHEDRAL>
0

>  <SCORE.SYSTEM.SOLV>
0

>  <SCORE.SYSTEM.norm>
0

>  <SCORE.heavy>
37

>  <SCORE.norm>
-0.699314

>  <RMSD>
9.837

$$$$
2oe5_lig
 OpenBabel11021811463D
libRbt.so/2013.1/901 2013/11/27
 37 40  0  0  0  0  0  0  0  0999 V2000
   22.6620   -1.8746   52.5764 C   0  0  1  0  0  0  0  0  0  0  0  0
   23.2213   -2.2849   53.9571 C   0  0  1  0  0  0  0  0  0  0  0  0
   22.0656   -2.2265   55.0239 C   0  0  0  0  0  0  0  0  0  0  0  0
   21.5669   -0.7642   55.0054 C   0  0  1  0  0  0  0  0  0  0  0  0
   20.9989   -0.3572   53.5743 C   0  0  1  0  0  0  0  0  0  0  0  0
   20.4852    1.1080   53.5361 C   0  0  1  0  0  0  0  0  0  0  0  0
   19.3626    1.2203   54.6066 C   0  0  1  0  0  0  0  0  0  0  0  0
   19.9537    0.7669   55.9952 C   0  0  2  0  0  0  0  0  0  0  0  0
   18.9507    3.5506   53.4828 C   0  0  0  0  0  0  0  0  0  0  0  0
   23.7649   -3.6611   53.8941 N   0  0  0  0  0  0  0  0  0  0  0  0
   18.8383    2.6364   54.6725 N   0  0  0  0  0  0  0  0  0  0  0  0
   21.6507   -2.7847   52.1140 O   0  0  0  0  0  0  0  0  0  0  0  0
   22.0728   -0.5272   52.5935 O   0  0  0  0  0  0  0  0  0  0  0  0
   20.4908   -0.6074   55.9688 O   0  0  0  0  0  0  0  0  0  0  0  0
   21.5888    1.9699   53.8318 O   0  0  0  0  0  0  0  0  0  0  0  0
   18.9428    0.7955   56.9834 O   0  0  0  0  0  0  0  0  0  0  0  0
   19.3312    1.6338   58.0554 C   0  0  2  0  0  0  0  0  0  0  0  0
   18.4560    1.4372   59.2927 C   0  0  1  0  0  0  0  0  0  0  0  0
   16.9853    1.8507   59.0111 C   0  0  2  0  0  0  0  0  0  0  0  0
   16.9977    3.3344   58.5377 C   0  0  1  0  0  0  0  0  0  0  0  0
   17.8764    3.4270   57.2471 C   0  0  1  0  0  0  0  0  0  0  0  0
   18.0028    4.8407   56.7248 C   0  0  0  0  0  0  0  0  0  0  0  0
   15.5701    3.7476   58.2637 N   0  0  0  0  0  0  0  0  0  0  0  0
   19.2413    3.0215   57.6037 O   0  0  0  0  0  0  0  0  0  0  0  0
   18.5358    0.0466   59.6634 O   0  0  0  0  0  0  0  0  0  0  0  0
   16.2484    1.7437   60.2426 O   0  0  0  0  0  0  0  0  0  0  0  0
   16.8394    5.2720   56.1057 O   0  0  0  0  0  0  0  0  0  0  0  0
   21.0491   -2.4097   50.8746 C   0  0  1  0  0  0  0  0  0  0  0  0
   22.0939   -2.5500   49.7103 C   0  0  1  0  0  0  0  0  0  0  0  0
   21.4057   -2.1452   48.3571 C   0  0  2  0  0  0  0  0  0  0  0  0
   20.2168   -3.0810   48.0920 C   0  0  1  0  0  0  0  0  0  0  0  0
   19.1618   -2.9284   49.2548 C   0  0  0  0  0  0  0  0  0  0  0  0
   19.8556   -3.3199   50.6186 C   0  0  2  0  0  0  0  0  0  0  0  0
   19.6008   -2.7083   46.8292 N   0  0  0  0  0  0  0  0  0  0  0  0
   18.8984   -3.1678   51.7458 N   0  0  0  0  0  0  0  0  0  0  0  0
   23.2237   -1.6646   49.9578 O   0  0  0  0  0  0  0  0  0  0  0  0
   22.3303   -2.2868   47.3115 O   0  0  0  0  0  0  0  0  0  0  0  0
  1  2  1  0  0  0  0
  1 12  1  1  0  0  0
  1 13  1  0  0  0  0
  2  3  1  0  0  0  0
  2 10  1  6  0  0  0
  4  3  1  6  0  0  0
  4  5  1  0  0  0  0
  4 14  1  0  0  0  0
  5  6  1  0  0  0  0
  5 13  1  6  0  0  0
  6  7  1  0  0  0  0
  6 15  1  1  0  0  0
  7  8  1  0  0  0  0
  7 11  1  1  0  0  0
  8 14  1  0  0  0  0
  8 16  1  1  0  0  0
  9 11  1  0  0  0  0
 17 16  1  6  0  0  0
 17 18  1  0  0  0  0
 17 24  1  0  0  0  0
 18 19  1  0  0  0  0
 18 25  1  6  0  0  0
 19 20  1  0  0  0  0
 19 26  1  1  0  0  0
 20 21  1  0  0  0  0
 20 23  1  6  0  0  0
 21 22  1  1  0  0  0
 21 24  1  0  0  0  0
 22 27  1  0  0  0  0
 28 12  1  1  0  0  0
 28 29  1  0  0  0  0
 28 33  1  0  0  0  0
 29 30  1  0  0  0  0
 29 36  1  1  0  0  0
 30 31  1  0  0  0  0
 30 37  1  6  0  0  0
 31 32  1  0  0  0  0
 31 34  1  6  0  0  0
 32 33  1  0  0  0  0
 33 35  1  1  0  0  0
M  END
>  <CHROM.1>
176.75871785,24.99985146,-123.12819752,-165.76864991,-74.42009591,68.67106446
19.95851088,0.06154492,54.11735002,-0.97595301,-0.88484061,1.48674280

>  <Name>
2oe5_lig

>  <RI>
0

>  <Rbt.Current_Directory>
/home/itssahil/PROJECTS/Mol_Feturizer/New_Systems/rnas/2oe5

>  <Rbt.Executable>
rbdock ($Id: //depot/dev/client3/rdock/2013.1/src/exe/rbdock.cxx#4 $)

>  <Rbt.Library>
libRbt.so (2013.1, Build901 2013/11/27)

>  <Rbt.Parameter_File>
/export/apps/rDock/src/rDock_2013.1_src/data/scripts/dock_solv.prm

>  <Rbt.Receptor>
prm/pocket_docking_7.prm

>  <SCORE>
-18.8109

>  <SCORE.INTER>
-17.9692

>  <SCORE.INTER.CONST>
1

>  <SCORE.INTER.POLAR>
-2.20943

>  <SCORE.INTER.ROT>
6

>  <SCORE.INTER.SOLV>
23.6532

>  <SCORE.INTER.VDW>
-20.0991

>  <SCORE.INTER.norm>
-0.485653

>  <SCORE.INTRA>
-0.841747

>  <SCORE.INTRA.DIHEDRAL>
-6.16704

>  <SCORE.INTRA.DIHEDRAL.0>
16.2083

>  <SCORE.INTRA.POLAR>
0

>  <SCORE.INTRA.POLAR.0>
0

>  <SCORE.INTRA.REPUL>
0

>  <SCORE.INTRA.REPUL.0>
0

>  <SCORE.INTRA.SOLV>
-0.175603

>  <SCORE.INTRA.SOLV.lig_0>
-89.8095

>  <SCORE.INTRA.VDW>
2.32958

>  <SCORE.INTRA.VDW.0>
-3.19502

>  <SCORE.INTRA.norm>
-0.0227499

>  <SCORE.RESTR>
0

>  <SCORE.RESTR.CAVITY>
0

>  <SCORE.RESTR.norm>
0

>  <SCORE.SYSTEM>
0

>  <SCORE.SYSTEM.CONST>
0

>  <SCORE.SYSTEM.DIHEDRAL>
0

>  <SCORE.SYSTEM.SOLV>
0

>  <SCORE.SYSTEM.norm>
0

>  <SCORE.heavy>
37

>  <SCORE.norm>
-0.508403

>  <RMSD>
9.840

$$$$
2oe5_lig
 OpenBabel11021811463D
libRbt.so/2013.1/901 2013/11/27
 37 40  0  0  0  0  0  0  0  0999 V2000
   20.4820   -1.9428   49.8268 C   0  0  1  0  0  0  0  0  0  0  0  0
   22.0110   -1.8526   50.0303 C   0  0  1  0  0  0  0  0  0  0  0  0
   22.3388   -1.9742   51.5649 C   0  0  0  0  0  0  0  0  0  0  0  0
   21.5888   -0.8019   52.2364 C   0  0  1  0  0  0  0  0  0  0  0  0
   20.0156   -0.9083   52.0124 C   0  0  1  0  0  0  0  0  0  0  0  0
   19.2416    0.2575   52.6861 C   0  0  1  0  0  0  0  0  0  0  0  0
   19.5688    0.1975   54.2054 C   0  0  1  0  0  0  0  0  0  0  0  0
   21.1337    0.2604   54.3790 C   0  0  2  0  0  0  0  0  0  0  0  0
   19.3303    2.7572   54.7090 C   0  0  0  0  0  0  0  0  0  0  0  0
   22.6848   -2.9469   49.2941 N   0  0  0  0  0  0  0  0  0  0  0  0
   18.8923    1.3355   54.9346 N   0  0  0  0  0  0  0  0  0  0  0  0
   19.9583   -3.2144   50.2435 O   0  0  0  0  0  0  0  0  0  0  0  0
   19.7598   -0.8997   50.5706 O   0  0  0  0  0  0  0  0  0  0  0  0
   21.8339   -0.8270   53.6681 O   0  0  0  0  0  0  0  0  0  0  0  0
   19.6874    1.4823   52.0951 O   0  0  0  0  0  0  0  0  0  0  0  0
   21.4734    0.1445   55.7466 O   0  0  0  0  0  0  0  0  0  0  0  0
   22.8754    0.2440   55.9119 C   0  0  2  0  0  0  0  0  0  0  0  0
   23.3124   -0.0406   57.3484 C   0  0  1  0  0  0  0  0  0  0  0  0
   22.7458    1.0233   58.3283 C   0  0  2  0  0  0  0  0  0  0  0  0
   23.2331    2.4190   57.8382 C   0  0  1  0  0  0  0  0  0  0  0  0
   22.7009    2.6382   56.3839 C   0  0  1  0  0  0  0  0  0  0  0  0
   23.1596    3.9484   55.7836 C   0  0  0  0  0  0  0  0  0  0  0  0
   22.6892    3.4617   58.7874 N   0  0  0  0  0  0  0  0  0  0  0  0
   23.2838    1.5954   55.5312 O   0  0  0  0  0  0  0  0  0  0  0  0
   22.8394   -1.3580   57.6922 O   0  0  0  0  0  0  0  0  0  0  0  0
   23.2842    0.7566   59.6361 O   0  0  0  0  0  0  0  0  0  0  0  0
   22.6476    5.0408   56.4672 O   0  0  0  0  0  0  0  0  0  0  0  0
   20.4133   -4.3188   49.4612 C   0  0  1  0  0  0  0  0  0  0  0  0
   20.5398   -5.5969   50.3653 C   0  0  1  0  0  0  0  0  0  0  0  0
   21.0283   -6.7999   49.4808 C   0  0  2  0  0  0  0  0  0  0  0  0
   20.0026   -7.0613   48.3675 C   0  0  1  0  0  0  0  0  0  0  0  0
   19.8872   -5.7820   47.4520 C   0  0  0  0  0  0  0  0  0  0  0  0
   19.4111   -4.5673   48.3420 C   0  0  2  0  0  0  0  0  0  0  0  0
   20.4566   -8.1876   47.5685 N   0  0  0  0  0  0  0  0  0  0  0  0
   19.3109   -3.3335   47.5187 N   0  0  0  0  0  0  0  0  0  0  0  0
   21.5111   -5.3533   51.4230 O   0  0  0  0  0  0  0  0  0  0  0  0
   21.1250   -7.9484   50.2808 O   0  0  0  0  0  0  0  0  0  0  0  0
  1  2  1  0  0  0  0
  1 12  1  1  0  0  0
  1 13  1  0  0  0  0
  2  3  1  0  0  0  0
  2 10  1  6  0  0  0
  4  3  1  6  0  0  0
  4  5  1  0  0  0  0
  4 14  1  0  0  0  0
  5  6  1  0  0  0  0
  5 13  1  6  0  0  0
  6  7  1  0  0  0  0
  6 15  1  6  0  0  0
  7  8  1  0  0  0  0
  7 11  1  1  0  0  0
  8 14  1  0  0  0  0
  8 16  1  1  0  0  0
  9 11  1  0  0  0  0
 17 16  1  1  0  0  0
 17 18  1  0  0  0  0
 17 24  1  0  0  0  0
 18 19  1  0  0  0  0
 18 25  1  1  0  0  0
 19 20  1  0  0  0  0
 19 26  1  1  0  0  0
 20 21  1  0  0  0  0
 20 23  1  1  0  0  0
 21 22  1  6  0  0  0
 21 24  1  0  0  0  0
 22 27  1  0  0  0  0
 28 12  1  1  0  0  0
 28 29  1  0  0  0  0
 28 33  1  0  0  0  0
 29 30  1  0  0  0  0
 29 36  1  1  0  0  0
 30 31  1  0  0  0  0
 30 37  1  1  0  0  0
 31 32  1  0  0  0  0
 31 34  1  6  0  0  0
 32 33  1  0  0  0  0
 33 35  1  6  0  0  0
M  END
>  <CHROM.1>
-65.47213993,-68.26811548,-178.10759213,-173.17371127,-64.53685108,146.86622351
21.26752475,-1.27038275,52.97413973,1.92682359,1.04632434,-2.63771102

>  <Name>
2oe5_lig

>  <RI>
0

>  <Rbt.Current_Directory>
/home/itssahil/PROJECTS/Mol_Feturizer/New_Systems/rnas/2oe5

>  <Rbt.Executable>
rbdock ($Id: //depot/dev/client3/rdock/2013.1/src/exe/rbdock.cxx#4 $)

>  <Rbt.Library>
libRbt.so (2013.1, Build901 2013/11/27)

>  <Rbt.Parameter_File>
/export/apps/rDock/src/rDock_2013.1_src/data/scripts/dock_solv.prm

>  <Rbt.Receptor>
prm/pocket_docking_6.prm

>  <SCORE>
-13.046

>  <SCORE.INTER>
-10.9422

>  <SCORE.INTER.CONST>
1

>  <SCORE.INTER.POLAR>
-1.01863

>  <SCORE.INTER.ROT>
6

>  <SCORE.INTER.SOLV>
9.31639

>  <SCORE.INTER.VDW>
-14.6048

>  <SCORE.INTER.norm>
-0.295734

>  <SCORE.INTRA>
-2.10384

>  <SCORE.INTRA.DIHEDRAL>
-11.4018

>  <SCORE.INTRA.DIHEDRAL.0>
16.2083

>  <SCORE.INTRA.POLAR>
0

>  <SCORE.INTRA.POLAR.0>
0

>  <SCORE.INTRA.REPUL>
0

>  <SCORE.INTRA.REPUL.0>
0

>  <SCORE.INTRA.SOLV>
2.52923

>  <SCORE.INTRA.SOLV.lig_0>
-89.8095

>  <SCORE.INTRA.VDW>
2.33246

>  <SCORE.INTRA.VDW.0>
-3.19502

>  <SCORE.INTRA.norm>
-0.0568605

>  <SCORE.RESTR>
0

>  <SCORE.RESTR.CAVITY>
0

>  <SCORE.RESTR.norm>
0

>  <SCORE.SYSTEM>
0

>  <SCORE.SYSTEM.CONST>
0

>  <SCORE.SYSTEM.DIHEDRAL>
0

>  <SCORE.SYSTEM.SOLV>
0

>  <SCORE.SYSTEM.norm>
0

>  <SCORE.heavy>
37

>  <SCORE.norm>
-0.352595

>  <RMSD>
9.841

$$$$
2oe5_lig
 OpenBabel11021811463D
libRbt.so/2013.1/901 2013/11/27
 37 40  0  0  0  0  0  0  0  0999 V2000
   19.7669   -2.4404   49.7007 C   0  0  1  0  0  0  0  0  0  0  0  0
   20.9120   -3.1394   50.4672 C   0  0  1  0  0  0  0  0  0  0  0  0
   20.6398   -3.0372   52.0140 C   0  0  0  0  0  0  0  0  0  0  0  0
   20.5711   -1.5236   52.3170 C   0  0  1  0  0  0  0  0  0  0  0  0
   19.3891   -0.8190   51.5153 C   0  0  1  0  0  0  0  0  0  0  0  0
   19.2978    0.7028   51.8115 C   0  0  1  0  0  0  0  0  0  0  0  0
   19.0660    0.8512   53.3422 C   0  0  1  0  0  0  0  0  0  0  0  0
   20.2308    0.1036   54.0954 C   0  0  2  0  0  0  0  0  0  0  0  0
   18.5099    2.7294   55.0817 C   0  0  0  0  0  0  0  0  0  0  0  0
   20.9882   -4.5650   50.0731 N   0  0  0  0  0  0  0  0  0  0  0  0
   19.0156    2.3118   53.7275 N   0  0  0  0  0  0  0  0  0  0  0  0
   18.5008   -3.0828   49.9227 O   0  0  0  0  0  0  0  0  0  0  0  0
   19.6218   -1.0282   50.0848 O   0  0  0  0  0  0  0  0  0  0  0  0
   20.3236   -1.3244   53.7347 O   0  0  0  0  0  0  0  0  0  0  0  0
   20.5284    1.3066   51.4000 O   0  0  0  0  0  0  0  0  0  0  0  0
   20.0196    0.1630   55.4922 O   0  0  0  0  0  0  0  0  0  0  0  0
   21.1462   -0.3492   56.1789 C   0  0  2  0  0  0  0  0  0  0  0  0
   21.0275   -0.1841   57.6935 C   0  0  1  0  0  0  0  0  0  0  0  0
   20.9985    1.3166   58.0937 C   0  0  2  0  0  0  0  0  0  0  0  0
   22.2953    1.9756   57.5369 C   0  0  1  0  0  0  0  0  0  0  0  0
   22.3046    1.7967   55.9832 C   0  0  1  0  0  0  0  0  0  0  0  0
   23.5519    2.3568   55.3366 C   0  0  0  0  0  0  0  0  0  0  0  0
   22.2782    3.4364   57.9237 N   0  0  0  0  0  0  0  0  0  0  0  0
   22.3324    0.3572   55.6976 O   0  0  0  0  0  0  0  0  0  0  0  0
   19.8177   -0.8489   58.1084 O   0  0  0  0  0  0  0  0  0  0  0  0
   20.9966    1.3950   59.5307 O   0  0  0  0  0  0  0  0  0  0  0  0
   23.6438    3.7319   55.4894 O   0  0  0  0  0  0  0  0  0  0  0  0
   18.2588   -4.2064   49.0755 C   0  0  1  0  0  0  0  0  0  0  0  0
   17.4809   -5.3158   49.8698 C   0  0  1  0  0  0  0  0  0  0  0  0
   17.2150   -6.5343   48.9142 C   0  0  2  0  0  0  0  0  0  0  0  0
   16.3653   -6.0690   47.7221 C   0  0  1  0  0  0  0  0  0  0  0  0
   17.1538   -4.9651   46.9172 C   0  0  0  0  0  0  0  0  0  0  0  0
   17.4361   -3.7453   47.8800 C   0  0  2  0  0  0  0  0  0  0  0  0
   16.1107   -7.2085   46.8562 N   0  0  0  0  0  0  0  0  0  0  0  0
   18.1990   -2.6895   47.1637 N   0  0  0  0  0  0  0  0  0  0  0  0
   18.2827   -5.7597   51.0018 O   0  0  0  0  0  0  0  0  0  0  0  0
   16.5039   -7.5203   49.6146 O   0  0  0  0  0  0  0  0  0  0  0  0
  1  2  1  0  0  0  0
  1 12  1  1  0  0  0
  1 13  1  0  0  0  0
  2  3  1  0  0  0  0
  2 10  1  6  0  0  0
  4  3  1  1  0  0  0
  4  5  1  0  0  0  0
  4 14  1  0  0  0  0
  5  6  1  0  0  0  0
  5 13  1  6  0  0  0
  6  7  1  0  0  0  0
  6 15  1  1  0  0  0
  7  8  1  0  0  0  0
  7 11  1  1  0  0  0
  8 14  1  0  0  0  0
  8 16  1  1  0  0  0
  9 11  1  0  0  0  0
 17 16  1  6  0  0  0
 17 18  1  0  0  0  0
 17 24  1  0  0  0  0
 18 19  1  0  0  0  0
 18 25  1  6  0  0  0
 19 20  1  0  0  0  0
 19 26  1  1  0  0  0
 20 21  1  0  0  0  0
 20 23  1  6  0  0  0
 21 22  1  1  0  0  0
 21 24  1  0  0  0  0
 22 27  1  0  0  0  0
 28 12  1  1  0  0  0
 28 29  1  0  0  0  0
 28 33  1  0  0  0  0
 29 30  1  0  0  0  0
 29 36  1  1  0  0  0
 30 31  1  0  0  0  0
 30 37  1  1  0  0  0
 31 32  1  0  0  0  0
 31 34  1  6  0  0  0
 32 33  1  0  0  0  0
 33 35  1  6  0  0  0
M  END
>  <CHROM.1>
-83.94852251,166.66233381,-172.29446086,174.45367245,-64.52974842,143.65977779
19.76482481,-1.37481712,52.68330211,-2.62514273,1.16839047,1.88525804

>  <Name>
2oe5_lig

>  <RI>
0

>  <Rbt.Current_Directory>
/home/itssahil/PROJECTS/Mol_Feturizer/New_Systems/rnas/2oe5

>  <Rbt.Executable>
rbdock ($Id: //depot/dev/client3/rdock/2013.1/src/exe/rbdock.cxx#4 $)

>  <Rbt.Library>
libRbt.so (2013.1, Build901 2013/11/27)

>  <Rbt.Parameter_File>
/export/apps/rDock/src/rDock_2013.1_src/data/scripts/dock_solv.prm

>  <Rbt.Receptor>
prm/pocket_docking_5.prm

>  <SCORE>
-22.6051

>  <SCORE.INTER>
-19.7546

>  <SCORE.INTER.CONST>
1

>  <SCORE.INTER.POLAR>
-1.94418

>  <SCORE.INTER.ROT>
6

>  <SCORE.INTER.SOLV>
15.4412

>  <SCORE.INTER.VDW>
-19.4362

>  <SCORE.INTER.norm>
-0.533907

>  <SCORE.INTRA>
-2.85057

>  <SCORE.INTRA.DIHEDRAL>
-8.23727

>  <SCORE.INTRA.DIHEDRAL.0>
16.2083

>  <SCORE.INTRA.POLAR>
0

>  <SCORE.INTRA.POLAR.0>
0

>  <SCORE.INTRA.REPUL>
0

>  <SCORE.INTRA.REPUL.0>
0

>  <SCORE.INTRA.SOLV>
1.22447

>  <SCORE.INTRA.SOLV.lig_0>
-89.8095

>  <SCORE.INTRA.VDW>
0.655828

>  <SCORE.INTRA.VDW.0>
-3.19502

>  <SCORE.INTRA.norm>
-0.0770425

>  <SCORE.RESTR>
0

>  <SCORE.RESTR.CAVITY>
0

>  <SCORE.RESTR.norm>
0

>  <SCORE.SYSTEM>
0

>  <SCORE.SYSTEM.CONST>
0

>  <SCORE.SYSTEM.DIHEDRAL>
0

>  <SCORE.SYSTEM.SOLV>
0

>  <SCORE.SYSTEM.norm>
0

>  <SCORE.heavy>
37

>  <SCORE.norm>
-0.61095

>  <RMSD>
9.843

$$$$
2oe5_lig
 OpenBabel11021811463D
libRbt.so/2013.1/901 2013/11/27
 37 40  0  0  0  0  0  0  0  0999 V2000
   22.4755   -3.1388   50.1498 C   0  0  1  0  0  0  0  0  0  0  0  0
   23.8917   -3.3209   50.7402 C   0  0  1  0  0  0  0  0  0  0  0  0
   23.9000   -2.8225   52.2331 C   0  0  0  0  0  0  0  0  0  0  0  0
   23.4788   -1.3373   52.1697 C   0  0  1  0  0  0  0  0  0  0  0  0
   22.0196   -1.1682   51.5545 C   0  0  1  0  0  0  0  0  0  0  0  0
   21.5735    0.3180   51.4885 C   0  0  1  0  0  0  0  0  0  0  0  0
   21.6042    0.8630   52.9448 C   0  0  1  0  0  0  0  0  0  0  0  0
   23.0498    0.6359   53.5295 C   0  0  2  0  0  0  0  0  0  0  0  0
   19.8061    2.7505   53.2035 C   0  0  0  0  0  0  0  0  0  0  0  0
   24.2787   -4.7497   50.6953 N   0  0  0  0  0  0  0  0  0  0  0  0
   21.2304    2.3274   52.9665 N   0  0  0  0  0  0  0  0  0  0  0  0
   21.4992   -3.9371   50.8386 O   0  0  0  0  0  0  0  0  0  0  0  0
   22.0253   -1.7399   50.2064 O   0  0  0  0  0  0  0  0  0  0  0  0
   23.4594   -0.7818   53.5120 O   0  0  0  0  0  0  0  0  0  0  0  0
   22.4910    1.0164   50.6409 O   0  0  0  0  0  0  0  0  0  0  0  0
   23.0989    1.0626   54.8766 O   0  0  0  0  0  0  0  0  0  0  0  0
   24.4049    0.8939   55.3952 C   0  0  2  0  0  0  0  0  0  0  0  0
   24.4485    1.0357   56.9162 C   0  0  1  0  0  0  0  0  0  0  0  0
   24.0558    2.4725   57.3572 C   0  0  2  0  0  0  0  0  0  0  0  0
   25.0308    3.4621   56.6529 C   0  0  1  0  0  0  0  0  0  0  0  0
   24.8818    3.2761   55.1071 C   0  0  1  0  0  0  0  0  0  0  0  0
   25.8252    4.1560   54.3177 C   0  0  0  0  0  0  0  0  0  0  0  0
   24.6587    4.8639   57.0779 N   0  0  0  0  0  0  0  0  0  0  0  0
   25.2716    1.8989   54.7815 O   0  0  0  0  0  0  0  0  0  0  0  0
   23.5390    0.0633   57.4683 O   0  0  0  0  0  0  0  0  0  0  0  0
   24.2242    2.5629   58.7835 O   0  0  0  0  0  0  0  0  0  0  0  0
   25.2289    5.3493   53.9394 O   0  0  0  0  0  0  0  0  0  0  0  0
   20.3267   -4.2163   50.0730 C   0  0  1  0  0  0  0  0  0  0  0  0
   20.6945   -5.1248   48.8458 C   0  0  1  0  0  0  0  0  0  0  0  0
   19.3881   -5.4287   48.0276 C   0  0  2  0  0  0  0  0  0  0  0  0
   18.3855   -6.1670   48.9273 C   0  0  1  0  0  0  0  0  0  0  0  0
   18.0062   -5.2476   50.1517 C   0  0  0  0  0  0  0  0  0  0  0  0
   19.3204   -4.9278   50.9672 C   0  0  2  0  0  0  0  0  0  0  0  0
   17.1899   -6.4587   48.1538 N   0  0  0  0  0  0  0  0  0  0  0  0
   19.0085   -4.0430   52.1204 N   0  0  0  0  0  0  0  0  0  0  0  0
   21.6458   -4.4289   47.9900 O   0  0  0  0  0  0  0  0  0  0  0  0
   19.7092   -6.2554   46.9405 O   0  0  0  0  0  0  0  0  0  0  0  0
  1  2  1  0  0  0  0
  1 12  1  1  0  0  0
  1 13  1  0  0  0  0
  2  3  1  0  0  0  0
  2 10  1  1  0  0  0
  4  3  1  1  0  0  0
  4  5  1  0  0  0  0
  4 14  1  0  0  0  0
  5  6  1  0  0  0  0
  5 13  1  6  0  0  0
  6  7  1  0  0  0  0
  6 15  1  6  0  0  0
  7  8  1  0  0  0  0
  7 11  1  6  0  0  0
  8 14  1  0  0  0  0
  8 16  1  1  0  0  0
  9 11  1  0  0  0  0
 17 16  1  6  0  0  0
 17 18  1  0  0  0  0
 17 24  1  0  0  0  0
 18 19  1  0  0  0  0
 18 25  1  1  0  0  0
 19 20  1  0  0  0  0
 19 26  1  1  0  0  0
 20 21  1  0  0  0  0
 20 23  1  6  0  0  0
 21 22  1  6  0  0  0
 21 24  1  0  0  0  0
 22 27  1  0  0  0  0
 28 12  1  1  0  0  0
 28 29  1  0  0  0  0
 28 33  1  0  0  0  0
 29 30  1  0  0  0  0
 29 36  1  6  0  0  0
 30 31  1  0  0  0  0
 30 37  1  6  0  0  0
 31 32  1  0  0  0  0
 31 34  1  6  0  0  0
 32 33  1  0  0  0  0
 33 35  1  1  0  0  0
M  END
>  <CHROM.1>
-157.43612485,93.56899637,-178.43008653,-167.05622848,-94.23299254,65.82364793
22.32216897,-0.94235673,52.49368964,-2.20230119,0.84463845,1.20404214

>  <Name>
2oe5_lig

>  <RI>
0

>  <Rbt.Current_Directory>
/home/itssahil/PROJECTS/Mol_Feturizer/New_Systems/rnas/2oe5

>  <Rbt.Executable>
rbdock ($Id: //depot/dev/client3/rdock/2013.1/src/exe/rbdock.cxx#4 $)

>  <Rbt.Library>
libRbt.so (2013.1, Build901 2013/11/27)

>  <Rbt.Parameter_File>
/export/apps/rDock/src/rDock_2013.1_src/data/scripts/dock_solv.prm

>  <Rbt.Receptor>
prm/pocket_docking_8.prm

>  <SCORE>
-12.7564

>  <SCORE.INTER>
-8.94517

>  <SCORE.INTER.CONST>
1

>  <SCORE.INTER.POLAR>
-1.0583

>  <SCORE.INTER.ROT>
6

>  <SCORE.INTER.SOLV>
11.803

>  <SCORE.INTER.VDW>
-13.9701

>  <SCORE.INTER.norm>
-0.241761

>  <SCORE.INTRA>
-3.81127

>  <SCORE.INTRA.DIHEDRAL>
-9.00744

>  <SCORE.INTRA.DIHEDRAL.0>
16.2083

>  <SCORE.INTRA.POLAR>
0

>  <SCORE.INTRA.POLAR.0>
0

>  <SCORE.INTRA.REPUL>
0

>  <SCORE.INTRA.REPUL.0>
0

>  <SCORE.INTRA.SOLV>
-1.97253

>  <SCORE.INTRA.SOLV.lig_0>
-89.8095

>  <SCORE.INTRA.VDW>
1.67872

>  <SCORE.INTRA.VDW.0>
-3.19502

>  <SCORE.INTRA.norm>
-0.103007

>  <SCORE.RESTR>
0

>  <SCORE.RESTR.CAVITY>
0

>  <SCORE.RESTR.norm>
0

>  <SCORE.SYSTEM>
0

>  <SCORE.SYSTEM.CONST>
0

>  <SCORE.SYSTEM.DIHEDRAL>
0

>  <SCORE.SYSTEM.SOLV>
0

>  <SCORE.SYSTEM.norm>
0

>  <SCORE.heavy>
37

>  <SCORE.norm>
-0.344769

>  <RMSD>
9.843

$$$$
2oe5_lig
 OpenBabel11021811463D
libRbt.so/2013.1/901 2013/11/27
 37 40  0  0  0  0  0  0  0  0999 V2000
   20.6567   -2.5525   49.1817 C   0  0  1  0  0  0  0  0  0  0  0  0
   21.7324   -3.3103   49.9916 C   0  0  1  0  0  0  0  0  0  0  0  0
   21.4823   -3.0817   51.5286 C   0  0  0  0  0  0  0  0  0  0  0  0
   21.5656   -1.5524   51.7324 C   0  0  1  0  0  0  0  0  0  0  0  0
   20.4535   -0.7876   50.8871 C   0  0  1  0  0  0  0  0  0  0  0  0
   20.5151    0.7518   51.0835 C   0  0  1  0  0  0  0  0  0  0  0  0
   20.3096    1.0212   52.6014 C   0  0  1  0  0  0  0  0  0  0  0  0
   21.4000    0.2123   53.4012 C   0  0  2  0  0  0  0  0  0  0  0  0
   19.2498    3.2378   53.5104 C   0  0  0  0  0  0  0  0  0  0  0  0
   21.6647   -4.7590   49.6912 N   0  0  0  0  0  0  0  0  0  0  0  0
   20.4065    2.5016   52.8908 N   0  0  0  0  0  0  0  0  0  0  0  0
   19.3349   -3.0506   49.4456 O   0  0  0  0  0  0  0  0  0  0  0  0
   20.6545   -1.1110   49.4731 O   0  0  0  0  0  0  0  0  0  0  0  0
   21.3487   -1.2382   53.1342 O   0  0  0  0  0  0  0  0  0  0  0  0
   21.7965    1.2028   50.6331 O   0  0  0  0  0  0  0  0  0  0  0  0
   21.2053    0.3826   54.7913 O   0  0  0  0  0  0  0  0  0  0  0  0
   22.4537    0.4565   55.4540 C   0  0  2  0  0  0  0  0  0  0  0  0
   22.6963   -0.7419   56.3707 C   0  0  1  0  0  0  0  0  0  0  0  0
   21.6619   -0.7807   57.5290 C   0  0  2  0  0  0  0  0  0  0  0  0
   21.7677    0.5698   58.2976 C   0  0  1  0  0  0  0  0  0  0  0  0
   21.4598    1.7280   57.2926 C   0  0  1  0  0  0  0  0  0  0  0  0
   21.5851    3.0978   57.9215 C   0  0  0  0  0  0  0  0  0  0  0  0
   20.7666    0.5410   59.4294 N   0  0  0  0  0  0  0  0  0  0  0  0
   22.4803    1.6902   56.2383 O   0  0  0  0  0  0  0  0  0  0  0  0
   22.6053   -1.9316   55.5618 O   0  0  0  0  0  0  0  0  0  0  0  0
   22.0163   -1.8643   58.4072 O   0  0  0  0  0  0  0  0  0  0  0  0
   21.2505    4.1096   57.0343 O   0  0  0  0  0  0  0  0  0  0  0  0
   18.9505   -4.1529   48.6236 C   0  0  1  0  0  0  0  0  0  0  0  0
   17.8778   -5.0255   49.3684 C   0  0  1  0  0  0  0  0  0  0  0  0
   17.4615   -6.2227   48.4400 C   0  0  2  0  0  0  0  0  0  0  0  0
   16.8577   -5.6710   47.1397 C   0  0  1  0  0  0  0  0  0  0  0  0
   17.9407   -4.8067   46.3858 C   0  0  0  0  0  0  0  0  0  0  0  0
   18.3724   -3.6112   47.3232 C   0  0  2  0  0  0  0  0  0  0  0  0
   16.4598   -6.7876   46.2984 N   0  0  0  0  0  0  0  0  0  0  0  0
   19.4112   -2.7828   46.6564 N   0  0  0  0  0  0  0  0  0  0  0  0
   18.4459   -5.5504   50.6026 O   0  0  0  0  0  0  0  0  0  0  0  0
   16.4896   -6.9945   49.0942 O   0  0  0  0  0  0  0  0  0  0  0  0
  1  2  1  0  0  0  0
  1 12  1  1  0  0  0
  1 13  1  0  0  0  0
  2  3  1  0  0  0  0
  2 10  1  1  0  0  0
  4  3  1  1  0  0  0
  4  5  1  0  0  0  0
  4 14  1  0  0  0  0
  5  6  1  0  0  0  0
  5 13  1  6  0  0  0
  6  7  1  0  0  0  0
  6 15  1  1  0  0  0
  7  8  1  0  0  0  0
  7 11  1  6  0  0  0
  8 14  1  0  0  0  0
  8 16  1  1  0  0  0
  9 11  1  0  0  0  0
 17 16  1  1  0  0  0
 17 18  1  0  0  0  0
 17 24  1  0  0  0  0
 18 19  1  0  0  0  0
 18 25  1  6  0  0  0
 19 20  1  0  0  0  0
 19 26  1  1  0  0  0
 20 21  1  0  0  0  0
 20 23  1  1  0  0  0
 21 22  1  1  0  0  0
 21 24  1  0  0  0  0
 22 27  1  0  0  0  0
 28 12  1  1  0  0  0
 28 29  1  0  0  0  0
 28 33  1  0  0  0  0
 29 30  1  0  0  0  0
 29 36  1  1  0  0  0
 30 31  1  0  0  0  0
 30 37  1  1  0  0  0
 31 32  1  0  0  0  0
 31 34  1  6  0  0  0
 32 33  1  0  0  0  0
 33 35  1  6  0  0  0
M  END
>  <CHROM.1>
-87.10817483,120.62588204,-142.87418850,-113.21537766,-177.28611080,153.63449700
20.35738961,-1.51114868,52.30105801,-3.00785526,1.26232194,2.38573744

>  <Name>
2oe5_lig

>  <RI>
0

>  <Rbt.Current_Directory>
/home/itssahil/PROJECTS/Mol_Feturizer/New_Systems/rnas/2oe5

>  <Rbt.Executable>
rbdock ($Id: //depot/dev/client3/rdock/2013.1/src/exe/rbdock.cxx#4 $)

>  <Rbt.Library>
libRbt.so (2013.1, Build901 2013/11/27)

>  <Rbt.Parameter_File>
/export/apps/rDock/src/rDock_2013.1_src/data/scripts/dock_solv.prm

>  <Rbt.Receptor>
prm/pocket_docking_3.prm

>  <SCORE>
-7.85239

>  <SCORE.INTER>
-8.99507

>  <SCORE.INTER.CONST>
1

>  <SCORE.INTER.POLAR>
0

>  <SCORE.INTER.ROT>
6

>  <SCORE.INTER.SOLV>
10.3861

>  <SCORE.INTER.VDW>
-17.0587

>  <SCORE.INTER.norm>
-0.24311

>  <SCORE.INTRA>
1.14032

>  <SCORE.INTRA.DIHEDRAL>
2.88922

>  <SCORE.INTRA.DIHEDRAL.0>
16.2083

>  <SCORE.INTRA.POLAR>
0

>  <SCORE.INTRA.POLAR.0>
0

>  <SCORE.INTRA.REPUL>
0

>  <SCORE.INTRA.REPUL.0>
0

>  <SCORE.INTRA.SOLV>
0.362191

>  <SCORE.INTRA.SOLV.lig_0>
-89.8095

>  <SCORE.INTRA.VDW>
-0.485385

>  <SCORE.INTRA.VDW.0>
-3.19502

>  <SCORE.INTRA.norm>
0.0308194

>  <SCORE.RESTR>
0.00235738

>  <SCORE.RESTR.CAVITY>
0.00235738

>  <SCORE.RESTR.norm>
6.37128e-05

>  <SCORE.SYSTEM>
0

>  <SCORE.SYSTEM.CONST>
0

>  <SCORE.SYSTEM.DIHEDRAL>
0

>  <SCORE.SYSTEM.SOLV>
0

>  <SCORE.SYSTEM.norm>
0

>  <SCORE.heavy>
37

>  <SCORE.norm>
-0.212227

>  <RMSD>
9.844

$$$$
2oe5_lig
 OpenBabel11021811463D
libRbt.so/2013.1/901 2013/11/27
 37 40  0  0  0  0  0  0  0  0999 V2000
   20.8562   -3.4346   49.7837 C   0  0  1  0  0  0  0  0  0  0  0  0
   19.7059   -3.2724   50.8025 C   0  0  1  0  0  0  0  0  0  0  0  0
   19.5128   -1.7449   51.1292 C   0  0  0  0  0  0  0  0  0  0  0  0
   20.8700   -1.2749   51.6990 C   0  0  1  0  0  0  0  0  0  0  0  0
   22.0441   -1.4538   50.6379 C   0  0  1  0  0  0  0  0  0  0  0  0
   23.4168   -0.9801   51.1886 C   0  0  1  0  0  0  0  0  0  0  0  0
   23.2594    0.5217   51.5610 C   0  0  1  0  0  0  0  0  0  0  0  0
   22.0614    0.6585   52.5756 C   0  0  2  0  0  0  0  0  0  0  0  0
   24.8604    2.5231   52.1029 C   0  0  0  0  0  0  0  0  0  0  0  0
   18.4499   -3.8185   50.2387 N   0  0  0  0  0  0  0  0  0  0  0  0
   24.5428    1.0534   52.1567 N   0  0  0  0  0  0  0  0  0  0  0  0
   20.5585   -2.7968   48.5309 O   0  0  0  0  0  0  0  0  0  0  0  0
   22.1211   -2.8715   50.2794 O   0  0  0  0  0  0  0  0  0  0  0  0
   20.7908    0.1358   52.0367 O   0  0  0  0  0  0  0  0  0  0  0  0
   23.7329   -1.7803   52.3323 O   0  0  0  0  0  0  0  0  0  0  0  0
   21.8469    2.0205   52.8893 O   0  0  0  0  0  0  0  0  0  0  0  0
   20.9081    2.1373   53.9420 C   0  0  2  0  0  0  0  0  0  0  0  0
   20.5685    3.5933   54.2581 C   0  0  1  0  0  0  0  0  0  0  0  0
   21.8139    4.3586   54.7837 C   0  0  2  0  0  0  0  0  0  0  0  0
   22.3367    3.5981   56.0383 C   0  0  1  0  0  0  0  0  0  0  0  0
   22.7000    2.1390   55.6077 C   0  0  1  0  0  0  0  0  0  0  0  0
   23.1731    1.2875   56.7647 C   0  0  0  0  0  0  0  0  0  0  0  0
   23.5477    4.3368   56.5595 N   0  0  0  0  0  0  0  0  0  0  0  0
   21.4718    1.4941   55.1279 O   0  0  0  0  0  0  0  0  0  0  0  0
   20.0704    4.1950   53.0466 O   0  0  0  0  0  0  0  0  0  0  0  0
   21.3968    5.6830   55.1618 O   0  0  0  0  0  0  0  0  0  0  0  0
   22.2074    1.1706   57.7528 O   0  0  0  0  0  0  0  0  0  0  0  0
   19.7520   -3.5818   47.6523 C   0  0  1  0  0  0  0  0  0  0  0  0
   18.6042   -2.6964   47.0477 C   0  0  1  0  0  0  0  0  0  0  0  0
   17.7397   -3.5774   46.0757 C   0  0  2  0  0  0  0  0  0  0  0  0
   18.6303   -4.1043   44.9403 C   0  0  1  0  0  0  0  0  0  0  0  0
   19.7739   -5.0050   45.5478 C   0  0  0  0  0  0  0  0  0  0  0  0
   20.6352   -4.1255   46.5374 C   0  0  2  0  0  0  0  0  0  0  0  0
   17.8153   -4.9016   44.0385 N   0  0  0  0  0  0  0  0  0  0  0  0
   21.7134   -4.9454   47.1498 N   0  0  0  0  0  0  0  0  0  0  0  0
   17.7574   -2.1939   48.1211 O   0  0  0  0  0  0  0  0  0  0  0  0
   16.7242   -2.7855   45.5190 O   0  0  0  0  0  0  0  0  0  0  0  0
  1  2  1  0  0  0  0
  1 12  1  6  0  0  0
  1 13  1  0  0  0  0
  2  3  1  0  0  0  0
  2 10  1  6  0  0  0
  4  3  1  6  0  0  0
  4  5  1  0  0  0  0
  4 14  1  0  0  0  0
  5  6  1  0  0  0  0
  5 13  1  1  0  0  0
  6  7  1  0  0  0  0
  6 15  1  1  0  0  0
  7  8  1  0  0  0  0
  7 11  1  1  0  0  0
  8 14  1  0  0  0  0
  8 16  1  6  0  0  0
  9 11  1  0  0  0  0
 17 16  1  6  0  0  0
 17 18  1  0  0  0  0
 17 24  1  0  0  0  0
 18 19  1  0  0  0  0
 18 25  1  6  0  0  0
 19 20  1  0  0  0  0
 19 26  1  1  0  0  0
 20 21  1  0  0  0  0
 20 23  1  6  0  0  0
 21 22  1  1  0  0  0
 21 24  1  0  0  0  0
 22 27  1  0  0  0  0
 28 12  1  1  0  0  0
 28 29  1  0  0  0  0
 28 33  1  0  0  0  0
 29 30  1  0  0  0  0
 29 36  1  1  0  0  0
 30 31  1  0  0  0  0
 30 37  1  6  0  0  0
 31 32  1  0  0  0  0
 31 34  1  6  0  0  0
 32 33  1  0  0  0  0
 33 35  1  1  0  0  0
M  END
>  <CHROM.1>
-82.50585602,155.81093801,-171.49502940,-176.15029659,60.22999935,134.18266342
21.02669565,-0.51082369,51.16623279,-1.91287990,-0.51187574,0.72099934

>  <Name>
2oe5_lig

>  <RI>
0

>  <Rbt.Current_Directory>
/home/itssahil/PROJECTS/Mol_Feturizer/New_Systems/rnas/2oe5

>  <Rbt.Executable>
rbdock ($Id: //depot/dev/client3/rdock/2013.1/src/exe/rbdock.cxx#4 $)

>  <Rbt.Library>
libRbt.so (2013.1, Build901 2013/11/27)

>  <Rbt.Parameter_File>
/export/apps/rDock/src/rDock_2013.1_src/data/scripts/dock_solv.prm

>  <Rbt.Receptor>
prm/pocket_docking_7.prm

>  <SCORE>
-18.6483

>  <SCORE.INTER>
-15.8141

>  <SCORE.INTER.CONST>
1

>  <SCORE.INTER.POLAR>
-2.03508

>  <SCORE.INTER.ROT>
6

>  <SCORE.INTER.SOLV>
11.9328

>  <SCORE.INTER.VDW>
-15.3367

>  <SCORE.INTER.norm>
-0.427409

>  <SCORE.INTRA>
-2.83415

>  <SCORE.INTRA.DIHEDRAL>
-6.82418

>  <SCORE.INTRA.DIHEDRAL.0>
16.2083

>  <SCORE.INTRA.POLAR>
0

>  <SCORE.INTRA.POLAR.0>
0

>  <SCORE.INTRA.REPUL>
0

>  <SCORE.INTRA.REPUL.0>
0

>  <SCORE.INTRA.SOLV>
0.935717

>  <SCORE.INTRA.SOLV.lig_0>
-89.8095

>  <SCORE.INTRA.VDW>
0.110078

>  <SCORE.INTRA.VDW.0>
-3.19502

>  <SCORE.INTRA.norm>
-0.0765987

>  <SCORE.RESTR>
0

>  <SCORE.RESTR.CAVITY>
0

>  <SCORE.RESTR.norm>
0

>  <SCORE.SYSTEM>
0

>  <SCORE.SYSTEM.CONST>
0

>  <SCORE.SYSTEM.DIHEDRAL>
0

>  <SCORE.SYSTEM.SOLV>
0

>  <SCORE.SYSTEM.norm>
0

>  <SCORE.heavy>
37

>  <SCORE.norm>
-0.504008

>  <RMSD>
9.845

$$$$
2oe5_lig
 OpenBabel11021811463D
libRbt.so/2013.1/901 2013/11/27
 37 40  0  0  0  0  0  0  0  0999 V2000
   21.9566   -2.7847   49.8679 C   0  0  1  0  0  0  0  0  0  0  0  0
   23.1572   -2.8533   50.8380 C   0  0  1  0  0  0  0  0  0  0  0  0
   22.6268   -2.8816   52.3196 C   0  0  0  0  0  0  0  0  0  0  0  0
   21.8131   -1.5787   52.4866 C   0  0  1  0  0  0  0  0  0  0  0  0
   20.5834   -1.5229   51.4761 C   0  0  1  0  0  0  0  0  0  0  0  0
   19.7472   -0.2235   51.6326 C   0  0  1  0  0  0  0  0  0  0  0  0
   19.2330   -0.1921   53.1000 C   0  0  1  0  0  0  0  0  0  0  0  0
   20.4755   -0.2943   54.0637 C   0  0  2  0  0  0  0  0  0  0  0  0
   19.1381    2.4091   53.3957 C   0  0  0  0  0  0  0  0  0  0  0  0
   23.9509   -4.0757   50.5751 N   0  0  0  0  0  0  0  0  0  0  0  0
   18.4468    1.0734   53.3550 N   0  0  0  0  0  0  0  0  0  0  0  0
   21.1191   -3.9483   49.9659 O   0  0  0  0  0  0  0  0  0  0  0  0
   21.1108   -1.6067   50.1127 O   0  0  0  0  0  0  0  0  0  0  0  0
   21.2794   -1.5108   53.8361 O   0  0  0  0  0  0  0  0  0  0  0  0
   20.6020    0.8880   51.3458 O   0  0  0  0  0  0  0  0  0  0  0  0
   20.0419   -0.3325   55.4090 O   0  0  0  0  0  0  0  0  0  0  0  0
   20.9315    0.4009   56.2299 C   0  0  2  0  0  0  0  0  0  0  0  0
   21.1058   -0.2339   57.6091 C   0  0  1  0  0  0  0  0  0  0  0  0
   19.7714   -0.2234   58.4043 C   0  0  2  0  0  0  0  0  0  0  0  0
   19.2951    1.2563   58.5015 C   0  0  1  0  0  0  0  0  0  0  0  0
   19.1009    1.8023   57.0487 C   0  0  1  0  0  0  0  0  0  0  0  0
   18.6864    3.2566   57.0202 C   0  0  0  0  0  0  0  0  0  0  0  0
   17.9978    1.2778   59.2765 N   0  0  0  0  0  0  0  0  0  0  0  0
   20.4040    1.7569   56.3747 O   0  0  0  0  0  0  0  0  0  0  0  0
   21.5732   -1.5827   57.4093 O   0  0  0  0  0  0  0  0  0  0  0  0
   20.0349   -0.7327   59.7242 O   0  0  0  0  0  0  0  0  0  0  0  0
   17.4593    3.4593   57.6332 O   0  0  0  0  0  0  0  0  0  0  0  0
   20.4269   -4.2737   48.7602 C   0  0  1  0  0  0  0  0  0  0  0  0
   19.3394   -3.1815   48.4579 C   0  0  1  0  0  0  0  0  0  0  0  0
   18.6016   -3.5539   47.1217 C   0  0  2  0  0  0  0  0  0  0  0  0
   19.6203   -3.5922   45.9725 C   0  0  1  0  0  0  0  0  0  0  0  0
   20.7036   -4.6993   46.2708 C   0  0  0  0  0  0  0  0  0  0  0  0
   21.4363   -4.3356   47.6218 C   0  0  2  0  0  0  0  0  0  0  0  0
   18.9225   -3.9190   44.7399 N   0  0  0  0  0  0  0  0  0  0  0  0
   22.4528   -5.3691   47.9510 N   0  0  0  0  0  0  0  0  0  0  0  0
   18.3714   -3.1411   49.5455 O   0  0  0  0  0  0  0  0  0  0  0  0
   17.6416   -2.5708   46.8380 O   0  0  0  0  0  0  0  0  0  0  0  0
  1  2  1  0  0  0  0
  1 12  1  1  0  0  0
  1 13  1  0  0  0  0
  2  3  1  0  0  0  0
  2 10  1  6  0  0  0
  4  3  1  1  0  0  0
  4  5  1  0  0  0  0
  4 14  1  0  0  0  0
  5  6  1  0  0  0  0
  5 13  1  6  0  0  0
  6  7  1  0  0  0  0
  6 15  1  1  0  0  0
  7  8  1  0  0  0  0
  7 11  1  1  0  0  0
  8 14  1  0  0  0  0
  8 16  1  1  0  0  0
  9 11  1  0  0  0  0
 17 16  1  6  0  0  0
 17 18  1  0  0  0  0
 17 24  1  0  0  0  0
 18 19  1  0  0  0  0
 18 25  1  6  0  0  0
 19 20  1  0  0  0  0
 19 26  1  1  0  0  0
 20 21  1  0  0  0  0
 20 23  1  1  0  0  0
 21 22  1  1  0  0  0
 21 24  1  0  0  0  0
 22 27  1  0  0  0  0
 28 12  1  1  0  0  0
 28 29  1  0  0  0  0
 28 33  1  0  0  0  0
 29 30  1  0  0  0  0
 29 36  1  1  0  0  0
 30 31  1  0  0  0  0
 30 37  1  6  0  0  0
 31 32  1  0  0  0  0
 31 34  1  6  0  0  0
 32 33  1  0  0  0  0
 33 35  1  1  0  0  0
M  END
>  <CHROM.1>
-151.50661220,-69.26995421,-142.39340427,-144.15397882,-62.48507542,-68.69168892
20.22918533,-1.25517969,52.54296878,-1.46664829,-0.70164672,1.17939530

>  <Name>
2oe5_lig

>  <RI>
0

>  <Rbt.Current_Directory>
/home/itssahil/PROJECTS/Mol_Feturizer/New_Systems/rnas/2oe5

>  <Rbt.Executable>
rbdock ($Id: //depot/dev/client3/rdock/2013.1/src/exe/rbdock.cxx#4 $)

>  <Rbt.Library>
libRbt.so (2013.1, Build901 2013/11/27)

>  <Rbt.Parameter_File>
/export/apps/rDock/src/rDock_2013.1_src/data/scripts/dock_solv.prm

>  <Rbt.Receptor>
prm/pocket_docking_5.prm

>  <SCORE>
-13.6496

>  <SCORE.INTER>
-14.4859

>  <SCORE.INTER.CONST>
1

>  <SCORE.INTER.POLAR>
-0.9726

>  <SCORE.INTER.ROT>
6

>  <SCORE.INTER.SOLV>
13.5043

>  <SCORE.INTER.VDW>
-18.5167

>  <SCORE.INTER.norm>
-0.39151

>  <SCORE.INTRA>
0.836255

>  <SCORE.INTRA.DIHEDRAL>
-2.741

>  <SCORE.INTRA.DIHEDRAL.0>
16.2083

>  <SCORE.INTRA.POLAR>
0

>  <SCORE.INTRA.POLAR.0>
0

>  <SCORE.INTRA.REPUL>
0

>  <SCORE.INTRA.REPUL.0>
0

>  <SCORE.INTRA.SOLV>
1.43185

>  <SCORE.INTRA.SOLV.lig_0>
-89.8095

>  <SCORE.INTRA.VDW>
1.49083

>  <SCORE.INTRA.VDW.0>
-3.19502

>  <SCORE.INTRA.norm>
0.0226015

>  <SCORE.RESTR>
0

>  <SCORE.RESTR.CAVITY>
0

>  <SCORE.RESTR.norm>
0

>  <SCORE.SYSTEM>
0

>  <SCORE.SYSTEM.CONST>
0

>  <SCORE.SYSTEM.DIHEDRAL>
0

>  <SCORE.SYSTEM.SOLV>
0

>  <SCORE.SYSTEM.norm>
0

>  <SCORE.heavy>
37

>  <SCORE.norm>
-0.368908

>  <RMSD>
9.850

$$$$
2oe5_lig
 OpenBabel11021811463D
libRbt.so/2013.1/901 2013/11/27
 37 40  0  0  0  0  0  0  0  0999 V2000
   19.7380   -2.3926   49.7612 C   0  0  1  0  0  0  0  0  0  0  0  0
   20.9352   -3.0321   50.4995 C   0  0  1  0  0  0  0  0  0  0  0  0
   20.6845   -2.9642   52.0518 C   0  0  0  0  0  0  0  0  0  0  0  0
   20.5328   -1.4609   52.3751 C   0  0  1  0  0  0  0  0  0  0  0  0
   19.2979   -0.8175   51.6023 C   0  0  1  0  0  0  0  0  0  0  0  0
   19.1231    0.6929   51.9193 C   0  0  1  0  0  0  0  0  0  0  0  0
   18.9097    0.8095   53.4554 C   0  0  1  0  0  0  0  0  0  0  0  0
   20.1292    0.1227   54.1795 C   0  0  2  0  0  0  0  0  0  0  0  0
   19.9261    3.2153   53.6602 C   0  0  0  0  0  0  0  0  0  0  0  0
   21.0876   -4.4462   50.0862 N   0  0  0  0  0  0  0  0  0  0  0  0
   18.7809    2.2601   53.8600 N   0  0  0  0  0  0  0  0  0  0  0  0
   18.5157   -3.1106   49.9962 O   0  0  0  0  0  0  0  0  0  0  0  0
   19.5175   -0.9959   50.1656 O   0  0  0  0  0  0  0  0  0  0  0  0
   20.2988   -1.2931   53.7991 O   0  0  0  0  0  0  0  0  0  0  0  0
   20.3090    1.3725   51.4949 O   0  0  0  0  0  0  0  0  0  0  0  0
   19.9392    0.1533   55.5803 O   0  0  0  0  0  0  0  0  0  0  0  0
   21.1009   -0.3124   56.2411 C   0  0  2  0  0  0  0  0  0  0  0  0
   21.0068   -0.1585   57.7586 C   0  0  1  0  0  0  0  0  0  0  0  0
   20.9214    1.3380   58.1665 C   0  0  2  0  0  0  0  0  0  0  0  0
   22.1767    2.0546   57.5863 C   0  0  1  0  0  0  0  0  0  0  0  0
   22.1614    1.8823   56.0318 C   0  0  1  0  0  0  0  0  0  0  0  0
   23.3696    2.4984   55.3624 C   0  0  0  0  0  0  0  0  0  0  0  0
   22.1046    3.5118   57.9803 N   0  0  0  0  0  0  0  0  0  0  0  0
   22.2453    0.4465   55.7388 O   0  0  0  0  0  0  0  0  0  0  0  0
   19.8357   -0.8766   58.1952 O   0  0  0  0  0  0  0  0  0  0  0  0
   20.9460    1.4106   59.6036 O   0  0  0  0  0  0  0  0  0  0  0  0
   23.3888    3.8787   55.4931 O   0  0  0  0  0  0  0  0  0  0  0  0
   18.2989   -4.2038   49.1036 C   0  0  1  0  0  0  0  0  0  0  0  0
   17.5026   -5.3417   49.8370 C   0  0  1  0  0  0  0  0  0  0  0  0
   17.2652   -6.5259   48.8321 C   0  0  2  0  0  0  0  0  0  0  0  0
   16.4465   -6.0198   47.6349 C   0  0  1  0  0  0  0  0  0  0  0  0
   17.2537   -4.8870   46.8910 C   0  0  0  0  0  0  0  0  0  0  0  0
   17.5073   -3.7017   47.9035 C   0  0  2  0  0  0  0  0  0  0  0  0
   16.2178   -7.1283   46.7228 N   0  0  0  0  0  0  0  0  0  0  0  0
   18.2867   -2.6201   47.2458 N   0  0  0  0  0  0  0  0  0  0  0  0
   18.2751   -5.8244   50.9736 O   0  0  0  0  0  0  0  0  0  0  0  0
   16.5379   -7.5371   49.4779 O   0  0  0  0  0  0  0  0  0  0  0  0
  1  2  1  0  0  0  0
  1 12  1  1  0  0  0
  1 13  1  0  0  0  0
  2  3  1  0  0  0  0
  2 10  1  6  0  0  0
  4  3  1  1  0  0  0
  4  5  1  0  0  0  0
  4 14  1  0  0  0  0
  5  6  1  0  0  0  0
  5 13  1  6  0  0  0
  6  7  1  0  0  0  0
  6 15  1  1  0  0  0
  7  8  1  0  0  0  0
  7 11  1  1  0  0  0
  8 14  1  0  0  0  0
  8 16  1  1  0  0  0
  9 11  1  0  0  0  0
 17 16  1  6  0  0  0
 17 18  1  0  0  0  0
 17 24  1  0  0  0  0
 18 19  1  0  0  0  0
 18 25  1  6  0  0  0
 19 20  1  0  0  0  0
 19 26  1  1  0  0  0
 20 21  1  0  0  0  0
 20 23  1  6  0  0  0
 21 22  1  6  0  0  0
 21 24  1  0  0  0  0
 22 27  1  0  0  0  0
 28 12  1  1  0  0  0
 28 29  1  0  0  0  0
 28 33  1  0  0  0  0
 29 30  1  0  0  0  0
 29 36  1  1  0  0  0
 30 31  1  0  0  0  0
 30 37  1  1  0  0  0
 31 32  1  0  0  0  0
 31 34  1  6  0  0  0
 32 33  1  0  0  0  0
 33 35  1  6  0  0  0
M  END
>  <CHROM.1>
-86.35723955,-63.10042661,-172.86569124,173.79808523,-65.93154262,148.36044131
19.76052832,-1.32536486,52.67818713,-2.72239503,1.19751644,1.98945061

>  <Name>
2oe5_lig

>  <RI>
0

>  <Rbt.Current_Directory>
/home/itssahil/PROJECTS/Mol_Feturizer/New_Systems/rnas/2oe5

>  <Rbt.Executable>
rbdock ($Id: //depot/dev/client3/rdock/2013.1/src/exe/rbdock.cxx#4 $)

>  <Rbt.Library>
libRbt.so (2013.1, Build901 2013/11/27)

>  <Rbt.Parameter_File>
/export/apps/rDock/src/rDock_2013.1_src/data/scripts/dock_solv.prm

>  <Rbt.Receptor>
prm/pocket_docking_8.prm

>  <SCORE>
-22.2823

>  <SCORE.INTER>
-20.359

>  <SCORE.INTER.CONST>
1

>  <SCORE.INTER.POLAR>
-1.90849

>  <SCORE.INTER.ROT>
6

>  <SCORE.INTER.SOLV>
15.7396

>  <SCORE.INTER.VDW>
-20.0576

>  <SCORE.INTER.norm>
-0.550244

>  <SCORE.INTRA>
-1.92329

>  <SCORE.INTRA.DIHEDRAL>
-8.75053

>  <SCORE.INTRA.DIHEDRAL.0>
16.2083

>  <SCORE.INTRA.POLAR>
0

>  <SCORE.INTRA.POLAR.0>
0

>  <SCORE.INTRA.REPUL>
0

>  <SCORE.INTRA.REPUL.0>
0

>  <SCORE.INTRA.SOLV>
1.35756

>  <SCORE.INTRA.SOLV.lig_0>
-89.8095

>  <SCORE.INTRA.VDW>
1.77319

>  <SCORE.INTRA.VDW.0>
-3.19502

>  <SCORE.INTRA.norm>
-0.0519808

>  <SCORE.RESTR>
0

>  <SCORE.RESTR.CAVITY>
0

>  <SCORE.RESTR.norm>
0

>  <SCORE.SYSTEM>
0

>  <SCORE.SYSTEM.CONST>
0

>  <SCORE.SYSTEM.DIHEDRAL>
0

>  <SCORE.SYSTEM.SOLV>
0

>  <SCORE.SYSTEM.norm>
0

>  <SCORE.heavy>
37

>  <SCORE.norm>
-0.602225

>  <RMSD>
9.850

$$$$
2oe5_lig
 OpenBabel11021811463D
libRbt.so/2013.1/901 2013/11/27
 37 40  0  0  0  0  0  0  0  0999 V2000
   22.1457   -2.1477   49.0838 C   0  0  1  0  0  0  0  0  0  0  0  0
   23.2898   -2.5124   50.0562 C   0  0  1  0  0  0  0  0  0  0  0  0
   22.7280   -2.5571   51.5258 C   0  0  0  0  0  0  0  0  0  0  0  0
   22.1637   -1.1432   51.7899 C   0  0  1  0  0  0  0  0  0  0  0  0
   20.9896   -0.7825   50.7761 C   0  0  1  0  0  0  0  0  0  0  0  0
   20.4029    0.6331   51.0293 C   0  0  1  0  0  0  0  0  0  0  0  0
   19.8682    0.6450   52.4897 C   0  0  1  0  0  0  0  0  0  0  0  0
   21.0475    0.2401   53.4534 C   0  0  2  0  0  0  0  0  0  0  0  0
   20.2523    3.1663   53.0882 C   0  0  0  0  0  0  0  0  0  0  0  0
   23.8515   -3.8364   49.7027 N   0  0  0  0  0  0  0  0  0  0  0  0
   19.3220    2.0103   52.8389 N   0  0  0  0  0  0  0  0  0  0  0  0
   21.1067   -3.1403   49.0799 O   0  0  0  0  0  0  0  0  0  0  0  0
   21.5251   -0.8563   49.4152 O   0  0  0  0  0  0  0  0  0  0  0  0
   21.6195   -1.0827   53.1356 O   0  0  0  0  0  0  0  0  0  0  0  0
   21.4538    1.5861   50.8410 O   0  0  0  0  0  0  0  0  0  0  0  0
   20.5823    0.1784   54.7872 O   0  0  0  0  0  0  0  0  0  0  0  0
   21.6607   -0.0690   55.6697 C   0  0  2  0  0  0  0  0  0  0  0  0
   21.1940   -0.2984   57.1067 C   0  0  1  0  0  0  0  0  0  0  0  0
   20.5220    0.9756   57.6885 C   0  0  2  0  0  0  0  0  0  0  0  0
   21.5553    2.1369   57.5912 C   0  0  1  0  0  0  0  0  0  0  0  0
   21.9359    2.3260   56.0860 C   0  0  1  0  0  0  0  0  0  0  0  0
   22.9794    3.4006   55.8763 C   0  0  0  0  0  0  0  0  0  0  0  0
   20.9117    3.3814   58.1578 N   0  0  0  0  0  0  0  0  0  0  0  0
   22.5612    1.0819   55.6218 O   0  0  0  0  0  0  0  0  0  0  0  0
   20.2695   -1.4041   57.0908 O   0  0  0  0  0  0  0  0  0  0  0  0
   20.2090    0.7233   59.0703 O   0  0  0  0  0  0  0  0  0  0  0  0
   22.4630    4.6722   56.0741 O   0  0  0  0  0  0  0  0  0  0  0  0
   20.0517   -2.8788   48.1540 C   0  0  1  0  0  0  0  0  0  0  0  0
   20.5678   -3.0846   46.6850 C   0  0  1  0  0  0  0  0  0  0  0  0
   19.3874   -2.8044   45.6867 C   0  0  2  0  0  0  0  0  0  0  0  0
   18.2405   -3.7871   45.9675 C   0  0  1  0  0  0  0  0  0  0  0  0
   17.7138   -3.5694   47.4384 C   0  0  0  0  0  0  0  0  0  0  0  0
   18.9028   -3.8353   48.4434 C   0  0  2  0  0  0  0  0  0  0  0  0
   17.1634   -3.5300   45.0259 N   0  0  0  0  0  0  0  0  0  0  0  0
   18.4522   -3.6185   49.8434 N   0  0  0  0  0  0  0  0  0  0  0  0
   21.6560   -2.1551   46.4143 O   0  0  0  0  0  0  0  0  0  0  0  0
   19.8391   -3.0052   44.3737 O   0  0  0  0  0  0  0  0  0  0  0  0
  1  2  1  0  0  0  0
  1 12  1  1  0  0  0
  1 13  1  0  0  0  0
  2  3  1  0  0  0  0
  2 10  1  6  0  0  0
  4  3  1  6  0  0  0
  4  5  1  0  0  0  0
  4 14  1  0  0  0  0
  5  6  1  0  0  0  0
  5 13  1  6  0  0  0
  6  7  1  0  0  0  0
  6 15  1  1  0  0  0
  7  8  1  0  0  0  0
  7 11  1  1  0  0  0
  8 14  1  0  0  0  0
  8 16  1  1  0  0  0
  9 11  1  0  0  0  0
 17 16  1  6  0  0  0
 17 18  1  0  0  0  0
 17 24  1  0  0  0  0
 18 19  1  0  0  0  0
 18 25  1  6  0  0  0
 19 20  1  0  0  0  0
 19 26  1  1  0  0  0
 20 21  1  0  0  0  0
 20 23  1  6  0  0  0
 21 22  1  1  0  0  0
 21 24  1  0  0  0  0
 22 27  1  0  0  0  0
 28 12  1  1  0  0  0
 28 29  1  0  0  0  0
 28 33  1  0  0  0  0
 29 30  1  0  0  0  0
 29 36  1  6  0  0  0
 30 31  1  0  0  0  0
 30 37  1  6  0  0  0
 31 32  1  0  0  0  0
 31 34  1  6  0  0  0
 32 33  1  0  0  0  0
 33 35  1  1  0  0  0
M  END
>  <CHROM.1>
-177.44869021,-73.57151953,-174.87342667,-173.69111321,-72.14168120,70.69721185
20.84170641,-0.64205601,51.84596994,-2.03716165,1.26030300,1.55366792

>  <Name>
2oe5_lig

>  <RI>
0

>  <Rbt.Current_Directory>
/home/itssahil/PROJECTS/Mol_Feturizer/New_Systems/rnas/2oe5

>  <Rbt.Executable>
rbdock ($Id: //depot/dev/client3/rdock/2013.1/src/exe/rbdock.cxx#4 $)

>  <Rbt.Library>
libRbt.so (2013.1, Build901 2013/11/27)

>  <Rbt.Parameter_File>
/export/apps/rDock/src/rDock_2013.1_src/data/scripts/dock_solv.prm

>  <Rbt.Receptor>
prm/pocket_docking_8.prm

>  <SCORE>
-18.2007

>  <SCORE.INTER>
-12.0664

>  <SCORE.INTER.CONST>
1

>  <SCORE.INTER.POLAR>
-1.31569

>  <SCORE.INTER.ROT>
6

>  <SCORE.INTER.SOLV>
13.1195

>  <SCORE.INTER.VDW>
-15.6318

>  <SCORE.INTER.norm>
-0.32612

>  <SCORE.INTRA>
-6.13431

>  <SCORE.INTRA.DIHEDRAL>
-14.5402

>  <SCORE.INTRA.DIHEDRAL.0>
16.2083

>  <SCORE.INTRA.POLAR>
0

>  <SCORE.INTRA.POLAR.0>
0

>  <SCORE.INTRA.REPUL>
0

>  <SCORE.INTRA.REPUL.0>
0

>  <SCORE.INTRA.SOLV>
-1.75151

>  <SCORE.INTRA.SOLV.lig_0>
-89.8095

>  <SCORE.INTRA.VDW>
2.01157

>  <SCORE.INTRA.VDW.0>
-3.19502

>  <SCORE.INTRA.norm>
-0.165792

>  <SCORE.RESTR>
0

>  <SCORE.RESTR.CAVITY>
0

>  <SCORE.RESTR.norm>
0

>  <SCORE.SYSTEM>
0

>  <SCORE.SYSTEM.CONST>
0

>  <SCORE.SYSTEM.DIHEDRAL>
0

>  <SCORE.SYSTEM.SOLV>
0

>  <SCORE.SYSTEM.norm>
0

>  <SCORE.heavy>
37

>  <SCORE.norm>
-0.491912

>  <RMSD>
9.850

$$$$
2oe5_lig
 OpenBabel11021811463D
libRbt.so/2013.1/901 2013/11/27
 37 40  0  0  0  0  0  0  0  0999 V2000
   21.9758   -4.3237   49.2099 C   0  0  1  0  0  0  0  0  0  0  0  0
   22.3227   -5.1644   50.4591 C   0  0  1  0  0  0  0  0  0  0  0  0
   21.5038   -4.6265   51.6909 C   0  0  0  0  0  0  0  0  0  0  0  0
   21.9238   -3.1476   51.8455 C   0  0  1  0  0  0  0  0  0  0  0  0
   21.5634   -2.2978   50.5477 C   0  0  1  0  0  0  0  0  0  0  0  0
   21.9710   -0.8054   50.6853 C   0  0  1  0  0  0  0  0  0  0  0  0
   21.2102   -0.2421   51.9193 C   0  0  1  0  0  0  0  0  0  0  0  0
   21.5594   -1.1368   53.1686 C   0  0  2  0  0  0  0  0  0  0  0  0
   20.5529    2.2068   52.5774 C   0  0  0  0  0  0  0  0  0  0  0  0
   21.9812   -6.5860   50.2230 N   0  0  0  0  0  0  0  0  0  0  0  0
   21.5904    1.2011   52.1579 N   0  0  0  0  0  0  0  0  0  0  0  0
   20.5906   -4.4457   48.8476 O   0  0  0  0  0  0  0  0  0  0  0  0
   22.2596   -2.8941   49.4058 O   0  0  0  0  0  0  0  0  0  0  0  0
   21.2168   -2.5585   52.9697 O   0  0  0  0  0  0  0  0  0  0  0  0
   23.3897   -0.7508   50.8660 O   0  0  0  0  0  0  0  0  0  0  0  0
   20.8352   -0.6925   54.2988 O   0  0  0  0  0  0  0  0  0  0  0  0
   21.5973    0.2519   55.0269 C   0  0  2  0  0  0  0  0  0  0  0  0
   22.4134   -0.3977   56.1439 C   0  0  1  0  0  0  0  0  0  0  0  0
   21.4883   -1.0356   57.2165 C   0  0  2  0  0  0  0  0  0  0  0  0
   20.5535    0.0869   57.7569 C   0  0  1  0  0  0  0  0  0  0  0  0
   19.7302    0.6563   56.5552 C   0  0  1  0  0  0  0  0  0  0  0  0
   18.8199    1.7955   56.9564 C   0  0  0  0  0  0  0  0  0  0  0  0
   19.6506   -0.5233   58.8041 N   0  0  0  0  0  0  0  0  0  0  0  0
   20.6785    1.2363   55.5966 O   0  0  0  0  0  0  0  0  0  0  0  0
   23.2600   -1.3948   55.5383 O   0  0  0  0  0  0  0  0  0  0  0  0
   22.3175   -1.5282   58.2845 O   0  0  0  0  0  0  0  0  0  0  0  0
   19.5275    2.8653   57.4832 O   0  0  0  0  0  0  0  0  0  0  0  0
   20.1769   -3.5552   47.8110 C   0  0  1  0  0  0  0  0  0  0  0  0
   20.8634   -3.9571   46.4567 C   0  0  1  0  0  0  0  0  0  0  0  0
   20.3830   -2.9726   45.3305 C   0  0  2  0  0  0  0  0  0  0  0  0
   18.8578   -3.0776   45.1808 C   0  0  1  0  0  0  0  0  0  0  0  0
   18.1693   -2.6599   46.5371 C   0  0  0  0  0  0  0  0  0  0  0  0
   18.6626   -3.6385   47.6743 C   0  0  2  0  0  0  0  0  0  0  0  0
   18.4286   -2.1765   44.1238 N   0  0  0  0  0  0  0  0  0  0  0  0
   18.0520   -3.2640   48.9770 N   0  0  0  0  0  0  0  0  0  0  0  0
   22.3102   -3.8597   46.5942 O   0  0  0  0  0  0  0  0  0  0  0  0
   20.9797   -3.3395   44.1149 O   0  0  0  0  0  0  0  0  0  0  0  0
  1  2  1  0  0  0  0
  1 12  1  1  0  0  0
  1 13  1  0  0  0  0
  2  3  1  0  0  0  0
  2 10  1  6  0  0  0
  4  3  1  6  0  0  0
  4  5  1  0  0  0  0
  4 14  1  0  0  0  0
  5  6  1  0  0  0  0
  5 13  1  6  0  0  0
  6  7  1  0  0  0  0
  6 15  1  1  0  0  0
  7  8  1  0  0  0  0
  7 11  1  1  0  0  0
  8 14  1  0  0  0  0
  8 16  1  1  0  0  0
  9 11  1  0  0  0  0
 17 16  1  1  0  0  0
 17 18  1  0  0  0  0
 17 24  1  0  0  0  0
 18 19  1  0  0  0  0
 18 25  1  6  0  0  0
 19 20  1  0  0  0  0
 19 26  1  1  0  0  0
 20 21  1  0  0  0  0
 20 23  1  1  0  0  0
 21 22  1  1  0  0  0
 21 24  1  0  0  0  0
 22 27  1  0  0  0  0
 28 12  1  1  0  0  0
 28 29  1  0  0  0  0
 28 33  1  0  0  0  0
 29 30  1  0  0  0  0
 29 36  1  1  0  0  0
 30 31  1  0  0  0  0
 30 37  1  6  0  0  0
 31 32  1  0  0  0  0
 31 34  1  6  0  0  0
 32 33  1  0  0  0  0
 33 35  1  1  0  0  0
M  END
>  <CHROM.1>
172.13465531,140.58473168,-91.96971900,-93.04013806,60.19926887,68.00700780
20.92562439,-1.77911317,51.62978337,-1.66116820,-0.98065650,1.12772080

>  <Name>
2oe5_lig

>  <RI>
0

>  <Rbt.Current_Directory>
/home/itssahil/PROJECTS/Mol_Feturizer/New_Systems/rnas/2oe5

>  <Rbt.Executable>
rbdock ($Id: //depot/dev/client3/rdock/2013.1/src/exe/rbdock.cxx#4 $)

>  <Rbt.Library>
libRbt.so (2013.1, Build901 2013/11/27)

>  <Rbt.Parameter_File>
/export/apps/rDock/src/rDock_2013.1_src/data/scripts/dock_solv.prm

>  <Rbt.Receptor>
prm/pocket_docking_4.prm

>  <SCORE>
-17.1349

>  <SCORE.INTER>
-14.2451

>  <SCORE.INTER.CONST>
1

>  <SCORE.INTER.POLAR>
-1.58892

>  <SCORE.INTER.ROT>
6

>  <SCORE.INTER.SOLV>
23.1381

>  <SCORE.INTER.VDW>
-19.513

>  <SCORE.INTER.norm>
-0.385002

>  <SCORE.INTRA>
-2.88986

>  <SCORE.INTRA.DIHEDRAL>
-6.51367

>  <SCORE.INTRA.DIHEDRAL.0>
16.2083

>  <SCORE.INTRA.POLAR>
0

>  <SCORE.INTRA.POLAR.0>
0

>  <SCORE.INTRA.REPUL>
0

>  <SCORE.INTRA.REPUL.0>
0

>  <SCORE.INTRA.SOLV>
-1.57085

>  <SCORE.INTRA.SOLV.lig_0>
-89.8095

>  <SCORE.INTRA.VDW>
1.1524

>  <SCORE.INTRA.VDW.0>
-3.19502

>  <SCORE.INTRA.norm>
-0.0781043

>  <SCORE.RESTR>
0

>  <SCORE.RESTR.CAVITY>
0

>  <SCORE.RESTR.norm>
0

>  <SCORE.SYSTEM>
0

>  <SCORE.SYSTEM.CONST>
0

>  <SCORE.SYSTEM.DIHEDRAL>
0

>  <SCORE.SYSTEM.SOLV>
0

>  <SCORE.SYSTEM.norm>
0

>  <SCORE.heavy>
37

>  <SCORE.norm>
-0.463106

>  <RMSD>
9.858

$$$$
2oe5_lig
 OpenBabel11021811463D
libRbt.so/2013.1/901 2013/11/27
 37 40  0  0  0  0  0  0  0  0999 V2000
   20.6624   -1.4805   49.6324 C   0  0  1  0  0  0  0  0  0  0  0  0
   22.1695   -1.1781   49.4761 C   0  0  1  0  0  0  0  0  0  0  0  0
   22.8509   -1.1869   50.8949 C   0  0  0  0  0  0  0  0  0  0  0  0
   22.1163   -0.0969   51.7070 C   0  0  1  0  0  0  0  0  0  0  0  0
   20.5642   -0.4222   51.8538 C   0  0  1  0  0  0  0  0  0  0  0  0
   19.8078    0.6584   52.6738 C   0  0  1  0  0  0  0  0  0  0  0  0
   20.4765    0.7096   54.0770 C   0  0  1  0  0  0  0  0  0  0  0  0
   22.0153    0.9886   53.8837 C   0  0  2  0  0  0  0  0  0  0  0  0
   19.2952    1.4480   56.2956 C   0  0  0  0  0  0  0  0  0  0  0  0
   22.8051   -2.2040   48.6176 N   0  0  0  0  0  0  0  0  0  0  0  0
   19.8307    1.7782   54.9288 N   0  0  0  0  0  0  0  0  0  0  0  0
   20.4304   -2.7911   50.1742 O   0  0  0  0  0  0  0  0  0  0  0  0
   19.9891   -0.5114   50.5101 O   0  0  0  0  0  0  0  0  0  0  0  0
   22.6811   -0.0258   53.0437 O   0  0  0  0  0  0  0  0  0  0  0  0
   19.9317    1.9045   51.9809 O   0  0  0  0  0  0  0  0  0  0  0  0
   22.6694    0.9795   55.1372 O   0  0  0  0  0  0  0  0  0  0  0  0
   23.9899    1.4707   55.0027 C   0  0  2  0  0  0  0  0  0  0  0  0
   24.8896    1.0422   56.1614 C   0  0  1  0  0  0  0  0  0  0  0  0
   24.4016    1.6499   57.5051 C   0  0  2  0  0  0  0  0  0  0  0  0
   24.3699    3.1979   57.3356 C   0  0  1  0  0  0  0  0  0  0  0  0
   23.3926    3.5399   56.1633 C   0  0  1  0  0  0  0  0  0  0  0  0
   23.3223    5.0226   55.8732 C   0  0  0  0  0  0  0  0  0  0  0  0
   23.8988    3.7994   58.6395 N   0  0  0  0  0  0  0  0  0  0  0  0
   23.9285    2.9302   54.9403 O   0  0  0  0  0  0  0  0  0  0  0  0
   24.8722   -0.3982   56.2137 O   0  0  0  0  0  0  0  0  0  0  0  0
   25.3524    1.2962   58.5259 O   0  0  0  0  0  0  0  0  0  0  0  0
   22.3487    5.3225   54.9325 O   0  0  0  0  0  0  0  0  0  0  0  0
   19.2378   -3.4169   49.7004 C   0  0  1  0  0  0  0  0  0  0  0  0
   19.4283   -3.8675   48.2079 C   0  0  1  0  0  0  0  0  0  0  0  0
   18.1095   -4.5642   47.7141 C   0  0  2  0  0  0  0  0  0  0  0  0
   17.8282   -5.7962   48.5875 C   0  0  1  0  0  0  0  0  0  0  0  0
   17.6229   -5.3405   50.0837 C   0  0  0  0  0  0  0  0  0  0  0  0
   18.9418   -4.6258   50.5777 C   0  0  2  0  0  0  0  0  0  0  0  0
   16.6170   -6.4419   48.1089 N   0  0  0  0  0  0  0  0  0  0  0  0
   18.7811   -4.1603   51.9804 N   0  0  0  0  0  0  0  0  0  0  0  0
   19.6961   -2.7023   47.3759 O   0  0  0  0  0  0  0  0  0  0  0  0
   18.2819   -4.9849   46.3868 O   0  0  0  0  0  0  0  0  0  0  0  0
  1  2  1  0  0  0  0
  1 12  1  1  0  0  0
  1 13  1  0  0  0  0
  2  3  1  0  0  0  0
  2 10  1  6  0  0  0
  4  3  1  6  0  0  0
  4  5  1  0  0  0  0
  4 14  1  0  0  0  0
  5  6  1  0  0  0  0
  5 13  1  6  0  0  0
  6  7  1  0  0  0  0
  6 15  1  6  0  0  0
  7  8  1  0  0  0  0
  7 11  1  1  0  0  0
  8 14  1  0  0  0  0
  8 16  1  1  0  0  0
  9 11  1  0  0  0  0
 17 16  1  1  0  0  0
 17 18  1  0  0  0  0
 17 24  1  0  0  0  0
 18 19  1  0  0  0  0
 18 25  1  1  0  0  0
 19 20  1  0  0  0  0
 19 26  1  1  0  0  0
 20 21  1  0  0  0  0
 20 23  1  1  0  0  0
 21 22  1  6  0  0  0
 21 24  1  0  0  0  0
 22 27  1  0  0  0  0
 28 12  1  1  0  0  0
 28 29  1  0  0  0  0
 28 33  1  0  0  0  0
 29 30  1  0  0  0  0
 29 36  1  6  0  0  0
 30 31  1  0  0  0  0
 30 37  1  6  0  0  0
 31 32  1  0  0  0  0
 31 34  1  6  0  0  0
 32 33  1  0  0  0  0
 33 35  1  1  0  0  0
M  END
>  <CHROM.1>
-147.53414382,126.69159083,-169.14546648,-159.86801475,-173.54050864,72.68381555
21.30467009,-0.46331355,52.58236481,2.08724936,0.56284090,-2.58574755

>  <Name>
2oe5_lig

>  <RI>
0

>  <Rbt.Current_Directory>
/home/itssahil/PROJECTS/Mol_Feturizer/New_Systems/rnas/2oe5

>  <Rbt.Executable>
rbdock ($Id: //depot/dev/client3/rdock/2013.1/src/exe/rbdock.cxx#4 $)

>  <Rbt.Library>
libRbt.so (2013.1, Build901 2013/11/27)

>  <Rbt.Parameter_File>
/export/apps/rDock/src/rDock_2013.1_src/data/scripts/dock_solv.prm

>  <Rbt.Receptor>
prm/pocket_docking_7.prm

>  <SCORE>
-18.7597

>  <SCORE.INTER>
-14.2843

>  <SCORE.INTER.CONST>
1

>  <SCORE.INTER.POLAR>
-2.07136

>  <SCORE.INTER.ROT>
6

>  <SCORE.INTER.SOLV>
14.6113

>  <SCORE.INTER.VDW>
-15.0888

>  <SCORE.INTER.norm>
-0.386063

>  <SCORE.INTRA>
-4.4754

>  <SCORE.INTRA.DIHEDRAL>
-7.64751

>  <SCORE.INTRA.DIHEDRAL.0>
16.2083

>  <SCORE.INTRA.POLAR>
0

>  <SCORE.INTRA.POLAR.0>
0

>  <SCORE.INTRA.REPUL>
0

>  <SCORE.INTRA.REPUL.0>
0

>  <SCORE.INTRA.SOLV>
-1.93252

>  <SCORE.INTRA.SOLV.lig_0>
-89.8095

>  <SCORE.INTRA.VDW>
0.314611

>  <SCORE.INTRA.VDW.0>
-3.19502

>  <SCORE.INTRA.norm>
-0.120957

>  <SCORE.RESTR>
0

>  <SCORE.RESTR.CAVITY>
0

>  <SCORE.RESTR.norm>
0

>  <SCORE.SYSTEM>
0

>  <SCORE.SYSTEM.CONST>
0

>  <SCORE.SYSTEM.DIHEDRAL>
0

>  <SCORE.SYSTEM.SOLV>
0

>  <SCORE.SYSTEM.norm>
0

>  <SCORE.heavy>
37

>  <SCORE.norm>
-0.50702

>  <RMSD>
9.858

$$$$
2oe5_lig
 OpenBabel11021811463D
libRbt.so/2013.1/901 2013/11/27
 37 40  0  0  0  0  0  0  0  0999 V2000
   21.5620   -3.5068   49.8070 C   0  0  1  0  0  0  0  0  0  0  0  0
   22.9037   -3.4248   50.5687 C   0  0  1  0  0  0  0  0  0  0  0  0
   22.6181   -3.2542   52.1070 C   0  0  0  0  0  0  0  0  0  0  0  0
   21.7962   -1.9513   52.2272 C   0  0  1  0  0  0  0  0  0  0  0  0
   20.4197   -2.0518   51.4326 C   0  0  1  0  0  0  0  0  0  0  0  0
   19.5742   -0.7541   51.5466 C   0  0  1  0  0  0  0  0  0  0  0  0
   19.3001   -0.5261   53.0604 C   0  0  1  0  0  0  0  0  0  0  0  0
   20.6834   -0.4777   53.8136 C   0  0  2  0  0  0  0  0  0  0  0  0
   19.1742    2.0906   53.0525 C   0  0  0  0  0  0  0  0  0  0  0  0
   23.6877   -4.6617   50.3471 N   0  0  0  0  0  0  0  0  0  0  0  0
   18.5208    0.7524   53.2673 N   0  0  0  0  0  0  0  0  0  0  0  0
   20.7923   -4.6562   50.1961 O   0  0  0  0  0  0  0  0  0  0  0  0
   20.7253   -2.3172   50.0253 O   0  0  0  0  0  0  0  0  0  0  0  0
   21.4829   -1.7036   53.6241 O   0  0  0  0  0  0  0  0  0  0  0  0
   20.3326    0.3177   50.9771 O   0  0  0  0  0  0  0  0  0  0  0  0
   20.4718   -0.3344   55.2043 O   0  0  0  0  0  0  0  0  0  0  0  0
   21.6676    0.0757   55.8406 C   0  0  2  0  0  0  0  0  0  0  0  0
   21.7237   -0.3568   57.3052 C   0  0  1  0  0  0  0  0  0  0  0  0
   20.6055    0.3301   58.1364 C   0  0  2  0  0  0  0  0  0  0  0  0
   20.7817    1.8695   57.9777 C   0  0  1  0  0  0  0  0  0  0  0  0
   20.6636    2.2196   56.4579 C   0  0  1  0  0  0  0  0  0  0  0  0
   20.8716    3.6913   56.1781 C   0  0  0  0  0  0  0  0  0  0  0  0
   19.6995    2.5477   58.7856 N   0  0  0  0  0  0  0  0  0  0  0  0
   21.7528    1.5328   55.7535 O   0  0  0  0  0  0  0  0  0  0  0  0
   21.5807   -1.7907   57.3394 O   0  0  0  0  0  0  0  0  0  0  0  0
   20.7866   -0.0361   59.5163 O   0  0  0  0  0  0  0  0  0  0  0  0
   20.7878    3.9798   54.8244 O   0  0  0  0  0  0  0  0  0  0  0  0
   19.7609   -5.0088   49.2738 C   0  0  1  0  0  0  0  0  0  0  0  0
   20.2454   -6.1882   48.3567 C   0  0  1  0  0  0  0  0  0  0  0  0
   19.0905   -6.5665   47.3610 C   0  0  2  0  0  0  0  0  0  0  0  0
   17.8573   -7.0143   48.1601 C   0  0  1  0  0  0  0  0  0  0  0  0
   17.3633   -5.8241   49.0698 C   0  0  0  0  0  0  0  0  0  0  0  0
   18.5282   -5.4314   50.0615 C   0  0  2  0  0  0  0  0  0  0  0  0
   16.8033   -7.3791   47.2278 N   0  0  0  0  0  0  0  0  0  0  0  0
   18.1094   -4.2954   50.9240 N   0  0  0  0  0  0  0  0  0  0  0  0
   21.4153   -5.7683   47.5975 O   0  0  0  0  0  0  0  0  0  0  0  0
   19.5125   -7.6323   46.5521 O   0  0  0  0  0  0  0  0  0  0  0  0
  1  2  1  0  0  0  0
  1 12  1  1  0  0  0
  1 13  1  0  0  0  0
  2  3  1  0  0  0  0
  2 10  1  1  0  0  0
  4  3  1  1  0  0  0
  4  5  1  0  0  0  0
  4 14  1  0  0  0  0
  5  6  1  0  0  0  0
  5 13  1  6  0  0  0
  6  7  1  0  0  0  0
  6 15  1  1  0  0  0
  7  8  1  0  0  0  0
  7 11  1  6  0  0  0
  8 14  1  0  0  0  0
  8 16  1  1  0  0  0
  9 11  1  0  0  0  0
 17 16  1  1  0  0  0
 17 18  1  0  0  0  0
 17 24  1  0  0  0  0
 18 19  1  0  0  0  0
 18 25  1  6  0  0  0
 19 20  1  0  0  0  0
 19 26  1  1  0  0  0
 20 21  1  0  0  0  0
 20 23  1  1  0  0  0
 21 22  1  1  0  0  0
 21 24  1  0  0  0  0
 22 27  1  0  0  0  0
 28 12  1  1  0  0  0
 28 29  1  0  0  0  0
 28 33  1  0  0  0  0
 29 30  1  0  0  0  0
 29 36  1  6  0  0  0
 30 31  1  0  0  0  0
 30 37  1  6  0  0  0
 31 32  1  0  0  0  0
 31 34  1  6  0  0  0
 32 33  1  0  0  0  0
 33 35  1  1  0  0  0
M  END
>  <CHROM.1>
-162.21981854,-71.03852479,-163.91866489,-153.55368663,178.89787452,99.26510662
20.38616315,-1.95610963,52.55767603,-1.73560421,-0.82754368,0.72648354

>  <Name>
2oe5_lig

>  <RI>
0

>  <Rbt.Current_Directory>
/home/itssahil/PROJECTS/Mol_Feturizer/New_Systems/rnas/2oe5

>  <Rbt.Executable>
rbdock ($Id: //depot/dev/client3/rdock/2013.1/src/exe/rbdock.cxx#4 $)

>  <Rbt.Library>
libRbt.so (2013.1, Build901 2013/11/27)

>  <Rbt.Parameter_File>
/export/apps/rDock/src/rDock_2013.1_src/data/scripts/dock_solv.prm

>  <Rbt.Receptor>
prm/pocket_docking_3.prm

>  <SCORE>
-15.5941

>  <SCORE.INTER>
-13.1341

>  <SCORE.INTER.CONST>
1

>  <SCORE.INTER.POLAR>
-0.979796

>  <SCORE.INTER.ROT>
6

>  <SCORE.INTER.SOLV>
13.4276

>  <SCORE.INTER.VDW>
-17.5659

>  <SCORE.INTER.norm>
-0.354974

>  <SCORE.INTRA>
-2.46008

>  <SCORE.INTRA.DIHEDRAL>
-5.1755

>  <SCORE.INTRA.DIHEDRAL.0>
16.2083

>  <SCORE.INTRA.POLAR>
0

>  <SCORE.INTRA.POLAR.0>
0

>  <SCORE.INTRA.REPUL>
0

>  <SCORE.INTRA.REPUL.0>
0

>  <SCORE.INTRA.SOLV>
-0.375811

>  <SCORE.INTRA.SOLV.lig_0>
-89.8095

>  <SCORE.INTRA.VDW>
0.315579

>  <SCORE.INTRA.VDW.0>
-3.19502

>  <SCORE.INTRA.norm>
-0.0664886

>  <SCORE.RESTR>
0

>  <SCORE.RESTR.CAVITY>
0

>  <SCORE.RESTR.norm>
0

>  <SCORE.SYSTEM>
0

>  <SCORE.SYSTEM.CONST>
0

>  <SCORE.SYSTEM.DIHEDRAL>
0

>  <SCORE.SYSTEM.SOLV>
0

>  <SCORE.SYSTEM.norm>
0

>  <SCORE.heavy>
37

>  <SCORE.norm>
-0.421463

>  <RMSD>
9.860

$$$$
2oe5_lig
 OpenBabel11021811463D
libRbt.so/2013.1/901 2013/11/27
 37 40  0  0  0  0  0  0  0  0999 V2000
   22.8752   -1.9746   49.1037 C   0  0  1  0  0  0  0  0  0  0  0  0
   23.9869   -2.3418   50.1120 C   0  0  1  0  0  0  0  0  0  0  0  0
   23.3727   -2.4129   51.5593 C   0  0  0  0  0  0  0  0  0  0  0  0
   22.7846   -1.0085   51.8223 C   0  0  1  0  0  0  0  0  0  0  0  0
   21.6445   -0.6449   50.7715 C   0  0  1  0  0  0  0  0  0  0  0  0
   21.0343    0.7611   51.0227 C   0  0  1  0  0  0  0  0  0  0  0  0
   20.4470    0.7470   52.4627 C   0  0  1  0  0  0  0  0  0  0  0  0
   21.5946    0.3401   53.4629 C   0  0  2  0  0  0  0  0  0  0  0  0
   18.8503    2.2424   53.9039 C   0  0  0  0  0  0  0  0  0  0  0  0
   24.5748   -3.6551   49.7609 N   0  0  0  0  0  0  0  0  0  0  0  0
   19.8744    2.1018   52.8106 N   0  0  0  0  0  0  0  0  0  0  0  0
   21.8473   -2.9772   49.0482 O   0  0  0  0  0  0  0  0  0  0  0  0
   22.2297   -0.6942   49.4301 O   0  0  0  0  0  0  0  0  0  0  0  0
   22.1914   -0.9724   53.1480 O   0  0  0  0  0  0  0  0  0  0  0  0
   22.0816    1.7269   50.8860 O   0  0  0  0  0  0  0  0  0  0  0  0
   21.0820    0.2549   54.7779 O   0  0  0  0  0  0  0  0  0  0  0  0
   22.1369    0.3244   55.7189 C   0  0  2  0  0  0  0  0  0  0  0  0
   21.8443   -0.4875   56.9801 C   0  0  1  0  0  0  0  0  0  0  0  0
   20.6227    0.0886   57.7475 C   0  0  2  0  0  0  0  0  0  0  0  0
   20.9350    1.5789   58.0750 C   0  0  1  0  0  0  0  0  0  0  0  0
   21.1734    2.3348   56.7266 C   0  0  1  0  0  0  0  0  0  0  0  0
   21.5383    3.7888   56.9269 C   0  0  0  0  0  0  0  0  0  0  0  0
   19.7528    2.1484   58.8248 N   0  0  0  0  0  0  0  0  0  0  0  0
   22.3393    1.7286   56.0727 O   0  0  0  0  0  0  0  0  0  0  0  0
   21.5986   -1.8480   56.5723 O   0  0  0  0  0  0  0  0  0  0  0  0
   20.4748   -0.6533   58.9717 O   0  0  0  0  0  0  0  0  0  0  0  0
   21.5731    4.4857   55.7286 O   0  0  0  0  0  0  0  0  0  0  0  0
   20.8763   -2.7630   48.0236 C   0  0  1  0  0  0  0  0  0  0  0  0
   21.0104   -3.8732   46.9207 C   0  0  1  0  0  0  0  0  0  0  0  0
   19.9246   -3.6243   45.8128 C   0  0  2  0  0  0  0  0  0  0  0  0
   18.5268   -3.6991   46.4456 C   0  0  1  0  0  0  0  0  0  0  0  0
   18.3887   -2.5744   47.5429 C   0  0  0  0  0  0  0  0  0  0  0  0
   19.4893   -2.8133   48.6501 C   0  0  2  0  0  0  0  0  0  0  0  0
   17.5317   -3.4860   45.4076 N   0  0  0  0  0  0  0  0  0  0  0  0
   19.4070   -1.7586   49.6944 N   0  0  0  0  0  0  0  0  0  0  0  0
   22.3349   -3.8064   46.3183 O   0  0  0  0  0  0  0  0  0  0  0  0
   20.0289   -4.6248   44.8349 O   0  0  0  0  0  0  0  0  0  0  0  0
  1  2  1  0  0  0  0
  1 12  1  1  0  0  0
  1 13  1  0  0  0  0
  2  3  1  0  0  0  0
  2 10  1  6  0  0  0
  4  3  1  6  0  0  0
  4  5  1  0  0  0  0
  4 14  1  0  0  0  0
  5  6  1  0  0  0  0
  5 13  1  6  0  0  0
  6  7  1  0  0  0  0
  6 15  1  1  0  0  0
  7  8  1  0  0  0  0
  7 11  1  1  0  0  0
  8 14  1  0  0  0  0
  8 16  1  1  0  0  0
  9 11  1  0  0  0  0
 17 16  1  6  0  0  0
 17 18  1  0  0  0  0
 17 24  1  0  0  0  0
 18 19  1  0  0  0  0
 18 25  1  6  0  0  0
 19 20  1  0  0  0  0
 19 26  1  1  0  0  0
 20 21  1  0  0  0  0
 20 23  1  6  0  0  0
 21 22  1  1  0  0  0
 21 24  1  0  0  0  0
 22 27  1  0  0  0  0
 28 12  1  1  0  0  0
 28 29  1  0  0  0  0
 28 33  1  0  0  0  0
 29 30  1  0  0  0  0
 29 36  1  6  0  0  0
 30 31  1  0  0  0  0
 30 37  1  6  0  0  0
 31 32  1  0  0  0  0
 31 34  1  6  0  0  0
 32 33  1  0  0  0  0
 33 35  1  1  0  0  0
M  END
>  <CHROM.1>
-173.17514413,158.69699988,-161.04669316,-148.19168121,-172.05600419,111.90267494
21.14717752,-0.74045666,51.97462027,-1.63440563,-0.59619901,1.08075409

>  <Name>
2oe5_lig

>  <RI>
0

>  <Rbt.Current_Directory>
/home/itssahil/PROJECTS/Mol_Feturizer/New_Systems/rnas/2oe5

>  <Rbt.Executable>
rbdock ($Id: //depot/dev/client3/rdock/2013.1/src/exe/rbdock.cxx#4 $)

>  <Rbt.Library>
libRbt.so (2013.1, Build901 2013/11/27)

>  <Rbt.Parameter_File>
/export/apps/rDock/src/rDock_2013.1_src/data/scripts/dock_solv.prm

>  <Rbt.Receptor>
prm/pocket_docking_3.prm

>  <SCORE>
-12.7434

>  <SCORE.INTER>
-11.106

>  <SCORE.INTER.CONST>
1

>  <SCORE.INTER.POLAR>
-0.621972

>  <SCORE.INTER.ROT>
6

>  <SCORE.INTER.SOLV>
12.7498

>  <SCORE.INTER.VDW>
-17.1807

>  <SCORE.INTER.norm>
-0.300163

>  <SCORE.INTRA>
-1.76829

>  <SCORE.INTRA.DIHEDRAL>
-2.89974

>  <SCORE.INTRA.DIHEDRAL.0>
16.2083

>  <SCORE.INTRA.POLAR>
0

>  <SCORE.INTRA.POLAR.0>
0

>  <SCORE.INTRA.REPUL>
0

>  <SCORE.INTRA.REPUL.0>
0

>  <SCORE.INTRA.SOLV>
0.497829

>  <SCORE.INTRA.SOLV.lig_0>
-89.8095

>  <SCORE.INTRA.VDW>
-0.567338

>  <SCORE.INTRA.VDW.0>
-3.19502

>  <SCORE.INTRA.norm>
-0.0477917

>  <SCORE.RESTR>
0.130936

>  <SCORE.RESTR.CAVITY>
0.130936

>  <SCORE.RESTR.norm>
0.00353881

>  <SCORE.SYSTEM>
0

>  <SCORE.SYSTEM.CONST>
0

>  <SCORE.SYSTEM.DIHEDRAL>
0

>  <SCORE.SYSTEM.SOLV>
0

>  <SCORE.SYSTEM.norm>
0

>  <SCORE.heavy>
37

>  <SCORE.norm>
-0.344415

>  <RMSD>
9.862

$$$$
2oe5_lig
 OpenBabel11021811463D
libRbt.so/2013.1/901 2013/11/27
 37 40  0  0  0  0  0  0  0  0999 V2000
   22.1017   -1.9006   49.2174 C   0  0  1  0  0  0  0  0  0  0  0  0
   23.3301   -2.1960   50.1068 C   0  0  1  0  0  0  0  0  0  0  0  0
   22.8639   -2.3488   51.6023 C   0  0  0  0  0  0  0  0  0  0  0  0
   22.1923   -1.0040   51.9597 C   0  0  1  0  0  0  0  0  0  0  0  0
   20.9319   -0.7137   51.0305 C   0  0  1  0  0  0  0  0  0  0  0  0
   20.2372    0.6311   51.3783 C   0  0  1  0  0  0  0  0  0  0  0  0
   19.7923    0.5374   52.8656 C   0  0  1  0  0  0  0  0  0  0  0  0
   21.0588    0.2056   53.7426 C   0  0  2  0  0  0  0  0  0  0  0  0
   19.9737    3.0785   53.4759 C   0  0  0  0  0  0  0  0  0  0  0  0
   23.9857   -3.4481   49.6644 N   0  0  0  0  0  0  0  0  0  0  0  0
   19.1482    1.8323   53.3047 N   0  0  0  0  0  0  0  0  0  0  0  0
   21.1572   -2.9835   49.2284 O   0  0  0  0  0  0  0  0  0  0  0  0
   21.3891   -0.6854   49.6396 O   0  0  0  0  0  0  0  0  0  0  0  0
   21.7267   -1.0458   53.3353 O   0  0  0  0  0  0  0  0  0  0  0  0
   21.1855    1.6832   51.1732 O   0  0  0  0  0  0  0  0  0  0  0  0
   20.6820    0.0499   55.0965 O   0  0  0  0  0  0  0  0  0  0  0  0
   21.8296    0.0379   55.9246 C   0  0  2  0  0  0  0  0  0  0  0  0
   21.6058   -0.7488   57.2156 C   0  0  1  0  0  0  0  0  0  0  0  0
   20.5167   -0.0799   58.0986 C   0  0  2  0  0  0  0  0  0  0  0  0
   20.9743    1.3819   58.3806 C   0  0  1  0  0  0  0  0  0  0  0  0
   21.1313    2.1168   57.0089 C   0  0  1  0  0  0  0  0  0  0  0  0
   21.6253    3.5384   57.1593 C   0  0  0  0  0  0  0  0  0  0  0  0
   19.9221    2.0411   59.2422 N   0  0  0  0  0  0  0  0  0  0  0  0
   22.1744    1.4223   56.2448 O   0  0  0  0  0  0  0  0  0  0  0  0
   21.2159   -2.0863   56.8458 O   0  0  0  0  0  0  0  0  0  0  0  0
   20.4379   -0.8079   59.3374 O   0  0  0  0  0  0  0  0  0  0  0  0
   21.7755    4.1688   55.9335 O   0  0  0  0  0  0  0  0  0  0  0  0
   20.1035   -2.8500   48.2742 C   0  0  1  0  0  0  0  0  0  0  0  0
   20.6482   -3.1511   46.8321 C   0  0  1  0  0  0  0  0  0  0  0  0
   19.4693   -3.0111   45.8030 C   0  0  2  0  0  0  0  0  0  0  0  0
   18.3664   -4.0212   46.1536 C   0  0  1  0  0  0  0  0  0  0  0  0
   17.8104   -3.7088   47.5963 C   0  0  0  0  0  0  0  0  0  0  0  0
   18.9971   -3.8336   48.6310 C   0  0  2  0  0  0  0  0  0  0  0  0
   17.2909   -3.8946   45.1838 N   0  0  0  0  0  0  0  0  0  0  0  0
   18.5183   -3.5242   50.0039 N   0  0  0  0  0  0  0  0  0  0  0  0
   21.6950   -2.1958   46.4956 O   0  0  0  0  0  0  0  0  0  0  0  0
   19.9475   -3.2973   44.5155 O   0  0  0  0  0  0  0  0  0  0  0  0
  1  2  1  0  0  0  0
  1 12  1  1  0  0  0
  1 13  1  0  0  0  0
  2  3  1  0  0  0  0
  2 10  1  6  0  0  0
  4  3  1  6  0  0  0
  4  5  1  0  0  0  0
  4 14  1  0  0  0  0
  5  6  1  0  0  0  0
  5 13  1  6  0  0  0
  6  7  1  0  0  0  0
  6 15  1  1  0  0  0
  7  8  1  0  0  0  0
  7 11  1  1  0  0  0
  8 14  1  0  0  0  0
  8 16  1  1  0  0  0
  9 11  1  0  0  0  0
 17 16  1  6  0  0  0
 17 18  1  0  0  0  0
 17 24  1  0  0  0  0
 18 19  1  0  0  0  0
 18 25  1  6  0  0  0
 19 20  1  0  0  0  0
 19 26  1  1  0  0  0
 20 21  1  0  0  0  0
 20 23  1  1  0  0  0
 21 22  1  1  0  0  0
 21 24  1  0  0  0  0
 22 27  1  0  0  0  0
 28 12  1  1  0  0  0
 28 29  1  0  0  0  0
 28 33  1  0  0  0  0
 29 30  1  0  0  0  0
 29 36  1  6  0  0  0
 30 31  1  0  0  0  0
 30 37  1  6  0  0  0
 31 32  1  0  0  0  0
 31 34  1  6  0  0  0
 32 33  1  0  0  0  0
 33 35  1  1  0  0  0
M  END
>  <CHROM.1>
-171.20225638,-70.06436281,-167.51859688,-152.97931205,179.20375468,74.47547437
20.76862785,-0.80384729,52.12656275,2.57549431,1.45012019,-2.98432057

>  <Name>
2oe5_lig

>  <RI>
0

>  <Rbt.Current_Directory>
/home/itssahil/PROJECTS/Mol_Feturizer/New_Systems/rnas/2oe5

>  <Rbt.Executable>
rbdock ($Id: //depot/dev/client3/rdock/2013.1/src/exe/rbdock.cxx#4 $)

>  <Rbt.Library>
libRbt.so (2013.1, Build901 2013/11/27)

>  <Rbt.Parameter_File>
/export/apps/rDock/src/rDock_2013.1_src/data/scripts/dock_solv.prm

>  <Rbt.Receptor>
prm/pocket_docking_4.prm

>  <SCORE>
-17.2342

>  <SCORE.INTER>
-11.8768

>  <SCORE.INTER.CONST>
1

>  <SCORE.INTER.POLAR>
-0.964789

>  <SCORE.INTER.ROT>
6

>  <SCORE.INTER.SOLV>
13.2449

>  <SCORE.INTER.VDW>
-16.7168

>  <SCORE.INTER.norm>
-0.320993

>  <SCORE.INTRA>
-5.35749

>  <SCORE.INTRA.DIHEDRAL>
-10.8987

>  <SCORE.INTRA.DIHEDRAL.0>
16.2083

>  <SCORE.INTRA.POLAR>
0

>  <SCORE.INTRA.POLAR.0>
0

>  <SCORE.INTRA.REPUL>
0

>  <SCORE.INTRA.REPUL.0>
0

>  <SCORE.INTRA.SOLV>
-2.17851

>  <SCORE.INTRA.SOLV.lig_0>
-89.8095

>  <SCORE.INTRA.VDW>
1.18113

>  <SCORE.INTRA.VDW.0>
-3.19502

>  <SCORE.INTRA.norm>
-0.144797

>  <SCORE.RESTR>
0

>  <SCORE.RESTR.CAVITY>
0

>  <SCORE.RESTR.norm>
0

>  <SCORE.SYSTEM>
0

>  <SCORE.SYSTEM.CONST>
0

>  <SCORE.SYSTEM.DIHEDRAL>
0

>  <SCORE.SYSTEM.SOLV>
0

>  <SCORE.SYSTEM.norm>
0

>  <SCORE.heavy>
37

>  <SCORE.norm>
-0.46579

>  <RMSD>
9.870

$$$$
2oe5_lig
 OpenBabel11021811463D
libRbt.so/2013.1/901 2013/11/27
 37 40  0  0  0  0  0  0  0  0999 V2000
   19.8545   -2.6523   49.9377 C   0  0  1  0  0  0  0  0  0  0  0  0
   20.8257   -3.3449   50.9197 C   0  0  1  0  0  0  0  0  0  0  0  0
   20.3719   -3.0459   52.3968 C   0  0  0  0  0  0  0  0  0  0  0  0
   20.4038   -1.5069   52.5298 C   0  0  1  0  0  0  0  0  0  0  0  0
   19.4010   -0.8099   51.5075 C   0  0  1  0  0  0  0  0  0  0  0  0
   19.4123    0.7384   51.6299 C   0  0  1  0  0  0  0  0  0  0  0  0
   19.0045    1.0781   53.0917 C   0  0  1  0  0  0  0  0  0  0  0  0
   19.9925    0.3343   54.0683 C   0  0  2  0  0  0  0  0  0  0  0  0
   18.5061    3.1702   54.5876 C   0  0  0  0  0  0  0  0  0  0  0  0
   20.8207   -4.8078   50.6889 N   0  0  0  0  0  0  0  0  0  0  0  0
   19.0394    2.5728   53.3138 N   0  0  0  0  0  0  0  0  0  0  0  0
   18.5173   -3.1660   50.0521 O   0  0  0  0  0  0  0  0  0  0  0  0
   19.7916   -1.1985   50.1508 O   0  0  0  0  0  0  0  0  0  0  0  0
   19.9993   -1.1284   53.8729 O   0  0  0  0  0  0  0  0  0  0  0  0
   20.7347    1.1948   51.3279 O   0  0  0  0  0  0  0  0  0  0  0  0
   19.6138    0.5691   55.4102 O   0  0  0  0  0  0  0  0  0  0  0  0
   20.6195    0.1033   56.2903 C   0  0  2  0  0  0  0  0  0  0  0  0
   20.4000    0.5783   57.7262 C   0  0  1  0  0  0  0  0  0  0  0  0
   20.5041    2.1249   57.8276 C   0  0  2  0  0  0  0  0  0  0  0  0
   21.9053    2.5371   57.2866 C   0  0  1  0  0  0  0  0  0  0  0  0
   22.0180    2.0509   55.8043 C   0  0  1  0  0  0  0  0  0  0  0  0
   23.3664    2.3533   55.1897 C   0  0  0  0  0  0  0  0  0  0  0  0
   22.0178    4.0411   57.3837 N   0  0  0  0  0  0  0  0  0  0  0  0
   21.9104    0.5871   55.8031 O   0  0  0  0  0  0  0  0  0  0  0  0
   19.0957    0.1240   58.1383 O   0  0  0  0  0  0  0  0  0  0  0  0
   20.3970    2.4890   59.2157 O   0  0  0  0  0  0  0  0  0  0  0  0
   24.3998    1.7272   55.8699 O   0  0  0  0  0  0  0  0  0  0  0  0
   18.0981   -3.9579   48.9405 C   0  0  1  0  0  0  0  0  0  0  0  0
   18.4812   -3.2382   47.5980 C   0  0  1  0  0  0  0  0  0  0  0  0
   18.0224   -4.1337   46.3913 C   0  0  2  0  0  0  0  0  0  0  0  0
   18.7377   -5.4912   46.4654 C   0  0  1  0  0  0  0  0  0  0  0  0
   18.3407   -6.2189   47.8074 C   0  0  0  0  0  0  0  0  0  0  0  0
   18.7870   -5.3134   49.0221 C   0  0  2  0  0  0  0  0  0  0  0  0
   18.3192   -6.3025   45.3341 N   0  0  0  0  0  0  0  0  0  0  0  0
   18.4101   -5.9553   50.3089 N   0  0  0  0  0  0  0  0  0  0  0  0
   17.8056   -1.9500   47.5238 O   0  0  0  0  0  0  0  0  0  0  0  0
   18.3793   -3.5032   45.1900 O   0  0  0  0  0  0  0  0  0  0  0  0
  1  2  1  0  0  0  0
  1 12  1  1  0  0  0
  1 13  1  0  0  0  0
  2  3  1  0  0  0  0
  2 10  1  6  0  0  0
  4  3  1  1  0  0  0
  4  5  1  0  0  0  0
  4 14  1  0  0  0  0
  5  6  1  0  0  0  0
  5 13  1  6  0  0  0
  6  7  1  0  0  0  0
  6 15  1  1  0  0  0
  7  8  1  0  0  0  0
  7 11  1  6  0  0  0
  8 14  1  0  0  0  0
  8 16  1  1  0  0  0
  9 11  1  0  0  0  0
 17 16  1  6  0  0  0
 17 18  1  0  0  0  0
 17 24  1  0  0  0  0
 18 19  1  0  0  0  0
 18 25  1  6  0  0  0
 19 20  1  0  0  0  0
 19 26  1  1  0  0  0
 20 21  1  0  0  0  0
 20 23  1  6  0  0  0
 21 22  1  1  0  0  0
 21 24  1  0  0  0  0
 22 27  1  0  0  0  0
 28 12  1  1  0  0  0
 28 29  1  0  0  0  0
 28 33  1  0  0  0  0
 29 30  1  0  0  0  0
 29 36  1  6  0  0  0
 30 31  1  0  0  0  0
 30 37  1  6  0  0  0
 31 32  1  0  0  0  0
 31 34  1  6  0  0  0
 32 33  1  0  0  0  0
 33 35  1  1  0  0  0
M  END
>  <CHROM.1>
-109.15040018,171.57384917,-169.88558492,168.45948392,60.87621304,-45.82585196
19.90755246,-1.02177669,52.37600980,-2.62088741,-1.31575227,-0.07961377

>  <Name>
2oe5_lig

>  <RI>
0

>  <Rbt.Current_Directory>
/home/itssahil/PROJECTS/Mol_Feturizer/New_Systems/rnas/2oe5

>  <Rbt.Executable>
rbdock ($Id: //depot/dev/client3/rdock/2013.1/src/exe/rbdock.cxx#4 $)

>  <Rbt.Library>
libRbt.so (2013.1, Build901 2013/11/27)

>  <Rbt.Parameter_File>
/export/apps/rDock/src/rDock_2013.1_src/data/scripts/dock_solv.prm

>  <Rbt.Receptor>
prm/pocket_docking_6.prm

>  <SCORE>
-14.92

>  <SCORE.INTER>
-15.8188

>  <SCORE.INTER.CONST>
1

>  <SCORE.INTER.POLAR>
-2.43505

>  <SCORE.INTER.ROT>
6

>  <SCORE.INTER.SOLV>
12.4962

>  <SCORE.INTER.VDW>
-14.1944

>  <SCORE.INTER.norm>
-0.427534

>  <SCORE.INTRA>
0.898808

>  <SCORE.INTRA.DIHEDRAL>
-7.42931

>  <SCORE.INTRA.DIHEDRAL.0>
16.2083

>  <SCORE.INTRA.POLAR>
0

>  <SCORE.INTRA.POLAR.0>
0

>  <SCORE.INTRA.REPUL>
0

>  <SCORE.INTRA.REPUL.0>
0

>  <SCORE.INTRA.SOLV>
2.93386

>  <SCORE.INTRA.SOLV.lig_0>
-89.8095

>  <SCORE.INTRA.VDW>
3.14653

>  <SCORE.INTRA.VDW.0>
-3.19502

>  <SCORE.INTRA.norm>
0.0242921

>  <SCORE.RESTR>
0

>  <SCORE.RESTR.CAVITY>
0

>  <SCORE.RESTR.norm>
0

>  <SCORE.SYSTEM>
0

>  <SCORE.SYSTEM.CONST>
0

>  <SCORE.SYSTEM.DIHEDRAL>
0

>  <SCORE.SYSTEM.SOLV>
0

>  <SCORE.SYSTEM.norm>
0

>  <SCORE.heavy>
37

>  <SCORE.norm>
-0.403242

>  <RMSD>
9.872

$$$$
2oe5_lig
 OpenBabel11021811463D
libRbt.so/2013.1/901 2013/11/27
 37 40  0  0  0  0  0  0  0  0999 V2000
   22.3602   -2.1938   49.4885 C   0  0  1  0  0  0  0  0  0  0  0  0
   23.4527   -2.5768   50.5118 C   0  0  1  0  0  0  0  0  0  0  0  0
   22.8387   -2.5521   51.9608 C   0  0  0  0  0  0  0  0  0  0  0  0
   22.3279   -1.1079   52.1628 C   0  0  1  0  0  0  0  0  0  0  0  0
   21.2067   -0.7289   51.0971 C   0  0  1  0  0  0  0  0  0  0  0  0
   20.6740    0.7176   51.2873 C   0  0  1  0  0  0  0  0  0  0  0  0
   20.0899    0.7973   52.7265 C   0  0  1  0  0  0  0  0  0  0  0  0
   21.2161    0.3725   53.7436 C   0  0  2  0  0  0  0  0  0  0  0  0
   18.7429    2.4699   54.2268 C   0  0  0  0  0  0  0  0  0  0  0  0
   23.9680   -3.9338   50.2178 N   0  0  0  0  0  0  0  0  0  0  0  0
   19.5921    2.1949   53.0156 N   0  0  0  0  0  0  0  0  0  0  0  0
   21.2795   -3.1409   49.4762 O   0  0  0  0  0  0  0  0  0  0  0  0
   21.7855   -0.8675   49.7592 O   0  0  0  0  0  0  0  0  0  0  0  0
   21.7404   -0.9827   53.4856 O   0  0  0  0  0  0  0  0  0  0  0  0
   21.7716    1.6186   51.1092 O   0  0  0  0  0  0  0  0  0  0  0  0
   20.7026    0.3720   55.0609 O   0  0  0  0  0  0  0  0  0  0  0  0
   21.7615    0.4317   55.9980 C   0  0  2  0  0  0  0  0  0  0  0  0
   21.4422   -0.3294   57.2842 C   0  0  1  0  0  0  0  0  0  0  0  0
   20.2444    0.3147   58.0348 C   0  0  2  0  0  0  0  0  0  0  0  0
   20.6119    1.8020   58.3155 C   0  0  1  0  0  0  0  0  0  0  0  0
   20.8748    2.5064   56.9440 C   0  0  1  0  0  0  0  0  0  0  0  0
   21.2932    3.9516   57.0986 C   0  0  0  0  0  0  0  0  0  0  0  0
   19.4532    2.4375   59.0486 N   0  0  0  0  0  0  0  0  0  0  0  0
   22.0162    1.8378   56.3079 O   0  0  0  0  0  0  0  0  0  0  0  0
   21.1458   -1.6920   56.9191 O   0  0  0  0  0  0  0  0  0  0  0  0
   20.0721   -0.3829   59.2816 O   0  0  0  0  0  0  0  0  0  0  0  0
   21.5089    4.5641   55.8735 O   0  0  0  0  0  0  0  0  0  0  0  0
   20.2918   -2.8879   48.4767 C   0  0  1  0  0  0  0  0  0  0  0  0
   20.8590   -3.2594   47.0599 C   0  0  1  0  0  0  0  0  0  0  0  0
   19.7511   -2.9855   45.9801 C   0  0  2  0  0  0  0  0  0  0  0  0
   18.5214   -3.8552   46.2821 C   0  0  1  0  0  0  0  0  0  0  0  0
   17.9444   -3.4710   47.6990 C   0  0  0  0  0  0  0  0  0  0  0  0
   19.0616   -3.7308   48.7848 C   0  0  2  0  0  0  0  0  0  0  0  0
   17.5120   -3.6066   45.2660 N   0  0  0  0  0  0  0  0  0  0  0  0
   18.5637   -3.3592   50.1353 N   0  0  0  0  0  0  0  0  0  0  0  0
   22.0258   -2.4374   46.7696 O   0  0  0  0  0  0  0  0  0  0  0  0
   20.2473   -3.3335   44.7148 O   0  0  0  0  0  0  0  0  0  0  0  0
  1  2  1  0  0  0  0
  1 12  1  1  0  0  0
  1 13  1  0  0  0  0
  2  3  1  0  0  0  0
  2 10  1  6  0  0  0
  4  3  1  6  0  0  0
  4  5  1  0  0  0  0
  4 14  1  0  0  0  0
  5  6  1  0  0  0  0
  5 13  1  6  0  0  0
  6  7  1  0  0  0  0
  6 15  1  1  0  0  0
  7  8  1  0  0  0  0
  7 11  1  1  0  0  0
  8 14  1  0  0  0  0
  8 16  1  1  0  0  0
  9 11  1  0  0  0  0
 17 16  1  6  0  0  0
 17 18  1  0  0  0  0
 17 24  1  0  0  0  0
 18 19  1  0  0  0  0
 18 25  1  6  0  0  0
 19 20  1  0  0  0  0
 19 26  1  1  0  0  0
 20 21  1  0  0  0  0
 20 23  1  6  0  0  0
 21 22  1  1  0  0  0
 21 24  1  0  0  0  0
 22 27  1  0  0  0  0
 28 12  1  1  0  0  0
 28 29  1  0  0  0  0
 28 33  1  0  0  0  0
 29 30  1  0  0  0  0
 29 36  1  6  0  0  0
 30 31  1  0  0  0  0
 30 37  1  6  0  0  0
 31 32  1  0  0  0  0
 31 34  1  6  0  0  0
 32 33  1  0  0  0  0
 33 35  1  1  0  0  0
M  END
>  <CHROM.1>
-175.51736534,167.92294971,-160.74915913,-147.11350282,-179.38982451,73.26102265
20.79734306,-0.70244292,52.23281334,-1.66463212,-0.93579945,1.04209329

>  <Name>
2oe5_lig

>  <RI>
0

>  <Rbt.Current_Directory>
/home/itssahil/PROJECTS/Mol_Feturizer/New_Systems/rnas/2oe5

>  <Rbt.Executable>
rbdock ($Id: //depot/dev/client3/rdock/2013.1/src/exe/rbdock.cxx#4 $)

>  <Rbt.Library>
libRbt.so (2013.1, Build901 2013/11/27)

>  <Rbt.Parameter_File>
/export/apps/rDock/src/rDock_2013.1_src/data/scripts/dock_solv.prm

>  <Rbt.Receptor>
prm/pocket_docking_3.prm

>  <SCORE>
-16.3707

>  <SCORE.INTER>
-10.9634

>  <SCORE.INTER.CONST>
1

>  <SCORE.INTER.POLAR>
-0.940085

>  <SCORE.INTER.ROT>
6

>  <SCORE.INTER.SOLV>
11.939

>  <SCORE.INTER.VDW>
-15.755

>  <SCORE.INTER.norm>
-0.296308

>  <SCORE.INTRA>
-5.54128

>  <SCORE.INTRA.DIHEDRAL>
-9.26125

>  <SCORE.INTRA.DIHEDRAL.0>
16.2083

>  <SCORE.INTRA.POLAR>
0

>  <SCORE.INTRA.POLAR.0>
0

>  <SCORE.INTRA.REPUL>
0

>  <SCORE.INTRA.REPUL.0>
0

>  <SCORE.INTRA.SOLV>
-2.45876

>  <SCORE.INTRA.SOLV.lig_0>
-89.8095

>  <SCORE.INTRA.VDW>
0.318729

>  <SCORE.INTRA.VDW.0>
-3.19502

>  <SCORE.INTRA.norm>
-0.149764

>  <SCORE.RESTR>
0.133968

>  <SCORE.RESTR.CAVITY>
0.133968

>  <SCORE.RESTR.norm>
0.00362076

>  <SCORE.SYSTEM>
0

>  <SCORE.SYSTEM.CONST>
0

>  <SCORE.SYSTEM.DIHEDRAL>
0

>  <SCORE.SYSTEM.SOLV>
0

>  <SCORE.SYSTEM.norm>
0

>  <SCORE.heavy>
37

>  <SCORE.norm>
-0.442451

>  <RMSD>
9.875

$$$$
2oe5_lig
 OpenBabel11021811463D
libRbt.so/2013.1/901 2013/11/27
 37 40  0  0  0  0  0  0  0  0999 V2000
   20.7556   -3.3509   49.1268 C   0  0  1  0  0  0  0  0  0  0  0  0
   19.6462   -3.2896   50.2005 C   0  0  1  0  0  0  0  0  0  0  0  0
   19.5388   -1.8198   50.7530 C   0  0  0  0  0  0  0  0  0  0  0  0
   20.9341   -1.4994   51.3341 C   0  0  1  0  0  0  0  0  0  0  0  0
   22.0652   -1.5721   50.2153 C   0  0  1  0  0  0  0  0  0  0  0  0
   23.4758   -1.2459   50.7775 C   0  0  1  0  0  0  0  0  0  0  0  0
   23.4040    0.1902   51.3701 C   0  0  1  0  0  0  0  0  0  0  0  0
   22.2456    0.2293   52.4378 C   0  0  2  0  0  0  0  0  0  0  0  0
   25.1795   -0.0548   53.2807 C   0  0  0  0  0  0  0  0  0  0  0  0
   18.3483   -3.6905   49.6104 N   0  0  0  0  0  0  0  0  0  0  0  0
   24.7295    0.5710   51.9885 N   0  0  0  0  0  0  0  0  0  0  0  0
   20.4519   -2.5232   47.9921 O   0  0  0  0  0  0  0  0  0  0  0  0
   22.0612   -2.9235   49.6516 O   0  0  0  0  0  0  0  0  0  0  0  0
   20.9350   -0.1516   51.8764 O   0  0  0  0  0  0  0  0  0  0  0  0
   23.7866   -2.2189   51.7799 O   0  0  0  0  0  0  0  0  0  0  0  0
   22.1082    1.5384   52.9542 O   0  0  0  0  0  0  0  0  0  0  0  0
   21.1708    1.5493   54.0145 C   0  0  2  0  0  0  0  0  0  0  0  0
   19.9226    2.3642   53.6776 C   0  0  1  0  0  0  0  0  0  0  0  0
   20.2703    3.8643   53.4729 C   0  0  2  0  0  0  0  0  0  0  0  0
   20.9593    4.3680   54.7758 C   0  0  1  0  0  0  0  0  0  0  0  0
   22.2447    3.5086   55.0111 C   0  0  1  0  0  0  0  0  0  0  0  0
   22.9709    3.8779   56.2853 C   0  0  0  0  0  0  0  0  0  0  0  0
   21.2992    5.8285   54.5879 N   0  0  0  0  0  0  0  0  0  0  0  0
   21.8246    2.1142   55.1941 O   0  0  0  0  0  0  0  0  0  0  0  0
   19.3487    1.8028   52.4805 O   0  0  0  0  0  0  0  0  0  0  0  0
   19.0405    4.5833   53.2689 O   0  0  0  0  0  0  0  0  0  0  0  0
   24.1318    3.1388   56.4548 O   0  0  0  0  0  0  0  0  0  0  0  0
   19.9733   -3.2423   46.8552 C   0  0  1  0  0  0  0  0  0  0  0  0
   18.6443   -2.5893   46.3314 C   0  0  1  0  0  0  0  0  0  0  0  0
   18.1453   -3.3886   45.0743 C   0  0  2  0  0  0  0  0  0  0  0  0
   19.2147   -3.3234   43.9735 C   0  0  1  0  0  0  0  0  0  0  0  0
   20.5443   -3.9924   44.4959 C   0  0  0  0  0  0  0  0  0  0  0  0
   21.0398   -3.2001   45.7692 C   0  0  2  0  0  0  0  0  0  0  0  0
   18.7333   -4.0502   42.8102 N   0  0  0  0  0  0  0  0  0  0  0  0
   22.2823   -3.8143   46.3068 N   0  0  0  0  0  0  0  0  0  0  0  0
   17.6273   -2.6483   47.3724 O   0  0  0  0  0  0  0  0  0  0  0  0
   16.9680   -2.7973   44.5919 O   0  0  0  0  0  0  0  0  0  0  0  0
  1  2  1  0  0  0  0
  1 12  1  6  0  0  0
  1 13  1  0  0  0  0
  2  3  1  0  0  0  0
  2 10  1  6  0  0  0
  4  3  1  6  0  0  0
  4  5  1  0  0  0  0
  4 14  1  0  0  0  0
  5  6  1  0  0  0  0
  5 13  1  1  0  0  0
  6  7  1  0  0  0  0
  6 15  1  1  0  0  0
  7  8  1  0  0  0  0
  7 11  1  1  0  0  0
  8 14  1  0  0  0  0
  8 16  1  6  0  0  0
  9 11  1  0  0  0  0
 17 16  1  6  0  0  0
 17 18  1  0  0  0  0
 17 24  1  0  0  0  0
 18 19  1  0  0  0  0
 18 25  1  6  0  0  0
 19 20  1  0  0  0  0
 19 26  1  1  0  0  0
 20 21  1  0  0  0  0
 20 23  1  6  0  0  0
 21 22  1  1  0  0  0
 21 24  1  0  0  0  0
 22 27  1  0  0  0  0
 28 12  1  1  0  0  0
 28 29  1  0  0  0  0
 28 33  1  0  0  0  0
 29 30  1  0  0  0  0
 29 36  1  1  0  0  0
 30 31  1  0  0  0  0
 30 37  1  6  0  0  0
 31 32  1  0  0  0  0
 31 34  1  6  0  0  0
 32 33  1  0  0  0  0
 33 35  1  1  0  0  0
M  END
>  <CHROM.1>
-102.24601672,-72.12339935,-173.68109117,-114.60192359,-177.92275352,129.21750659
20.97718281,-0.45740263,50.53471433,-1.84233861,-0.45257862,0.81557300

>  <Name>
2oe5_lig

>  <RI>
0

>  <Rbt.Current_Directory>
/home/itssahil/PROJECTS/Mol_Feturizer/New_Systems/rnas/2oe5

>  <Rbt.Executable>
rbdock ($Id: //depot/dev/client3/rdock/2013.1/src/exe/rbdock.cxx#4 $)

>  <Rbt.Library>
libRbt.so (2013.1, Build901 2013/11/27)

>  <Rbt.Parameter_File>
/export/apps/rDock/src/rDock_2013.1_src/data/scripts/dock_solv.prm

>  <Rbt.Receptor>
prm/pocket_docking_7.prm

>  <SCORE>
-15.3805

>  <SCORE.INTER>
-18.5465

>  <SCORE.INTER.CONST>
1

>  <SCORE.INTER.POLAR>
-1.76161

>  <SCORE.INTER.ROT>
6

>  <SCORE.INTER.SOLV>
18.6788

>  <SCORE.INTER.VDW>
-20.3186

>  <SCORE.INTER.norm>
-0.501257

>  <SCORE.INTRA>
3.16601

>  <SCORE.INTRA.DIHEDRAL>
3.72846

>  <SCORE.INTRA.DIHEDRAL.0>
16.2083

>  <SCORE.INTRA.POLAR>
0

>  <SCORE.INTRA.POLAR.0>
0

>  <SCORE.INTRA.REPUL>
0

>  <SCORE.INTRA.REPUL.0>
0

>  <SCORE.INTRA.SOLV>
0.303337

>  <SCORE.INTRA.SOLV.lig_0>
-89.8095

>  <SCORE.INTRA.VDW>
1.15011

>  <SCORE.INTRA.VDW.0>
-3.19502

>  <SCORE.INTRA.norm>
0.0855679

>  <SCORE.RESTR>
0

>  <SCORE.RESTR.CAVITY>
0

>  <SCORE.RESTR.norm>
0

>  <SCORE.SYSTEM>
0

>  <SCORE.SYSTEM.CONST>
0

>  <SCORE.SYSTEM.DIHEDRAL>
0

>  <SCORE.SYSTEM.SOLV>
0

>  <SCORE.SYSTEM.norm>
0

>  <SCORE.heavy>
37

>  <SCORE.norm>
-0.415689

>  <RMSD>
9.878

$$$$
2oe5_lig
 OpenBabel11021811463D
libRbt.so/2013.1/901 2013/11/27
 37 40  0  0  0  0  0  0  0  0999 V2000
   22.2680   -1.8876   49.5978 C   0  0  1  0  0  0  0  0  0  0  0  0
   23.3670   -2.2043   50.6367 C   0  0  1  0  0  0  0  0  0  0  0  0
   22.7242   -2.2601   52.0722 C   0  0  0  0  0  0  0  0  0  0  0  0
   22.0953   -0.8660   52.2921 C   0  0  1  0  0  0  0  0  0  0  0  0
   20.9688   -0.5546   51.2102 C   0  0  1  0  0  0  0  0  0  0  0  0
   20.3181    0.8403   51.4178 C   0  0  1  0  0  0  0  0  0  0  0  0
   19.7009    0.8419   52.8453 C   0  0  1  0  0  0  0  0  0  0  0  0
   20.8370    0.4863   53.8777 C   0  0  2  0  0  0  0  0  0  0  0  0
   19.9590    3.3927   53.3833 C   0  0  0  0  0  0  0  0  0  0  0  0
   23.9952   -3.5092   50.3268 N   0  0  0  0  0  0  0  0  0  0  0  0
   19.0869    2.1887   53.1514 N   0  0  0  0  0  0  0  0  0  0  0  0
   21.2671   -2.9173   49.5432 O   0  0  0  0  0  0  0  0  0  0  0  0
   21.5834   -0.6175   49.8825 O   0  0  0  0  0  0  0  0  0  0  0  0
   21.4734   -0.8168   53.6041 O   0  0  0  0  0  0  0  0  0  0  0  0
   21.3432    1.8296   51.2815 O   0  0  0  0  0  0  0  0  0  0  0  0
   20.2989    0.4162   55.1834 O   0  0  0  0  0  0  0  0  0  0  0  0
   21.0922    1.1712   56.0799 C   0  0  2  0  0  0  0  0  0  0  0  0
   22.1994    0.3351   56.7208 C   0  0  1  0  0  0  0  0  0  0  0  0
   21.6074   -0.7940   57.6083 C   0  0  2  0  0  0  0  0  0  0  0  0
   20.6948   -0.1213   58.6762 C   0  0  1  0  0  0  0  0  0  0  0  0
   19.5709    0.6691   57.9289 C   0  0  1  0  0  0  0  0  0  0  0  0
   18.6498    1.4102   58.8722 C   0  0  0  0  0  0  0  0  0  0  0  0
   20.1157   -1.2121   59.5474 N   0  0  0  0  0  0  0  0  0  0  0  0
   20.2167    1.7096   57.1197 O   0  0  0  0  0  0  0  0  0  0  0  0
   22.9984   -0.2159   55.6551 O   0  0  0  0  0  0  0  0  0  0  0  0
   22.6992   -1.4663   58.2617 O   0  0  0  0  0  0  0  0  0  0  0  0
   19.3253    2.3690   59.6118 O   0  0  0  0  0  0  0  0  0  0  0  0
   20.3134   -2.7506   48.4938 C   0  0  1  0  0  0  0  0  0  0  0  0
   20.9834   -3.0666   47.1087 C   0  0  1  0  0  0  0  0  0  0  0  0
   19.9124   -2.8895   45.9729 C   0  0  2  0  0  0  0  0  0  0  0  0
   18.7510   -3.8658   46.2131 C   0  0  1  0  0  0  0  0  0  0  0  0
   18.0702   -3.5380   47.5978 C   0  0  0  0  0  0  0  0  0  0  0  0
   19.1489   -3.7003   48.7400 C   0  0  2  0  0  0  0  0  0  0  0  0
   17.7769   -3.7053   45.1461 N   0  0  0  0  0  0  0  0  0  0  0  0
   18.5513   -3.3779   50.0624 N   0  0  0  0  0  0  0  0  0  0  0  0
   22.0859   -2.1434   46.8770 O   0  0  0  0  0  0  0  0  0  0  0  0
   20.5018   -3.1888   44.7355 O   0  0  0  0  0  0  0  0  0  0  0  0
  1  2  1  0  0  0  0
  1 12  1  1  0  0  0
  1 13  1  0  0  0  0
  2  3  1  0  0  0  0
  2 10  1  6  0  0  0
  4  3  1  6  0  0  0
  4  5  1  0  0  0  0
  4 14  1  0  0  0  0
  5  6  1  0  0  0  0
  5 13  1  6  0  0  0
  6  7  1  0  0  0  0
  6 15  1  1  0  0  0
  7  8  1  0  0  0  0
  7 11  1  1  0  0  0
  8 14  1  0  0  0  0
  8 16  1  1  0  0  0
  9 11  1  0  0  0  0
 17 16  1  6  0  0  0
 17 18  1  0  0  0  0
 17 24  1  0  0  0  0
 18 19  1  0  0  0  0
 18 25  1  6  0  0  0
 19 20  1  0  0  0  0
 19 26  1  1  0  0  0
 20 21  1  0  0  0  0
 20 23  1  1  0  0  0
 21 22  1  1  0  0  0
 21 24  1  0  0  0  0
 22 27  1  0  0  0  0
 28 12  1  1  0  0  0
 28 29  1  0  0  0  0
 28 33  1  0  0  0  0
 29 30  1  0  0  0  0
 29 36  1  6  0  0  0
 30 31  1  0  0  0  0
 30 37  1  6  0  0  0
 31 32  1  0  0  0  0
 31 34  1  6  0  0  0
 32 33  1  0  0  0  0
 33 35  1  1  0  0  0
M  END
>  <CHROM.1>
-173.14222237,-70.84664159,-131.18244225,-90.49941775,62.05693652,72.46683943
20.73537070,-0.88637535,52.39334136,-1.61025503,-0.63067855,1.20766494

>  <Name>
2oe5_lig

>  <RI>
0

>  <Rbt.Current_Directory>
/home/itssahil/PROJECTS/Mol_Feturizer/New_Systems/rnas/2oe5

>  <Rbt.Executable>
rbdock ($Id: //depot/dev/client3/rdock/2013.1/src/exe/rbdock.cxx#4 $)

>  <Rbt.Library>
libRbt.so (2013.1, Build901 2013/11/27)

>  <Rbt.Parameter_File>
/export/apps/rDock/src/rDock_2013.1_src/data/scripts/dock_solv.prm

>  <Rbt.Receptor>
prm/pocket_docking_4.prm

>  <SCORE>
-15.278

>  <SCORE.INTER>
-13.734

>  <SCORE.INTER.CONST>
1

>  <SCORE.INTER.POLAR>
-1.25957

>  <SCORE.INTER.ROT>
6

>  <SCORE.INTER.SOLV>
18.2278

>  <SCORE.INTER.VDW>
-18.6333

>  <SCORE.INTER.norm>
-0.371188

>  <SCORE.INTRA>
-1.54401

>  <SCORE.INTRA.DIHEDRAL>
-4.79859

>  <SCORE.INTRA.DIHEDRAL.0>
16.2083

>  <SCORE.INTRA.POLAR>
0

>  <SCORE.INTRA.POLAR.0>
0

>  <SCORE.INTRA.REPUL>
0

>  <SCORE.INTRA.REPUL.0>
0

>  <SCORE.INTRA.SOLV>
-1.38655

>  <SCORE.INTRA.SOLV.lig_0>
-89.8095

>  <SCORE.INTRA.VDW>
1.54856

>  <SCORE.INTRA.VDW.0>
-3.19502

>  <SCORE.INTRA.norm>
-0.0417299

>  <SCORE.RESTR>
0

>  <SCORE.RESTR.CAVITY>
0

>  <SCORE.RESTR.norm>
0

>  <SCORE.SYSTEM>
0

>  <SCORE.SYSTEM.CONST>
0

>  <SCORE.SYSTEM.DIHEDRAL>
0

>  <SCORE.SYSTEM.SOLV>
0

>  <SCORE.SYSTEM.norm>
0

>  <SCORE.heavy>
37

>  <SCORE.norm>
-0.412918

>  <RMSD>
9.888

$$$$
2oe5_lig
 OpenBabel11021811463D
libRbt.so/2013.1/901 2013/11/27
 37 40  0  0  0  0  0  0  0  0999 V2000
   19.9220   -1.8183   49.8963 C   0  0  1  0  0  0  0  0  0  0  0  0
   21.3100   -1.2204   49.5753 C   0  0  1  0  0  0  0  0  0  0  0  0
   22.1243   -1.0511   50.9115 C   0  0  0  0  0  0  0  0  0  0  0  0
   21.2715   -0.1109   51.7926 C   0  0  1  0  0  0  0  0  0  0  0  0
   19.8434   -0.7406   52.1092 C   0  0  1  0  0  0  0  0  0  0  0  0
   18.9722    0.1861   53.0004 C   0  0  1  0  0  0  0  0  0  0  0  0
   19.7601    0.4113   54.3222 C   0  0  1  0  0  0  0  0  0  0  0  0
   21.1800    0.9916   53.9611 C   0  0  2  0  0  0  0  0  0  0  0  0
   18.7658    2.7806   54.8328 C   0  0  0  0  0  0  0  0  0  0  0  0
   22.0484   -2.1192   48.6586 N   0  0  0  0  0  0  0  0  0  0  0  0
   19.0023    1.3496   55.2332 N   0  0  0  0  0  0  0  0  0  0  0  0
   20.0221   -3.1331   50.4676 O   0  0  0  0  0  0  0  0  0  0  0  0
   19.1605   -0.9822   50.8365 O   0  0  0  0  0  0  0  0  0  0  0  0
   21.9473    0.1107   53.0594 O   0  0  0  0  0  0  0  0  0  0  0  0
   18.7642    1.4116   52.2911 O   0  0  0  0  0  0  0  0  0  0  0  0
   21.9503    1.1506   55.1360 O   0  0  0  0  0  0  0  0  0  0  0  0
   23.1260    1.8861   54.8535 C   0  0  2  0  0  0  0  0  0  0  0  0
   24.1642    1.7722   55.9691 C   0  0  1  0  0  0  0  0  0  0  0  0
   23.6403    2.4011   57.2894 C   0  0  2  0  0  0  0  0  0  0  0  0
   23.2708    3.8838   56.9883 C   0  0  1  0  0  0  0  0  0  0  0  0
   22.1744    3.8962   55.8729 C   0  0  1  0  0  0  0  0  0  0  0  0
   21.7739    5.2952   55.4610 C   0  0  0  0  0  0  0  0  0  0  0  0
   22.7622    4.5060   58.2683 N   0  0  0  0  0  0  0  0  0  0  0  0
   22.7528    3.2877   54.6689 O   0  0  0  0  0  0  0  0  0  0  0  0
   24.4559    0.3721   56.1484 O   0  0  0  0  0  0  0  0  0  0  0  0
   24.7041    2.3564   58.2576 O   0  0  0  0  0  0  0  0  0  0  0  0
   22.8664    6.0554   55.0723 O   0  0  0  0  0  0  0  0  0  0  0  0
   20.1658   -4.1789   49.5063 C   0  0  1  0  0  0  0  0  0  0  0  0
   21.2916   -5.1737   49.9644 C   0  0  1  0  0  0  0  0  0  0  0  0
   21.4217   -6.3210   48.8989 C   0  0  2  0  0  0  0  0  0  0  0  0
   20.0862   -7.0731   48.7968 C   0  0  1  0  0  0  0  0  0  0  0  0
   18.9595   -6.0760   48.3228 C   0  0  0  0  0  0  0  0  0  0  0  0
   18.8373   -4.9131   49.3845 C   0  0  2  0  0  0  0  0  0  0  0  0
   20.2254   -8.1429   47.8224 N   0  0  0  0  0  0  0  0  0  0  0  0
   17.7983   -3.9373   48.9624 N   0  0  0  0  0  0  0  0  0  0  0  0
   22.5601   -4.4645   50.0633 O   0  0  0  0  0  0  0  0  0  0  0  0
   22.4138   -7.2222   49.3136 O   0  0  0  0  0  0  0  0  0  0  0  0
  1  2  1  0  0  0  0
  1 12  1  1  0  0  0
  1 13  1  0  0  0  0
  2  3  1  0  0  0  0
  2 10  1  6  0  0  0
  4  3  1  6  0  0  0
  4  5  1  0  0  0  0
  4 14  1  0  0  0  0
  5  6  1  0  0  0  0
  5 13  1  6  0  0  0
  6  7  1  0  0  0  0
  6 15  1  6  0  0  0
  7  8  1  0  0  0  0
  7 11  1  1  0  0  0
  8 14  1  0  0  0  0
  8 16  1  1  0  0  0
  9 11  1  0  0  0  0
 17 16  1  1  0  0  0
 17 18  1  0  0  0  0
 17 24  1  0  0  0  0
 18 19  1  0  0  0  0
 18 25  1  1  0  0  0
 19 20  1  0  0  0  0
 19 26  1  1  0  0  0
 20 21  1  0  0  0  0
 20 23  1  1  0  0  0
 21 22  1  6  0  0  0
 21 24  1  0  0  0  0
 22 27  1  0  0  0  0
 28 12  1  1  0  0  0
 28 29  1  0  0  0  0
 28 33  1  0  0  0  0
 29 30  1  0  0  0  0
 29 36  1  6  0  0  0
 30 31  1  0  0  0  0
 30 37  1  1  0  0  0
 31 32  1  0  0  0  0
 31 34  1  6  0  0  0
 32 33  1  0  0  0  0
 33 35  1  6  0  0  0
M  END
>  <CHROM.1>
-83.20748773,-64.67331342,-169.64787452,-164.66182593,54.76115735,134.95315147
21.25628712,-0.62456644,52.62740639,1.79253762,0.47035821,-2.55504424

>  <Name>
2oe5_lig

>  <RI>
0

>  <Rbt.Current_Directory>
/home/itssahil/PROJECTS/Mol_Feturizer/New_Systems/rnas/2oe5

>  <Rbt.Executable>
rbdock ($Id: //depot/dev/client3/rdock/2013.1/src/exe/rbdock.cxx#4 $)

>  <Rbt.Library>
libRbt.so (2013.1, Build901 2013/11/27)

>  <Rbt.Parameter_File>
/export/apps/rDock/src/rDock_2013.1_src/data/scripts/dock_solv.prm

>  <Rbt.Receptor>
prm/pocket_docking_5.prm

>  <SCORE>
-15.3779

>  <SCORE.INTER>
-13.9843

>  <SCORE.INTER.CONST>
1

>  <SCORE.INTER.POLAR>
-1.64561

>  <SCORE.INTER.ROT>
6

>  <SCORE.INTER.SOLV>
11.3773

>  <SCORE.INTER.VDW>
-15.23

>  <SCORE.INTER.norm>
-0.377955

>  <SCORE.INTRA>
-1.39357

>  <SCORE.INTRA.DIHEDRAL>
-5.91337

>  <SCORE.INTRA.DIHEDRAL.0>
16.2083

>  <SCORE.INTRA.POLAR>
0

>  <SCORE.INTRA.POLAR.0>
0

>  <SCORE.INTRA.REPUL>
0

>  <SCORE.INTRA.REPUL.0>
0

>  <SCORE.INTRA.SOLV>
1.19282

>  <SCORE.INTRA.SOLV.lig_0>
-89.8095

>  <SCORE.INTRA.VDW>
0.9667

>  <SCORE.INTRA.VDW.0>
-3.19502

>  <SCORE.INTRA.norm>
-0.0376642

>  <SCORE.RESTR>
0

>  <SCORE.RESTR.CAVITY>
0

>  <SCORE.RESTR.norm>
0

>  <SCORE.SYSTEM>
0

>  <SCORE.SYSTEM.CONST>
0

>  <SCORE.SYSTEM.DIHEDRAL>
0

>  <SCORE.SYSTEM.SOLV>
0

>  <SCORE.SYSTEM.norm>
0

>  <SCORE.heavy>
37

>  <SCORE.norm>
-0.41562

>  <RMSD>
9.889

$$$$
2oe5_lig
 OpenBabel11021811463D
libRbt.so/2013.1/901 2013/11/27
 37 40  0  0  0  0  0  0  0  0999 V2000
   23.0624   -2.0853   48.9040 C   0  0  1  0  0  0  0  0  0  0  0  0
   24.2162   -2.6016   49.7926 C   0  0  1  0  0  0  0  0  0  0  0  0
   23.7697   -2.5574   51.3012 C   0  0  0  0  0  0  0  0  0  0  0  0
   23.4315   -1.0764   51.5833 C   0  0  1  0  0  0  0  0  0  0  0  0
   22.2443   -0.5600   50.6557 C   0  0  1  0  0  0  0  0  0  0  0  0
   21.8833    0.9258   50.9286 C   0  0  1  0  0  0  0  0  0  0  0  0
   21.4709    1.0221   52.4250 C   0  0  1  0  0  0  0  0  0  0  0  0
   22.6530    0.4609   53.3029 C   0  0  2  0  0  0  0  0  0  0  0  0
   19.7563    2.8448   53.2000 C   0  0  0  0  0  0  0  0  0  0  0  0
   24.5575   -3.9938   49.4201 N   0  0  0  0  0  0  0  0  0  0  0  0
   21.1503    2.4530   52.7913 N   0  0  0  0  0  0  0  0  0  0  0  0
   21.8973   -2.9213   48.9962 O   0  0  0  0  0  0  0  0  0  0  0  0
   22.6567   -0.7171   49.2595 O   0  0  0  0  0  0  0  0  0  0  0  0
   23.0075   -0.9313   52.9653 O   0  0  0  0  0  0  0  0  0  0  0  0
   23.0397    1.7197   50.6445 O   0  0  0  0  0  0  0  0  0  0  0  0
   22.2889    0.4738   54.6691 O   0  0  0  0  0  0  0  0  0  0  0  0
   23.4212    0.2182   55.4788 C   0  0  2  0  0  0  0  0  0  0  0  0
   23.1980   -0.9519   56.4363 C   0  0  1  0  0  0  0  0  0  0  0  0
   22.0734   -0.6331   57.4593 C   0  0  2  0  0  0  0  0  0  0  0  0
   22.4812    0.6665   58.2147 C   0  0  1  0  0  0  0  0  0  0  0  0
   22.6405    1.8125   57.1622 C   0  0  1  0  0  0  0  0  0  0  0  0
   23.0882    3.1179   57.7811 C   0  0  0  0  0  0  0  0  0  0  0  0
   21.3940    0.9840   59.2153 N   0  0  0  0  0  0  0  0  0  0  0  0
   23.7179    1.4296   56.2419 O   0  0  0  0  0  0  0  0  0  0  0  0
   22.8558   -2.1039   55.6403 O   0  0  0  0  0  0  0  0  0  0  0  0
   21.9943   -1.7274   58.3906 O   0  0  0  0  0  0  0  0  0  0  0  0
   24.3220    3.0019   58.4032 O   0  0  0  0  0  0  0  0  0  0  0  0
   20.8182   -2.5153   48.1540 C   0  0  1  0  0  0  0  0  0  0  0  0
   21.0460   -3.0558   46.6970 C   0  0  1  0  0  0  0  0  0  0  0  0
   19.8409   -2.6081   45.7937 C   0  0  2  0  0  0  0  0  0  0  0  0
   18.5379   -3.1942   46.3581 C   0  0  1  0  0  0  0  0  0  0  0  0
   18.3033   -2.6393   47.8159 C   0  0  0  0  0  0  0  0  0  0  0  0
   19.5211   -3.0747   48.7224 C   0  0  2  0  0  0  0  0  0  0  0  0
   17.4341   -2.7887   45.5035 N   0  0  0  0  0  0  0  0  0  0  0  0
   19.3487   -2.5512   50.1030 N   0  0  0  0  0  0  0  0  0  0  0  0
   22.2810   -2.5030   46.1580 O   0  0  0  0  0  0  0  0  0  0  0  0
   20.0311   -3.1046   44.4954 O   0  0  0  0  0  0  0  0  0  0  0  0
  1  2  1  0  0  0  0
  1 12  1  1  0  0  0
  1 13  1  0  0  0  0
  2  3  1  0  0  0  0
  2 10  1  6  0  0  0
  4  3  1  6  0  0  0
  4  5  1  0  0  0  0
  4 14  1  0  0  0  0
  5  6  1  0  0  0  0
  5 13  1  6  0  0  0
  6  7  1  0  0  0  0
  6 15  1  1  0  0  0
  7  8  1  0  0  0  0
  7 11  1  1  0  0  0
  8 14  1  0  0  0  0
  8 16  1  1  0  0  0
  9 11  1  0  0  0  0
 17 16  1  1  0  0  0
 17 18  1  0  0  0  0
 17 24  1  0  0  0  0
 18 19  1  0  0  0  0
 18 25  1  6  0  0  0
 19 20  1  0  0  0  0
 19 26  1  1  0  0  0
 20 21  1  0  0  0  0
 20 23  1  1  0  0  0
 21 22  1  1  0  0  0
 21 24  1  0  0  0  0
 22 27  1  0  0  0  0
 28 12  1  1  0  0  0
 28 29  1  0  0  0  0
 28 33  1  0  0  0  0
 29 30  1  0  0  0  0
 29 36  1  6  0  0  0
 30 31  1  0  0  0  0
 30 37  1  6  0  0  0
 31 32  1  0  0  0  0
 31 34  1  6  0  0  0
 32 33  1  0  0  0  0
 33 35  1  1  0  0  0
M  END
>  <CHROM.1>
-177.75113125,115.39203439,-168.81643039,-125.55360364,60.74945205,82.23251495
21.89953435,-0.78498722,51.94982440,-1.83656925,-0.65082083,1.05630629

>  <Name>
2oe5_lig

>  <RI>
0

>  <Rbt.Current_Directory>
/home/itssahil/PROJECTS/Mol_Feturizer/New_Systems/rnas/2oe5

>  <Rbt.Executable>
rbdock ($Id: //depot/dev/client3/rdock/2013.1/src/exe/rbdock.cxx#4 $)

>  <Rbt.Library>
libRbt.so (2013.1, Build901 2013/11/27)

>  <Rbt.Parameter_File>
/export/apps/rDock/src/rDock_2013.1_src/data/scripts/dock_solv.prm

>  <Rbt.Receptor>
prm/pocket_docking_4.prm

>  <SCORE>
-16.2036

>  <SCORE.INTER>
-12.7712

>  <SCORE.INTER.CONST>
1

>  <SCORE.INTER.POLAR>
-0.434508

>  <SCORE.INTER.ROT>
6

>  <SCORE.INTER.SOLV>
16.1742

>  <SCORE.INTER.VDW>
-20.0572

>  <SCORE.INTER.norm>
-0.345168

>  <SCORE.INTRA>
-3.43235

>  <SCORE.INTRA.DIHEDRAL>
-5.09284

>  <SCORE.INTRA.DIHEDRAL.0>
16.2083

>  <SCORE.INTRA.POLAR>
0

>  <SCORE.INTRA.POLAR.0>
0

>  <SCORE.INTRA.REPUL>
0

>  <SCORE.INTRA.REPUL.0>
0

>  <SCORE.INTRA.SOLV>
-1.69176

>  <SCORE.INTRA.SOLV.lig_0>
-89.8095

>  <SCORE.INTRA.VDW>
-0.040047

>  <SCORE.INTRA.VDW.0>
-3.19502

>  <SCORE.INTRA.norm>
-0.0927662

>  <SCORE.RESTR>
0

>  <SCORE.RESTR.CAVITY>
0

>  <SCORE.RESTR.norm>
0

>  <SCORE.SYSTEM>
0

>  <SCORE.SYSTEM.CONST>
0

>  <SCORE.SYSTEM.DIHEDRAL>
0

>  <SCORE.SYSTEM.SOLV>
0

>  <SCORE.SYSTEM.norm>
0

>  <SCORE.heavy>
37

>  <SCORE.norm>
-0.437934

>  <RMSD>
9.890

$$$$
2oe5_lig
 OpenBabel11021811463D
libRbt.so/2013.1/901 2013/11/27
 37 40  0  0  0  0  0  0  0  0999 V2000
   21.7268   -3.4526   47.5088 C   0  0  1  0  0  0  0  0  0  0  0  0
   20.7407   -4.1247   48.4902 C   0  0  1  0  0  0  0  0  0  0  0  0
   19.9984   -3.0141   49.3225 C   0  0  0  0  0  0  0  0  0  0  0  0
   21.1158   -2.2382   50.0552 C   0  0  1  0  0  0  0  0  0  0  0  0
   22.1250   -1.5566   49.0289 C   0  0  1  0  0  0  0  0  0  0  0  0
   23.2528   -0.7648   49.7453 C   0  0  1  0  0  0  0  0  0  0  0  0
   22.5587    0.3237   50.6125 C   0  0  1  0  0  0  0  0  0  0  0  0
   21.5387   -0.3882   51.5800 C   0  0  2  0  0  0  0  0  0  0  0  0
   24.2846    0.5039   52.5751 C   0  0  0  0  0  0  0  0  0  0  0  0
   19.7463   -4.9252   47.7393 N   0  0  0  0  0  0  0  0  0  0  0  0
   23.5877    1.1130   51.3889 N   0  0  0  0  0  0  0  0  0  0  0  0
   21.0497   -2.6252   46.5486 O   0  0  0  0  0  0  0  0  0  0  0  0
   22.7143   -2.6116   48.2018 O   0  0  0  0  0  0  0  0  0  0  0  0
   20.5248   -1.1831   50.8603 O   0  0  0  0  0  0  0  0  0  0  0  0
   23.9980   -1.6868   50.5471 O   0  0  0  0  0  0  0  0  0  0  0  0
   20.8411    0.5770   52.3421 O   0  0  0  0  0  0  0  0  0  0  0  0
   19.7462   -0.0242   53.0076 C   0  0  2  0  0  0  0  0  0  0  0  0
   18.6572    0.9869   53.3641 C   0  0  1  0  0  0  0  0  0  0  0  0
   19.1791    2.0384   54.3815 C   0  0  2  0  0  0  0  0  0  0  0  0
   19.6880    1.2661   55.6346 C   0  0  1  0  0  0  0  0  0  0  0  0
   20.8261    0.2945   55.1796 C   0  0  1  0  0  0  0  0  0  0  0  0
   21.3632   -0.5502   56.3134 C   0  0  0  0  0  0  0  0  0  0  0  0
   20.1957    2.2811   56.6326 N   0  0  0  0  0  0  0  0  0  0  0  0
   20.2470   -0.6591   54.2258 O   0  0  0  0  0  0  0  0  0  0  0  0
   18.2379    1.6219   52.1399 O   0  0  0  0  0  0  0  0  0  0  0  0
   18.0766    2.8857   54.7523 O   0  0  0  0  0  0  0  0  0  0  0  0
   20.4055   -1.4199   56.8124 O   0  0  0  0  0  0  0  0  0  0  0  0
   20.1477   -3.3343   45.6986 C   0  0  1  0  0  0  0  0  0  0  0  0
   18.7845   -2.5600   45.6029 C   0  0  1  0  0  0  0  0  0  0  0  0
   17.8150   -3.3516   44.6532 C   0  0  2  0  0  0  0  0  0  0  0  0
   18.4440   -3.4531   43.2554 C   0  0  1  0  0  0  0  0  0  0  0  0
   19.8058   -4.2433   43.3510 C   0  0  0  0  0  0  0  0  0  0  0  0
   20.7770   -3.4577   44.3175 C   0  0  2  0  0  0  0  0  0  0  0  0
   17.5296   -4.1705   42.3823 N   0  0  0  0  0  0  0  0  0  0  0  0
   22.0675   -4.1831   44.4523 N   0  0  0  0  0  0  0  0  0  0  0  0
   18.1847   -2.4608   46.9265 O   0  0  0  0  0  0  0  0  0  0  0  0
   16.6023   -2.6537   44.5502 O   0  0  0  0  0  0  0  0  0  0  0  0
  1  2  1  0  0  0  0
  1 12  1  6  0  0  0
  1 13  1  0  0  0  0
  2  3  1  0  0  0  0
  2 10  1  6  0  0  0
  4  3  1  6  0  0  0
  4  5  1  0  0  0  0
  4 14  1  0  0  0  0
  5  6  1  0  0  0  0
  5 13  1  1  0  0  0
  6  7  1  0  0  0  0
  6 15  1  1  0  0  0
  7  8  1  0  0  0  0
  7 11  1  1  0  0  0
  8 14  1  0  0  0  0
  8 16  1  6  0  0  0
  9 11  1  0  0  0  0
 17 16  1  1  0  0  0
 17 18  1  0  0  0  0
 17 24  1  0  0  0  0
 18 19  1  0  0  0  0
 18 25  1  6  0  0  0
 19 20  1  0  0  0  0
 19 26  1  1  0  0  0
 20 21  1  0  0  0  0
 20 23  1  1  0  0  0
 21 22  1  1  0  0  0
 21 24  1  0  0  0  0
 22 27  1  0  0  0  0
 28 12  1  1  0  0  0
 28 29  1  0  0  0  0
 28 33  1  0  0  0  0
 29 30  1  0  0  0  0
 29 36  1  1  0  0  0
 30 31  1  0  0  0  0
 30 37  1  6  0  0  0
 31 32  1  0  0  0  0
 31 34  1  6  0  0  0
 32 33  1  0  0  0  0
 33 35  1  1  0  0  0
M  END
>  <CHROM.1>
-62.22852402,-73.61597613,168.19367093,-156.78754702,64.88281652,133.84752567
20.44128555,-1.36069979,49.89448216,-1.66736157,-0.18195620,1.13535041

>  <Name>
2oe5_lig

>  <RI>
0

>  <Rbt.Current_Directory>
/home/itssahil/PROJECTS/Mol_Feturizer/New_Systems/rnas/2oe5

>  <Rbt.Executable>
rbdock ($Id: //depot/dev/client3/rdock/2013.1/src/exe/rbdock.cxx#4 $)

>  <Rbt.Library>
libRbt.so (2013.1, Build901 2013/11/27)

>  <Rbt.Parameter_File>
/export/apps/rDock/src/rDock_2013.1_src/data/scripts/dock_solv.prm

>  <Rbt.Receptor>
prm/pocket_docking_5.prm

>  <SCORE>
-20.5319

>  <SCORE.INTER>
-21.3576

>  <SCORE.INTER.CONST>
1

>  <SCORE.INTER.POLAR>
-1.57061

>  <SCORE.INTER.ROT>
6

>  <SCORE.INTER.SOLV>
17.4031

>  <SCORE.INTER.VDW>
-22.4041

>  <SCORE.INTER.norm>
-0.577233

>  <SCORE.INTRA>
0.825765

>  <SCORE.INTRA.DIHEDRAL>
-6.56176

>  <SCORE.INTRA.DIHEDRAL.0>
16.2083

>  <SCORE.INTRA.POLAR>
0

>  <SCORE.INTRA.POLAR.0>
0

>  <SCORE.INTRA.REPUL>
0

>  <SCORE.INTRA.REPUL.0>
0

>  <SCORE.INTRA.SOLV>
1.83583

>  <SCORE.INTRA.SOLV.lig_0>
-89.8095

>  <SCORE.INTRA.VDW>
3.18873

>  <SCORE.INTRA.VDW.0>
-3.19502

>  <SCORE.INTRA.norm>
0.022318

>  <SCORE.RESTR>
0

>  <SCORE.RESTR.CAVITY>
0

>  <SCORE.RESTR.norm>
0

>  <SCORE.SYSTEM>
0

>  <SCORE.SYSTEM.CONST>
0

>  <SCORE.SYSTEM.DIHEDRAL>
0

>  <SCORE.SYSTEM.SOLV>
0

>  <SCORE.SYSTEM.norm>
0

>  <SCORE.heavy>
37

>  <SCORE.norm>
-0.554915

>  <RMSD>
9.891

$$$$
2oe5_lig
 OpenBabel11021811463D
libRbt.so/2013.1/901 2013/11/27
 37 40  0  0  0  0  0  0  0  0999 V2000
   20.0058   -4.6368   49.0185 C   0  0  1  0  0  0  0  0  0  0  0  0
   19.4655   -4.0488   50.3413 C   0  0  1  0  0  0  0  0  0  0  0  0
   20.2361   -2.7165   50.6704 C   0  0  0  0  0  0  0  0  0  0  0  0
   21.7238   -3.1206   50.7739 C   0  0  1  0  0  0  0  0  0  0  0  0
   22.2621   -3.7287   49.4040 C   0  0  1  0  0  0  0  0  0  0  0  0
   23.7590   -4.1350   49.4843 C   0  0  1  0  0  0  0  0  0  0  0  0
   24.5563   -2.8498   49.8465 C   0  0  1  0  0  0  0  0  0  0  0  0
   23.9634   -2.2573   51.1809 C   0  0  2  0  0  0  0  0  0  0  0  0
   27.0386   -2.0621   50.1294 C   0  0  0  0  0  0  0  0  0  0  0  0
   18.0180   -3.7625   50.2139 N   0  0  0  0  0  0  0  0  0  0  0  0
   26.0264   -3.1673   49.9959 N   0  0  0  0  0  0  0  0  0  0  0  0
   19.7717   -3.7592   47.9049 O   0  0  0  0  0  0  0  0  0  0  0  0
   21.4508   -4.9033   49.0779 O   0  0  0  0  0  0  0  0  0  0  0  0
   22.5240   -1.9475   51.0811 O   0  0  0  0  0  0  0  0  0  0  0  0
   23.8888   -5.1421   50.4928 O   0  0  0  0  0  0  0  0  0  0  0  0
   24.6230   -1.0505   51.5089 O   0  0  0  0  0  0  0  0  0  0  0  0
   25.2042   -1.1457   52.7959 C   0  0  2  0  0  0  0  0  0  0  0  0
   24.1654   -1.0383   53.9115 C   0  0  1  0  0  0  0  0  0  0  0  0
   23.4857    0.3586   53.9127 C   0  0  2  0  0  0  0  0  0  0  0  0
   24.6096    1.4268   54.0601 C   0  0  1  0  0  0  0  0  0  0  0  0
   25.5934    1.2689   52.8544 C   0  0  1  0  0  0  0  0  0  0  0  0
   26.7611    2.2277   52.9220 C   0  0  0  0  0  0  0  0  0  0  0  0
   23.9580    2.7904   54.0652 N   0  0  0  0  0  0  0  0  0  0  0  0
   26.1866   -0.0714   52.9322 O   0  0  0  0  0  0  0  0  0  0  0  0
   23.1933   -2.0814   53.7003 O   0  0  0  0  0  0  0  0  0  0  0  0
   22.6053    0.4252   55.0491 O   0  0  0  0  0  0  0  0  0  0  0  0
   27.5848    1.9679   54.0068 O   0  0  0  0  0  0  0  0  0  0  0  0
   20.0148   -4.3546   46.6301 C   0  0  1  0  0  0  0  0  0  0  0  0
   18.7148   -5.0737   46.1204 C   0  0  1  0  0  0  0  0  0  0  0  0
   19.0029   -5.7086   44.7125 C   0  0  2  0  0  0  0  0  0  0  0  0
   19.3930   -4.5985   43.7249 C   0  0  1  0  0  0  0  0  0  0  0  0
   20.7067   -3.8867   44.2307 C   0  0  0  0  0  0  0  0  0  0  0  0
   20.4244   -3.2609   45.6530 C   0  0  2  0  0  0  0  0  0  0  0  0
   19.6383   -5.1962   42.4227 N   0  0  0  0  0  0  0  0  0  0  0  0
   21.6478   -2.5977   46.1761 N   0  0  0  0  0  0  0  0  0  0  0  0
   18.3407   -6.1270   47.0543 O   0  0  0  0  0  0  0  0  0  0  0  0
   17.8385   -6.3364   44.2451 O   0  0  0  0  0  0  0  0  0  0  0  0
  1  2  1  0  0  0  0
  1 12  1  6  0  0  0
  1 13  1  0  0  0  0
  2  3  1  0  0  0  0
  2 10  1  6  0  0  0
  4  3  1  6  0  0  0
  4  5  1  0  0  0  0
  4 14  1  0  0  0  0
  5  6  1  0  0  0  0
  5 13  1  1  0  0  0
  6  7  1  0  0  0  0
  6 15  1  1  0  0  0
  7  8  1  0  0  0  0
  7 11  1  1  0  0  0
  8 14  1  0  0  0  0
  8 16  1  6  0  0  0
  9 11  1  0  0  0  0
 17 16  1  6  0  0  0
 17 18  1  0  0  0  0
 17 24  1  0  0  0  0
 18 19  1  0  0  0  0
 18 25  1  6  0  0  0
 19 20  1  0  0  0  0
 19 26  1  1  0  0  0
 20 21  1  0  0  0  0
 20 23  1  6  0  0  0
 21 22  1  1  0  0  0
 21 24  1  0  0  0  0
 22 27  1  0  0  0  0
 28 12  1  1  0  0  0
 28 29  1  0  0  0  0
 28 33  1  0  0  0  0
 29 30  1  0  0  0  0
 29 36  1  1  0  0  0
 30 31  1  0  0  0  0
 30 37  1  6  0  0  0
 31 32  1  0  0  0  0
 31 34  1  6  0  0  0
 32 33  1  0  0  0  0
 33 35  1  1  0  0  0
M  END
>  <CHROM.1>
-168.60232088,170.28951189,-122.36921892,-75.39596816,65.41112659,87.83110086
22.41246786,-2.54458596,49.83195480,2.16282964,-0.32658697,-1.96796745

>  <Name>
2oe5_lig

>  <RI>
0

>  <Rbt.Current_Directory>
/home/itssahil/PROJECTS/Mol_Feturizer/New_Systems/rnas/2oe5

>  <Rbt.Executable>
rbdock ($Id: //depot/dev/client3/rdock/2013.1/src/exe/rbdock.cxx#4 $)

>  <Rbt.Library>
libRbt.so (2013.1, Build901 2013/11/27)

>  <Rbt.Parameter_File>
/export/apps/rDock/src/rDock_2013.1_src/data/scripts/dock_solv.prm

>  <Rbt.Receptor>
prm/pocket_docking_7.prm

>  <SCORE>
-10.0767

>  <SCORE.INTER>
-8.81223

>  <SCORE.INTER.CONST>
1

>  <SCORE.INTER.POLAR>
-0.979796

>  <SCORE.INTER.ROT>
6

>  <SCORE.INTER.SOLV>
16.9897

>  <SCORE.INTER.VDW>
-15.8721

>  <SCORE.INTER.norm>
-0.238168

>  <SCORE.INTRA>
-1.26447

>  <SCORE.INTRA.DIHEDRAL>
-3.90673

>  <SCORE.INTRA.DIHEDRAL.0>
16.2083

>  <SCORE.INTRA.POLAR>
0

>  <SCORE.INTRA.POLAR.0>
0

>  <SCORE.INTRA.REPUL>
0

>  <SCORE.INTRA.REPUL.0>
0

>  <SCORE.INTRA.SOLV>
-0.517306

>  <SCORE.INTRA.SOLV.lig_0>
-89.8095

>  <SCORE.INTRA.VDW>
0.947547

>  <SCORE.INTRA.VDW.0>
-3.19502

>  <SCORE.INTRA.norm>
-0.0341749

>  <SCORE.RESTR>
0

>  <SCORE.RESTR.CAVITY>
0

>  <SCORE.RESTR.norm>
0

>  <SCORE.SYSTEM>
0

>  <SCORE.SYSTEM.CONST>
0

>  <SCORE.SYSTEM.DIHEDRAL>
0

>  <SCORE.SYSTEM.SOLV>
0

>  <SCORE.SYSTEM.norm>
0

>  <SCORE.heavy>
37

>  <SCORE.norm>
-0.272343

>  <RMSD>
9.894

$$$$
2oe5_lig
 OpenBabel11021811463D
libRbt.so/2013.1/901 2013/11/27
 37 40  0  0  0  0  0  0  0  0999 V2000
   21.5831   -3.7241   47.6378 C   0  0  1  0  0  0  0  0  0  0  0  0
   20.6836   -4.4558   48.6590 C   0  0  1  0  0  0  0  0  0  0  0  0
   20.0920   -3.4085   49.6741 C   0  0  0  0  0  0  0  0  0  0  0  0
   21.3195   -2.7494   50.3420 C   0  0  1  0  0  0  0  0  0  0  0  0
   22.2374   -2.0046   49.2747 C   0  0  1  0  0  0  0  0  0  0  0  0
   23.4742   -1.3284   49.9268 C   0  0  1  0  0  0  0  0  0  0  0  0
   22.9333   -0.3082   50.9686 C   0  0  1  0  0  0  0  0  0  0  0  0
   21.9968   -1.0769   51.9762 C   0  0  2  0  0  0  0  0  0  0  0  0
   23.9556    1.7853   52.1665 C   0  0  0  0  0  0  0  0  0  0  0  0
   19.5750   -5.1419   47.9564 N   0  0  0  0  0  0  0  0  0  0  0  0
   24.0786    0.3630   51.6914 N   0  0  0  0  0  0  0  0  0  0  0  0
   20.8414   -2.7817   46.8462 O   0  0  0  0  0  0  0  0  0  0  0  0
   22.6803   -2.9918   48.2879 O   0  0  0  0  0  0  0  0  0  0  0  0
   20.8725   -1.7599   51.3072 O   0  0  0  0  0  0  0  0  0  0  0  0
   24.2612   -2.3515   50.5449 O   0  0  0  0  0  0  0  0  0  0  0  0
   21.4348   -0.1687   52.9027 O   0  0  0  0  0  0  0  0  0  0  0  0
   20.6374   -0.8621   53.8442 C   0  0  2  0  0  0  0  0  0  0  0  0
   19.6015    0.0448   54.5075 C   0  0  1  0  0  0  0  0  0  0  0  0
   20.2860    1.1577   55.3477 C   0  0  2  0  0  0  0  0  0  0  0  0
   21.2019    0.4581   56.3953 C   0  0  1  0  0  0  0  0  0  0  0  0
   22.2528   -0.4062   55.6241 C   0  0  1  0  0  0  0  0  0  0  0  0
   23.1688   -1.1770   56.5484 C   0  0  0  0  0  0  0  0  0  0  0  0
   21.8709    1.5331   57.2205 N   0  0  0  0  0  0  0  0  0  0  0  0
   21.5223   -1.4263   54.8623 O   0  0  0  0  0  0  0  0  0  0  0  0
   18.7927    0.6169   53.4605 O   0  0  0  0  0  0  0  0  0  0  0  0
   19.2572    1.9006   56.0265 O   0  0  0  0  0  0  0  0  0  0  0  0
   24.1050   -1.9231   55.8489 O   0  0  0  0  0  0  0  0  0  0  0  0
   19.9851   -3.3812   45.8735 C   0  0  1  0  0  0  0  0  0  0  0  0
   18.6450   -2.5687   45.7692 C   0  0  1  0  0  0  0  0  0  0  0  0
   17.7264   -3.2387   44.6849 C   0  0  2  0  0  0  0  0  0  0  0  0
   18.4443   -3.2163   43.3270 C   0  0  1  0  0  0  0  0  0  0  0  0
   19.7828   -4.0446   43.4294 C   0  0  0  0  0  0  0  0  0  0  0  0
   20.7017   -3.3822   44.5299 C   0  0  2  0  0  0  0  0  0  0  0  0
   17.5770   -3.8215   42.3296 N   0  0  0  0  0  0  0  0  0  0  0  0
   21.9677   -4.1482   44.6732 N   0  0  0  0  0  0  0  0  0  0  0  0
   17.9611   -2.5868   47.0551 O   0  0  0  0  0  0  0  0  0  0  0  0
   16.5355   -2.5052   44.5753 O   0  0  0  0  0  0  0  0  0  0  0  0
  1  2  1  0  0  0  0
  1 12  1  1  0  0  0
  1 13  1  0  0  0  0
  2  3  1  0  0  0  0
  2 10  1  6  0  0  0
  4  3  1  6  0  0  0
  4  5  1  0  0  0  0
  4 14  1  0  0  0  0
  5  6  1  0  0  0  0
  5 13  1  6  0  0  0
  6  7  1  0  0  0  0
  6 15  1  1  0  0  0
  7  8  1  0  0  0  0
  7 11  1  1  0  0  0
  8 14  1  0  0  0  0
  8 16  1  1  0  0  0
  9 11  1  0  0  0  0
 17 16  1  6  0  0  0
 17 18  1  0  0  0  0
 17 24  1  0  0  0  0
 18 19  1  0  0  0  0
 18 25  1  6  0  0  0
 19 20  1  0  0  0  0
 19 26  1  1  0  0  0
 20 21  1  0  0  0  0
 20 23  1  6  0  0  0
 21 22  1  1  0  0  0
 21 24  1  0  0  0  0
 22 27  1  0  0  0  0
 28 12  1  1  0  0  0
 28 29  1  0  0  0  0
 28 33  1  0  0  0  0
 29 30  1  0  0  0  0
 29 36  1  1  0  0  0
 30 31  1  0  0  0  0
 30 37  1  6  0  0  0
 31 32  1  0  0  0  0
 31 34  1  6  0  0  0
 32 33  1  0  0  0  0
 33 35  1  1  0  0  0
M  END
>  <CHROM.1>
-72.75360308,147.80544145,-177.54635540,-157.80931661,-179.18334766,142.10450027
20.92260971,-1.73714639,50.21402229,-1.80679785,-0.21527937,1.17870503

>  <Name>
2oe5_lig

>  <RI>
0

>  <Rbt.Current_Directory>
/home/itssahil/PROJECTS/Mol_Feturizer/New_Systems/rnas/2oe5

>  <Rbt.Executable>
rbdock ($Id: //depot/dev/client3/rdock/2013.1/src/exe/rbdock.cxx#4 $)

>  <Rbt.Library>
libRbt.so (2013.1, Build901 2013/11/27)

>  <Rbt.Parameter_File>
/export/apps/rDock/src/rDock_2013.1_src/data/scripts/dock_solv.prm

>  <Rbt.Receptor>
prm/pocket_docking_5.prm

>  <SCORE>
-19.5588

>  <SCORE.INTER>
-16.4727

>  <SCORE.INTER.CONST>
1

>  <SCORE.INTER.POLAR>
-1.03463

>  <SCORE.INTER.ROT>
6

>  <SCORE.INTER.SOLV>
13.7638

>  <SCORE.INTER.VDW>
-19.721

>  <SCORE.INTER.norm>
-0.445208

>  <SCORE.INTRA>
-3.0861

>  <SCORE.INTRA.DIHEDRAL>
-7.43725

>  <SCORE.INTRA.DIHEDRAL.0>
16.2083

>  <SCORE.INTRA.POLAR>
0

>  <SCORE.INTRA.POLAR.0>
0

>  <SCORE.INTRA.REPUL>
0

>  <SCORE.INTRA.REPUL.0>
0

>  <SCORE.INTRA.SOLV>
0.540496

>  <SCORE.INTRA.SOLV.lig_0>
-89.8095

>  <SCORE.INTRA.VDW>
0.362272

>  <SCORE.INTRA.VDW.0>
-3.19502

>  <SCORE.INTRA.norm>
-0.0834082

>  <SCORE.RESTR>
0

>  <SCORE.RESTR.CAVITY>
0

>  <SCORE.RESTR.norm>
0

>  <SCORE.SYSTEM>
0

>  <SCORE.SYSTEM.CONST>
0

>  <SCORE.SYSTEM.DIHEDRAL>
0

>  <SCORE.SYSTEM.SOLV>
0

>  <SCORE.SYSTEM.norm>
0

>  <SCORE.heavy>
37

>  <SCORE.norm>
-0.528616

>  <RMSD>
9.895

$$$$
2oe5_lig
 OpenBabel11021811463D
libRbt.so/2013.1/901 2013/11/27
 37 40  0  0  0  0  0  0  0  0999 V2000
   20.2877   -5.8946   50.2883 C   0  0  1  0  0  0  0  0  0  0  0  0
   18.9658   -5.7288   51.0708 C   0  0  1  0  0  0  0  0  0  0  0  0
   18.6626   -4.1959   51.2594 C   0  0  0  0  0  0  0  0  0  0  0  0
   19.8754   -3.6324   52.0332 C   0  0  1  0  0  0  0  0  0  0  0  0
   21.2291   -3.8161   51.2146 C   0  0  1  0  0  0  0  0  0  0  0  0
   22.4607   -3.2492   51.9723 C   0  0  1  0  0  0  0  0  0  0  0  0
   22.1850   -1.7378   52.2138 C   0  0  1  0  0  0  0  0  0  0  0  0
   20.8178   -1.5997   52.9852 C   0  0  2  0  0  0  0  0  0  0  0  0
   24.4685   -0.4558   52.2836 C   0  0  0  0  0  0  0  0  0  0  0  0
   17.8539   -6.3632   50.3259 N   0  0  0  0  0  0  0  0  0  0  0  0
   23.3185   -1.1147   52.9958 N   0  0  0  0  0  0  0  0  0  0  0  0
   20.2016   -5.3428   48.9643 O   0  0  0  0  0  0  0  0  0  0  0  0
   21.4202   -5.2467   50.9668 O   0  0  0  0  0  0  0  0  0  0  0  0
   19.6863   -2.2100   52.2607 O   0  0  0  0  0  0  0  0  0  0  0  0
   22.5906   -3.9684   53.2028 O   0  0  0  0  0  0  0  0  0  0  0  0
   20.5017   -0.2337   53.1677 O   0  0  0  0  0  0  0  0  0  0  0  0
   19.2791   -0.1046   53.8687 C   0  0  2  0  0  0  0  0  0  0  0  0
   18.7937    1.3433   53.9279 C   0  0  1  0  0  0  0  0  0  0  0  0
   19.7800    2.2331   54.7333 C   0  0  2  0  0  0  0  0  0  0  0  0
   19.9220    1.6091   56.1532 C   0  0  1  0  0  0  0  0  0  0  0  0
   20.4653    0.1512   55.9929 C   0  0  1  0  0  0  0  0  0  0  0  0
   20.5945   -0.5741   57.3138 C   0  0  0  0  0  0  0  0  0  0  0  0
   20.8781    2.4698   56.9464 N   0  0  0  0  0  0  0  0  0  0  0  0
   19.4760   -0.6142   55.2249 O   0  0  0  0  0  0  0  0  0  0  0  0
   18.6689    1.8143   52.5713 O   0  0  0  0  0  0  0  0  0  0  0  0
   19.2077    3.5492   54.8401 O   0  0  0  0  0  0  0  0  0  0  0  0
   21.5444    0.0109   58.1373 O   0  0  0  0  0  0  0  0  0  0  0  0
   19.4665   -6.1476   48.0421 C   0  0  1  0  0  0  0  0  0  0  0  0
   19.0064   -5.2742   46.8204 C   0  0  1  0  0  0  0  0  0  0  0  0
   18.2123   -6.1835   45.8148 C   0  0  2  0  0  0  0  0  0  0  0  0
   19.1281   -7.3128   45.3192 C   0  0  1  0  0  0  0  0  0  0  0  0
   19.5778   -8.1975   46.5453 C   0  0  0  0  0  0  0  0  0  0  0  0
   20.3629   -7.2824   47.5653 C   0  0  2  0  0  0  0  0  0  0  0  0
   18.3881   -8.1350   44.3761 N   0  0  0  0  0  0  0  0  0  0  0  0
   20.7861   -8.0759   48.7491 N   0  0  0  0  0  0  0  0  0  0  0  0
   18.1381   -4.2014   47.2859 O   0  0  0  0  0  0  0  0  0  0  0  0
   17.8153   -5.4112   44.7129 O   0  0  0  0  0  0  0  0  0  0  0  0
  1  2  1  0  0  0  0
  1 12  1  6  0  0  0
  1 13  1  0  0  0  0
  2  3  1  0  0  0  0
  2 10  1  6  0  0  0
  4  3  1  6  0  0  0
  4  5  1  0  0  0  0
  4 14  1  0  0  0  0
  5  6  1  0  0  0  0
  5 13  1  1  0  0  0
  6  7  1  0  0  0  0
  6 15  1  1  0  0  0
  7  8  1  0  0  0  0
  7 11  1  1  0  0  0
  8 14  1  0  0  0  0
  8 16  1  6  0  0  0
  9 11  1  0  0  0  0
 17 16  1  6  0  0  0
 17 18  1  0  0  0  0
 17 24  1  0  0  0  0
 18 19  1  0  0  0  0
 18 25  1  6  0  0  0
 19 20  1  0  0  0  0
 19 26  1  1  0  0  0
 20 21  1  0  0  0  0
 20 23  1  1  0  0  0
 21 22  1  1  0  0  0
 21 24  1  0  0  0  0
 22 27  1  0  0  0  0
 28 12  1  1  0  0  0
 28 29  1  0  0  0  0
 28 33  1  0  0  0  0
 29 30  1  0  0  0  0
 29 36  1  1  0  0  0
 30 31  1  0  0  0  0
 30 37  1  6  0  0  0
 31 32  1  0  0  0  0
 31 34  1  6  0  0  0
 32 33  1  0  0  0  0
 33 35  1  1  0  0  0
M  END
>  <CHROM.1>
-75.89964790,92.80111657,-179.58173638,-172.22499715,-64.99589207,160.46014254
20.11269265,-2.89963359,51.44068606,-1.73430921,-0.74765781,0.72793369

>  <Name>
2oe5_lig

>  <RI>
0

>  <Rbt.Current_Directory>
/home/itssahil/PROJECTS/Mol_Feturizer/New_Systems/rnas/2oe5

>  <Rbt.Executable>
rbdock ($Id: //depot/dev/client3/rdock/2013.1/src/exe/rbdock.cxx#4 $)

>  <Rbt.Library>
libRbt.so (2013.1, Build901 2013/11/27)

>  <Rbt.Parameter_File>
/export/apps/rDock/src/rDock_2013.1_src/data/scripts/dock_solv.prm

>  <Rbt.Receptor>
prm/pocket_docking_7.prm

>  <SCORE>
-15.1604

>  <SCORE.INTER>
-11.7897

>  <SCORE.INTER.CONST>
1

>  <SCORE.INTER.POLAR>
-0.443461

>  <SCORE.INTER.ROT>
6

>  <SCORE.INTER.SOLV>
11.9212

>  <SCORE.INTER.VDW>
-17.9554

>  <SCORE.INTER.norm>
-0.318641

>  <SCORE.INTRA>
-3.37071

>  <SCORE.INTRA.DIHEDRAL>
-12.1486

>  <SCORE.INTRA.DIHEDRAL.0>
16.2083

>  <SCORE.INTRA.POLAR>
0

>  <SCORE.INTRA.POLAR.0>
0

>  <SCORE.INTRA.REPUL>
0

>  <SCORE.INTRA.REPUL.0>
0

>  <SCORE.INTRA.SOLV>
1.86105

>  <SCORE.INTRA.SOLV.lig_0>
-89.8095

>  <SCORE.INTRA.VDW>
1.77304

>  <SCORE.INTRA.VDW.0>
-3.19502

>  <SCORE.INTRA.norm>
-0.0911002

>  <SCORE.RESTR>
0

>  <SCORE.RESTR.CAVITY>
0

>  <SCORE.RESTR.norm>
0

>  <SCORE.SYSTEM>
0

>  <SCORE.SYSTEM.CONST>
0

>  <SCORE.SYSTEM.DIHEDRAL>
0

>  <SCORE.SYSTEM.SOLV>
0

>  <SCORE.SYSTEM.norm>
0

>  <SCORE.heavy>
37

>  <SCORE.norm>
-0.409741

>  <RMSD>
9.896

$$$$
2oe5_lig
 OpenBabel11021811463D
libRbt.so/2013.1/901 2013/11/27
 37 40  0  0  0  0  0  0  0  0999 V2000
   22.3348   -1.8725   49.7098 C   0  0  1  0  0  0  0  0  0  0  0  0
   23.4414   -2.2339   50.7257 C   0  0  1  0  0  0  0  0  0  0  0  0
   22.8238   -2.2779   52.1727 C   0  0  0  0  0  0  0  0  0  0  0  0
   22.2472   -0.8646   52.4132 C   0  0  1  0  0  0  0  0  0  0  0  0
   21.1123   -0.5073   51.3547 C   0  0  1  0  0  0  0  0  0  0  0  0
   20.5138    0.9075   51.5834 C   0  0  1  0  0  0  0  0  0  0  0  0
   19.9235    0.9202   53.0222 C   0  0  1  0  0  0  0  0  0  0  0  0
   21.0657    0.5187   54.0309 C   0  0  2  0  0  0  0  0  0  0  0  0
   18.5584    2.5027   54.6018 C   0  0  0  0  0  0  0  0  0  0  0  0
   24.0186   -3.5574   50.3957 N   0  0  0  0  0  0  0  0  0  0  0  0
   19.3619    2.2850   53.3484 N   0  0  0  0  0  0  0  0  0  0  0  0
   21.2984   -2.8670   49.6673 O   0  0  0  0  0  0  0  0  0  0  0  0
   21.6997   -0.5818   50.0154 O   0  0  0  0  0  0  0  0  0  0  0  0
   21.6518   -0.8035   53.7370 O   0  0  0  0  0  0  0  0  0  0  0  0
   21.5695    1.8622   51.4343 O   0  0  0  0  0  0  0  0  0  0  0  0
   20.5498    0.4578   55.3459 O   0  0  0  0  0  0  0  0  0  0  0  0
   21.6056    0.5013   56.2874 C   0  0  2  0  0  0  0  0  0  0  0  0
   21.4083   -0.4968   57.4277 C   0  0  1  0  0  0  0  0  0  0  0  0
   20.1477   -0.1488   58.2661 C   0  0  2  0  0  0  0  0  0  0  0  0
   20.3212    1.3072   58.7914 C   0  0  1  0  0  0  0  0  0  0  0  0
   20.4689    2.2565   57.5572 C   0  0  1  0  0  0  0  0  0  0  0  0
   20.6965    3.6987   57.9516 C   0  0  0  0  0  0  0  0  0  0  0  0
   19.1003    1.6548   59.6115 N   0  0  0  0  0  0  0  0  0  0  0  0
   21.6784    1.8582   56.8272 O   0  0  0  0  0  0  0  0  0  0  0  0
   21.2876   -1.8075   56.8402 O   0  0  0  0  0  0  0  0  0  0  0  0
   20.0871   -1.0589   59.3792 O   0  0  0  0  0  0  0  0  0  0  0  0
   20.7895    4.5312   56.8466 O   0  0  0  0  0  0  0  0  0  0  0  0
   20.3389   -2.6676   48.6289 C   0  0  1  0  0  0  0  0  0  0  0  0
   20.9871   -2.9882   47.2346 C   0  0  1  0  0  0  0  0  0  0  0  0
   19.9099   -2.7746   46.1111 C   0  0  2  0  0  0  0  0  0  0  0  0
   18.7269   -3.7238   46.3547 C   0  0  1  0  0  0  0  0  0  0  0  0
   18.0681   -3.3911   47.7488 C   0  0  0  0  0  0  0  0  0  0  0  0
   19.1535   -3.5900   48.8788 C   0  0  2  0  0  0  0  0  0  0  0  0
   17.7467   -3.5298   45.2989 N   0  0  0  0  0  0  0  0  0  0  0  0
   18.5771   -3.2643   50.2098 N   0  0  0  0  0  0  0  0  0  0  0  0
   22.1101   -2.0907   46.9996 O   0  0  0  0  0  0  0  0  0  0  0  0
   20.4795   -3.0778   44.8654 O   0  0  0  0  0  0  0  0  0  0  0  0
  1  2  1  0  0  0  0
  1 12  1  1  0  0  0
  1 13  1  0  0  0  0
  2  3  1  0  0  0  0
  2 10  1  6  0  0  0
  4  3  1  6  0  0  0
  4  5  1  0  0  0  0
  4 14  1  0  0  0  0
  5  6  1  0  0  0  0
  5 13  1  6  0  0  0
  6  7  1  0  0  0  0
  6 15  1  1  0  0  0
  7  8  1  0  0  0  0
  7 11  1  1  0  0  0
  8 14  1  0  0  0  0
  8 16  1  1  0  0  0
  9 11  1  0  0  0  0
 17 16  1  6  0  0  0
 17 18  1  0  0  0  0
 17 24  1  0  0  0  0
 18 19  1  0  0  0  0
 18 25  1  6  0  0  0
 19 20  1  0  0  0  0
 19 26  1  1  0  0  0
 20 21  1  0  0  0  0
 20 23  1  6  0  0  0
 21 22  1  1  0  0  0
 21 24  1  0  0  0  0
 22 27  1  0  0  0  0
 28 12  1  1  0  0  0
 28 29  1  0  0  0  0
 28 33  1  0  0  0  0
 29 30  1  0  0  0  0
 29 36  1  6  0  0  0
 30 31  1  0  0  0  0
 30 37  1  6  0  0  0
 31 32  1  0  0  0  0
 31 34  1  6  0  0  0
 32 33  1  0  0  0  0
 33 35  1  1  0  0  0
M  END
>  <CHROM.1>
-172.56924409,171.13357815,-162.39544121,-137.30472802,-178.39328816,71.70988202
20.71220172,-0.64502063,52.50680874,-1.60976031,-0.99136104,1.13127814

>  <Name>
2oe5_lig

>  <RI>
0

>  <Rbt.Current_Directory>
/home/itssahil/PROJECTS/Mol_Feturizer/New_Systems/rnas/2oe5

>  <Rbt.Executable>
rbdock ($Id: //depot/dev/client3/rdock/2013.1/src/exe/rbdock.cxx#4 $)

>  <Rbt.Library>
libRbt.so (2013.1, Build901 2013/11/27)

>  <Rbt.Parameter_File>
/export/apps/rDock/src/rDock_2013.1_src/data/scripts/dock_solv.prm

>  <Rbt.Receptor>
prm/pocket_docking_3.prm

>  <SCORE>
-16.4072

>  <SCORE.INTER>
-11.8044

>  <SCORE.INTER.CONST>
1

>  <SCORE.INTER.POLAR>
-0.989979

>  <SCORE.INTER.ROT>
6

>  <SCORE.INTER.SOLV>
13.3207

>  <SCORE.INTER.VDW>
-16.6099

>  <SCORE.INTER.norm>
-0.319037

>  <SCORE.INTRA>
-4.70398

>  <SCORE.INTRA.DIHEDRAL>
-7.89285

>  <SCORE.INTRA.DIHEDRAL.0>
16.2083

>  <SCORE.INTRA.POLAR>
0

>  <SCORE.INTRA.POLAR.0>
0

>  <SCORE.INTRA.REPUL>
0

>  <SCORE.INTRA.REPUL.0>
0

>  <SCORE.INTRA.SOLV>
-2.52879

>  <SCORE.INTRA.SOLV.lig_0>
-89.8095

>  <SCORE.INTRA.VDW>
0.506845

>  <SCORE.INTRA.VDW.0>
-3.19502

>  <SCORE.INTRA.norm>
-0.127134

>  <SCORE.RESTR>
0.101125

>  <SCORE.RESTR.CAVITY>
0.101125

>  <SCORE.RESTR.norm>
0.00273311

>  <SCORE.SYSTEM>
0

>  <SCORE.SYSTEM.CONST>
0

>  <SCORE.SYSTEM.DIHEDRAL>
0

>  <SCORE.SYSTEM.SOLV>
0

>  <SCORE.SYSTEM.norm>
0

>  <SCORE.heavy>
37

>  <SCORE.norm>
-0.443438

>  <RMSD>
9.904

$$$$
2oe5_lig
 OpenBabel11021811463D
libRbt.so/2013.1/901 2013/11/27
 37 40  0  0  0  0  0  0  0  0999 V2000
   21.4320   -3.7199   49.7867 C   0  0  1  0  0  0  0  0  0  0  0  0
   22.7398   -3.6562   50.6069 C   0  0  1  0  0  0  0  0  0  0  0  0
   22.3901   -3.4395   52.1261 C   0  0  0  0  0  0  0  0  0  0  0  0
   21.6014   -2.1118   52.1779 C   0  0  1  0  0  0  0  0  0  0  0  0
   20.2599   -2.1939   51.3236 C   0  0  1  0  0  0  0  0  0  0  0  0
   19.4478   -0.8708   51.3682 C   0  0  1  0  0  0  0  0  0  0  0  0
   19.1123   -0.5978   52.8620 C   0  0  1  0  0  0  0  0  0  0  0  0
   20.4610   -0.5691   53.6765 C   0  0  2  0  0  0  0  0  0  0  0  0
   19.0919    2.0205   52.9428 C   0  0  0  0  0  0  0  0  0  0  0  0
   23.4971   -4.9194   50.4507 N   0  0  0  0  0  0  0  0  0  0  0  0
   18.3616    0.7064   53.0028 N   0  0  0  0  0  0  0  0  0  0  0  0
   20.6127   -4.8375   50.1671 O   0  0  0  0  0  0  0  0  0  0  0  0
   20.6209   -2.5026   49.9384 O   0  0  0  0  0  0  0  0  0  0  0  0
   21.2326   -1.8210   53.5527 O   0  0  0  0  0  0  0  0  0  0  0  0
   20.2617    0.1651   50.8090 O   0  0  0  0  0  0  0  0  0  0  0  0
   20.1911   -0.3856   55.0522 O   0  0  0  0  0  0  0  0  0  0  0  0
   21.2250    0.3687   55.6565 C   0  0  2  0  0  0  0  0  0  0  0  0
   22.1472   -0.4948   56.5163 C   0  0  1  0  0  0  0  0  0  0  0  0
   21.3807   -1.1071   57.7208 C   0  0  2  0  0  0  0  0  0  0  0  0
   20.7641    0.0709   58.5319 C   0  0  1  0  0  0  0  0  0  0  0  0
   19.8047    0.8649   57.5857 C   0  0  1  0  0  0  0  0  0  0  0  0
   19.1852    2.0702   58.2572 C   0  0  0  0  0  0  0  0  0  0  0  0
   20.0179   -0.5145   59.7087 N   0  0  0  0  0  0  0  0  0  0  0  0
   20.6086    1.4054   56.4830 O   0  0  0  0  0  0  0  0  0  0  0  0
   22.6843   -1.5308   55.6701 O   0  0  0  0  0  0  0  0  0  0  0  0
   22.3295   -1.8127   58.5411 O   0  0  0  0  0  0  0  0  0  0  0  0
   18.2727    2.7121   57.4338 O   0  0  0  0  0  0  0  0  0  0  0  0
   19.5861   -5.1565   49.2275 C   0  0  1  0  0  0  0  0  0  0  0  0
   20.0641   -6.3226   48.2901 C   0  0  1  0  0  0  0  0  0  0  0  0
   18.9143   -6.6641   47.2754 C   0  0  2  0  0  0  0  0  0  0  0  0
   17.6674   -7.1122   48.0526 C   0  0  1  0  0  0  0  0  0  0  0  0
   17.1801   -5.9351   48.9828 C   0  0  0  0  0  0  0  0  0  0  0  0
   18.3400   -5.5792   49.9939 C   0  0  2  0  0  0  0  0  0  0  0  0
   16.6181   -7.4429   47.1026 N   0  0  0  0  0  0  0  0  0  0  0  0
   17.9277   -4.4562   50.8764 N   0  0  0  0  0  0  0  0  0  0  0  0
   21.2470   -5.9023   47.5514 O   0  0  0  0  0  0  0  0  0  0  0  0
   19.3303   -7.7180   46.4480 O   0  0  0  0  0  0  0  0  0  0  0  0
  1  2  1  0  0  0  0
  1 12  1  1  0  0  0
  1 13  1  0  0  0  0
  2  3  1  0  0  0  0
  2 10  1  1  0  0  0
  4  3  1  1  0  0  0
  4  5  1  0  0  0  0
  4 14  1  0  0  0  0
  5  6  1  0  0  0  0
  5 13  1  6  0  0  0
  6  7  1  0  0  0  0
  6 15  1  1  0  0  0
  7  8  1  0  0  0  0
  7 11  1  6  0  0  0
  8 14  1  0  0  0  0
  8 16  1  1  0  0  0
  9 11  1  0  0  0  0
 17 16  1  1  0  0  0
 17 18  1  0  0  0  0
 17 24  1  0  0  0  0
 18 19  1  0  0  0  0
 18 25  1  6  0  0  0
 19 20  1  0  0  0  0
 19 26  1  1  0  0  0
 20 21  1  0  0  0  0
 20 23  1  1  0  0  0
 21 22  1  1  0  0  0
 21 24  1  0  0  0  0
 22 27  1  0  0  0  0
 28 12  1  1  0  0  0
 28 29  1  0  0  0  0
 28 33  1  0  0  0  0
 29 30  1  0  0  0  0
 29 36  1  6  0  0  0
 30 31  1  0  0  0  0
 30 37  1  6  0  0  0
 31 32  1  0  0  0  0
 31 34  1  6  0  0  0
 32 33  1  0  0  0  0
 33 35  1  1  0  0  0
M  END
>  <CHROM.1>
-164.17646981,-78.07078627,-146.75373592,-105.21021764,-176.10455850,97.14934851
20.19344166,-2.37293067,52.60694810,-1.68519940,-0.53567911,0.87387604

>  <Name>
2oe5_lig

>  <RI>
0

>  <Rbt.Current_Directory>
/home/itssahil/PROJECTS/Mol_Feturizer/New_Systems/rnas/2oe5

>  <Rbt.Executable>
rbdock ($Id: //depot/dev/client3/rdock/2013.1/src/exe/rbdock.cxx#4 $)

>  <Rbt.Library>
libRbt.so (2013.1, Build901 2013/11/27)

>  <Rbt.Parameter_File>
/export/apps/rDock/src/rDock_2013.1_src/data/scripts/dock_solv.prm

>  <Rbt.Receptor>
prm/pocket_docking_3.prm

>  <SCORE>
-13.8364

>  <SCORE.INTER>
-14.1799

>  <SCORE.INTER.CONST>
1

>  <SCORE.INTER.POLAR>
-0.979796

>  <SCORE.INTER.ROT>
6

>  <SCORE.INTER.SOLV>
20.2029

>  <SCORE.INTER.VDW>
-20.5216

>  <SCORE.INTER.norm>
-0.38324

>  <SCORE.INTRA>
0.343472

>  <SCORE.INTRA.DIHEDRAL>
0.597507

>  <SCORE.INTRA.DIHEDRAL.0>
16.2083

>  <SCORE.INTRA.POLAR>
0

>  <SCORE.INTRA.POLAR.0>
0

>  <SCORE.INTRA.REPUL>
0

>  <SCORE.INTRA.REPUL.0>
0

>  <SCORE.INTRA.SOLV>
-0.518781

>  <SCORE.INTRA.SOLV.lig_0>
-89.8095

>  <SCORE.INTRA.VDW>
0.304109

>  <SCORE.INTRA.VDW.0>
-3.19502

>  <SCORE.INTRA.norm>
0.00928303

>  <SCORE.RESTR>
0

>  <SCORE.RESTR.CAVITY>
0

>  <SCORE.RESTR.norm>
0

>  <SCORE.SYSTEM>
0

>  <SCORE.SYSTEM.CONST>
0

>  <SCORE.SYSTEM.DIHEDRAL>
0

>  <SCORE.SYSTEM.SOLV>
0

>  <SCORE.SYSTEM.norm>
0

>  <SCORE.heavy>
37

>  <SCORE.norm>
-0.373957

>  <RMSD>
9.910

$$$$
2oe5_lig
 OpenBabel11021811463D
libRbt.so/2013.1/901 2013/11/27
 37 40  0  0  0  0  0  0  0  0999 V2000
   21.2631   -1.2972   52.6456 C   0  0  1  0  0  0  0  0  0  0  0  0
   19.8402   -0.8635   52.2277 C   0  0  1  0  0  0  0  0  0  0  0  0
   19.5181    0.5407   52.8613 C   0  0  0  0  0  0  0  0  0  0  0  0
   19.6434    0.3379   54.3879 C   0  0  1  0  0  0  0  0  0  0  0  0
   21.1141   -0.1134   54.7999 C   0  0  1  0  0  0  0  0  0  0  0  0
   21.2638   -0.3159   56.3324 C   0  0  1  0  0  0  0  0  0  0  0  0
   20.9161    1.0435   57.0030 C   0  0  1  0  0  0  0  0  0  0  0  0
   19.4744    1.4738   56.5344 C   0  0  2  0  0  0  0  0  0  0  0  0
   22.2923    0.6120   59.1899 C   0  0  0  0  0  0  0  0  0  0  0  0
   19.7526   -0.7703   50.7522 N   0  0  0  0  0  0  0  0  0  0  0  0
   20.9873    0.9214   58.5078 N   0  0  0  0  0  0  0  0  0  0  0  0
   22.2673   -0.3985   52.1467 O   0  0  0  0  0  0  0  0  0  0  0  0
   21.4161   -1.3674   54.1066 O   0  0  0  0  0  0  0  0  0  0  0  0
   19.3588    1.5899   55.0678 O   0  0  0  0  0  0  0  0  0  0  0  0
   20.3592   -1.3510   56.7307 O   0  0  0  0  0  0  0  0  0  0  0  0
   19.1480    2.7389   57.0750 O   0  0  0  0  0  0  0  0  0  0  0  0
   17.7489    2.9461   57.0230 C   0  0  2  0  0  0  0  0  0  0  0  0
   17.3587    4.3734   57.4050 C   0  0  1  0  0  0  0  0  0  0  0  0
   17.7253    4.6787   58.8834 C   0  0  2  0  0  0  0  0  0  0  0  0
   17.0059    3.6216   59.7727 C   0  0  1  0  0  0  0  0  0  0  0  0
   17.5014    2.2025   59.3405 C   0  0  1  0  0  0  0  0  0  0  0  0
   16.8258    1.0876   60.1074 C   0  0  0  0  0  0  0  0  0  0  0  0
   17.3541    3.9118   61.2145 N   0  0  0  0  0  0  0  0  0  0  0  0
   17.1143    1.9998   57.9393 O   0  0  0  0  0  0  0  0  0  0  0  0
   18.0514    5.2662   56.5101 O   0  0  0  0  0  0  0  0  0  0  0  0
   17.2330    5.9927   59.2027 O   0  0  0  0  0  0  0  0  0  0  0  0
   15.4449    1.2121   60.0968 O   0  0  0  0  0  0  0  0  0  0  0  0
   23.6074   -0.8165   52.4073 C   0  0  1  0  0  0  0  0  0  0  0  0
   23.9742   -2.0365   51.4886 C   0  0  1  0  0  0  0  0  0  0  0  0
   25.4555   -2.4690   51.7838 C   0  0  2  0  0  0  0  0  0  0  0  0
   26.3982   -1.2960   51.4756 C   0  0  1  0  0  0  0  0  0  0  0  0
   26.0379   -0.0764   52.4090 C   0  0  0  0  0  0  0  0  0  0  0  0
   24.5441    0.3505   52.1253 C   0  0  2  0  0  0  0  0  0  0  0  0
   27.7659   -1.7148   51.7346 N   0  0  0  0  0  0  0  0  0  0  0  0
   24.1573    1.4862   53.0031 N   0  0  0  0  0  0  0  0  0  0  0  0
   23.0822   -3.1512   51.7771 O   0  0  0  0  0  0  0  0  0  0  0  0
   25.7934   -3.5470   50.9520 O   0  0  0  0  0  0  0  0  0  0  0  0
  1  2  1  0  0  0  0
  1 12  1  1  0  0  0
  1 13  1  0  0  0  0
  2  3  1  0  0  0  0
  2 10  1  6  0  0  0
  4  3  1  6  0  0  0
  4  5  1  0  0  0  0
  4 14  1  0  0  0  0
  5  6  1  0  0  0  0
  5 13  1  6  0  0  0
  6  7  1  0  0  0  0
  6 15  1  1  0  0  0
  7  8  1  0  0  0  0
  7 11  1  1  0  0  0
  8 14  1  0  0  0  0
  8 16  1  1  0  0  0
  9 11  1  0  0  0  0
 17 16  1  1  0  0  0
 17 18  1  0  0  0  0
 17 24  1  0  0  0  0
 18 19  1  0  0  0  0
 18 25  1  6  0  0  0
 19 20  1  0  0  0  0
 19 26  1  1  0  0  0
 20 21  1  0  0  0  0
 20 23  1  1  0  0  0
 21 22  1  1  0  0  0
 21 24  1  0  0  0  0
 22 27  1  0  0  0  0
 28 12  1  6  0  0  0
 28 29  1  0  0  0  0
 28 33  1  0  0  0  0
 29 30  1  0  0  0  0
 29 36  1  1  0  0  0
 30 31  1  0  0  0  0
 30 37  1  6  0  0  0
 31 32  1  0  0  0  0
 31 34  1  1  0  0  0
 32 33  1  0  0  0  0
 33 35  1  1  0  0  0
M  END
>  <CHROM.1>
-174.89498041,63.88369134,-161.68312076,-171.68250107,50.81775880,72.45708798
20.74285777,0.72894184,55.35316248,0.86386472,0.21773097,-1.97946717

>  <Name>
2oe5_lig

>  <RI>
0

>  <Rbt.Current_Directory>
/home/itssahil/PROJECTS/Mol_Feturizer/New_Systems/rnas/2oe5

>  <Rbt.Executable>
rbdock ($Id: //depot/dev/client3/rdock/2013.1/src/exe/rbdock.cxx#4 $)

>  <Rbt.Library>
libRbt.so (2013.1, Build901 2013/11/27)

>  <Rbt.Parameter_File>
/export/apps/rDock/src/rDock_2013.1_src/data/scripts/dock_solv.prm

>  <Rbt.Receptor>
prm/pocket_docking_6.prm

>  <SCORE>
-22.5954

>  <SCORE.INTER>
-16.2722

>  <SCORE.INTER.CONST>
1

>  <SCORE.INTER.POLAR>
-1.5046

>  <SCORE.INTER.ROT>
6

>  <SCORE.INTER.SOLV>
11.9889

>  <SCORE.INTER.VDW>
-17.4291

>  <SCORE.INTER.norm>
-0.439789

>  <SCORE.INTRA>
-6.32318

>  <SCORE.INTRA.DIHEDRAL>
-13.0728

>  <SCORE.INTRA.DIHEDRAL.0>
16.2083

>  <SCORE.INTRA.POLAR>
0

>  <SCORE.INTRA.POLAR.0>
0

>  <SCORE.INTRA.REPUL>
0

>  <SCORE.INTRA.REPUL.0>
0

>  <SCORE.INTRA.SOLV>
-1.8221

>  <SCORE.INTRA.SOLV.lig_0>
-89.8095

>  <SCORE.INTRA.VDW>
1.12427

>  <SCORE.INTRA.VDW.0>
-3.19502

>  <SCORE.INTRA.norm>
-0.170897

>  <SCORE.RESTR>
0

>  <SCORE.RESTR.CAVITY>
0

>  <SCORE.RESTR.norm>
0

>  <SCORE.SYSTEM>
0

>  <SCORE.SYSTEM.CONST>
0

>  <SCORE.SYSTEM.DIHEDRAL>
0

>  <SCORE.SYSTEM.SOLV>
0

>  <SCORE.SYSTEM.norm>
0

>  <SCORE.heavy>
37

>  <SCORE.norm>
-0.610685

>  <RMSD>
9.913

$$$$
2oe5_lig
 OpenBabel11021811463D
libRbt.so/2013.1/901 2013/11/27
 37 40  0  0  0  0  0  0  0  0999 V2000
   20.8382   -3.0822   49.5553 C   0  0  1  0  0  0  0  0  0  0  0  0
   19.6685   -3.0648   50.5646 C   0  0  1  0  0  0  0  0  0  0  0  0
   19.3587   -1.5773   50.9751 C   0  0  0  0  0  0  0  0  0  0  0  0
   20.6710   -1.0422   51.5907 C   0  0  1  0  0  0  0  0  0  0  0  0
   21.8661   -1.0720   50.5385 C   0  0  1  0  0  0  0  0  0  0  0  0
   23.1940   -0.5309   51.1354 C   0  0  1  0  0  0  0  0  0  0  0  0
   22.9210    0.9310   51.5906 C   0  0  1  0  0  0  0  0  0  0  0  0
   21.7057    0.9199   52.5936 C   0  0  2  0  0  0  0  0  0  0  0  0
   24.6307    1.0257   53.5732 C   0  0  0  0  0  0  0  0  0  0  0  0
   18.4628   -3.6686   49.9522 N   0  0  0  0  0  0  0  0  0  0  0  0
   24.1549    1.5206   52.2343 N   0  0  0  0  0  0  0  0  0  0  0  0
   20.5069   -2.3966   48.3366 O   0  0  0  0  0  0  0  0  0  0  0  0
   22.0524   -2.4569   50.1007 O   0  0  0  0  0  0  0  0  0  0  0  0
   20.4833    0.3369   52.0072 O   0  0  0  0  0  0  0  0  0  0  0  0
   23.5570   -1.3705   52.2360 O   0  0  0  0  0  0  0  0  0  0  0  0
   21.3869    2.2417   52.9813 O   0  0  0  0  0  0  0  0  0  0  0  0
   20.3997    2.2287   53.9953 C   0  0  2  0  0  0  0  0  0  0  0  0
   20.0470    3.6344   54.4803 C   0  0  1  0  0  0  0  0  0  0  0  0
   21.2671    4.3168   55.1577 C   0  0  2  0  0  0  0  0  0  0  0  0
   21.7293    3.3974   56.3268 C   0  0  1  0  0  0  0  0  0  0  0  0
   22.1110    2.0034   55.7291 C   0  0  1  0  0  0  0  0  0  0  0  0
   22.5281    1.0067   56.7875 C   0  0  0  0  0  0  0  0  0  0  0  0
   22.9151    4.0543   56.9948 N   0  0  0  0  0  0  0  0  0  0  0  0
   20.9062    1.4343   55.1135 O   0  0  0  0  0  0  0  0  0  0  0  0
   19.6073    4.3904   53.3346 O   0  0  0  0  0  0  0  0  0  0  0  0
   20.8339    5.5844   55.6836 O   0  0  0  0  0  0  0  0  0  0  0  0
   23.6796    1.4037   57.4502 O   0  0  0  0  0  0  0  0  0  0  0  0
   19.9357   -3.2342   47.3312 C   0  0  1  0  0  0  0  0  0  0  0  0
   18.6506   -2.5541   46.7370 C   0  0  1  0  0  0  0  0  0  0  0  0
   18.0486   -3.4871   45.6254 C   0  0  2  0  0  0  0  0  0  0  0  0
   19.0859   -3.6819   44.5092 C   0  0  1  0  0  0  0  0  0  0  0  0
   20.3701   -4.3780   45.1046 C   0  0  0  0  0  0  0  0  0  0  0  0
   20.9686   -3.4492   46.2333 C   0  0  2  0  0  0  0  0  0  0  0  0
   18.5103   -4.5307   43.4791 N   0  0  0  0  0  0  0  0  0  0  0  0
   22.1711   -4.0814   46.8368 N   0  0  0  0  0  0  0  0  0  0  0  0
   17.6643   -2.3667   47.7922 O   0  0  0  0  0  0  0  0  0  0  0  0
   16.9108   -2.8747   45.0789 O   0  0  0  0  0  0  0  0  0  0  0  0
  1  2  1  0  0  0  0
  1 12  1  6  0  0  0
  1 13  1  0  0  0  0
  2  3  1  0  0  0  0
  2 10  1  6  0  0  0
  4  3  1  6  0  0  0
  4  5  1  0  0  0  0
  4 14  1  0  0  0  0
  5  6  1  0  0  0  0
  5 13  1  1  0  0  0
  6  7  1  0  0  0  0
  6 15  1  1  0  0  0
  7  8  1  0  0  0  0
  7 11  1  1  0  0  0
  8 14  1  0  0  0  0
  8 16  1  6  0  0  0
  9 11  1  0  0  0  0
 17 16  1  6  0  0  0
 17 18  1  0  0  0  0
 17 24  1  0  0  0  0
 18 19  1  0  0  0  0
 18 25  1  6  0  0  0
 19 20  1  0  0  0  0
 19 26  1  1  0  0  0
 20 21  1  0  0  0  0
 20 23  1  6  0  0  0
 21 22  1  1  0  0  0
 21 24  1  0  0  0  0
 22 27  1  0  0  0  0
 28 12  1  1  0  0  0
 28 29  1  0  0  0  0
 28 33  1  0  0  0  0
 29 30  1  0  0  0  0
 29 36  1  1  0  0  0
 30 31  1  0  0  0  0
 30 37  1  6  0  0  0
 31 32  1  0  0  0  0
 31 34  1  6  0  0  0
 32 33  1  0  0  0  0
 33 35  1  1  0  0  0
M  END
>  <CHROM.1>
-90.71104660,-69.59696130,-173.36460496,178.34613896,-63.58508189,132.25344555
20.91595067,-0.35506563,51.11925112,-1.84154289,-0.47097991,0.83437139

>  <Name>
2oe5_lig

>  <RI>
0

>  <Rbt.Current_Directory>
/home/itssahil/PROJECTS/Mol_Feturizer/New_Systems/rnas/2oe5

>  <Rbt.Executable>
rbdock ($Id: //depot/dev/client3/rdock/2013.1/src/exe/rbdock.cxx#4 $)

>  <Rbt.Library>
libRbt.so (2013.1, Build901 2013/11/27)

>  <Rbt.Parameter_File>
/export/apps/rDock/src/rDock_2013.1_src/data/scripts/dock_solv.prm

>  <Rbt.Receptor>
prm/pocket_docking_4.prm

>  <SCORE>
-16.3038

>  <SCORE.INTER>
-15.5916

>  <SCORE.INTER.CONST>
1

>  <SCORE.INTER.POLAR>
-1.84708

>  <SCORE.INTER.ROT>
6

>  <SCORE.INTER.SOLV>
11.1716

>  <SCORE.INTER.VDW>
-15.5613

>  <SCORE.INTER.norm>
-0.421395

>  <SCORE.INTRA>
-0.712191

>  <SCORE.INTRA.DIHEDRAL>
-5.59189

>  <SCORE.INTRA.DIHEDRAL.0>
16.2083

>  <SCORE.INTRA.POLAR>
0

>  <SCORE.INTRA.POLAR.0>
0

>  <SCORE.INTRA.REPUL>
0

>  <SCORE.INTRA.REPUL.0>
0

>  <SCORE.INTRA.SOLV>
1.44594

>  <SCORE.INTRA.SOLV.lig_0>
-89.8095

>  <SCORE.INTRA.VDW>
1.36079

>  <SCORE.INTRA.VDW.0>
-3.19502

>  <SCORE.INTRA.norm>
-0.0192484

>  <SCORE.RESTR>
0

>  <SCORE.RESTR.CAVITY>
0

>  <SCORE.RESTR.norm>
0

>  <SCORE.SYSTEM>
0

>  <SCORE.SYSTEM.CONST>
0

>  <SCORE.SYSTEM.DIHEDRAL>
0

>  <SCORE.SYSTEM.SOLV>
0

>  <SCORE.SYSTEM.norm>
0

>  <SCORE.heavy>
37

>  <SCORE.norm>
-0.440644

>  <RMSD>
9.918

$$$$
2oe5_lig
 OpenBabel11021811463D
libRbt.so/2013.1/901 2013/11/27
 37 40  0  0  0  0  0  0  0  0999 V2000
   21.9734   -1.6211   49.4146 C   0  0  1  0  0  0  0  0  0  0  0  0
   23.2479   -1.8092   50.2677 C   0  0  1  0  0  0  0  0  0  0  0  0
   22.8402   -1.9954   51.7764 C   0  0  0  0  0  0  0  0  0  0  0  0
   22.0687   -0.7104   52.1521 C   0  0  1  0  0  0  0  0  0  0  0  0
   20.7617   -0.5303   51.2602 C   0  0  1  0  0  0  0  0  0  0  0  0
   19.9670    0.7527   51.6269 C   0  0  1  0  0  0  0  0  0  0  0  0
   19.5754    0.6272   53.1268 C   0  0  1  0  0  0  0  0  0  0  0  0
   20.8904    0.4060   53.9664 C   0  0  2  0  0  0  0  0  0  0  0  0
   19.5340    3.1980   53.6285 C   0  0  0  0  0  0  0  0  0  0  0  0
   23.9932   -3.0034   49.8074 N   0  0  0  0  0  0  0  0  0  0  0  0
   18.8378    1.8649   53.5834 N   0  0  0  0  0  0  0  0  0  0  0  0
   21.1240   -2.7795   49.4546 O   0  0  0  0  0  0  0  0  0  0  0  0
   21.1740   -0.4686   49.8564 O   0  0  0  0  0  0  0  0  0  0  0  0
   21.6489   -0.7863   53.5409 O   0  0  0  0  0  0  0  0  0  0  0  0
   20.8171    1.8799   51.3928 O   0  0  0  0  0  0  0  0  0  0  0  0
   20.5678    0.2240   55.3309 O   0  0  0  0  0  0  0  0  0  0  0  0
   21.7360    0.3122   56.1250 C   0  0  2  0  0  0  0  0  0  0  0  0
   21.5689   -0.3715   57.4816 C   0  0  1  0  0  0  0  0  0  0  0  0
   20.4832    0.3374   58.3371 C   0  0  2  0  0  0  0  0  0  0  0  0
   20.9038    1.8296   58.4860 C   0  0  1  0  0  0  0  0  0  0  0  0
   21.0035    2.4531   57.0551 C   0  0  1  0  0  0  0  0  0  0  0  0
   21.4583    3.8954   57.0751 C   0  0  0  0  0  0  0  0  0  0  0  0
   19.8546    2.5280   59.3199 N   0  0  0  0  0  0  0  0  0  0  0  0
   22.0472    1.7272   56.3213 O   0  0  0  0  0  0  0  0  0  0  0  0
   21.2101   -1.7452   57.2332 O   0  0  0  0  0  0  0  0  0  0  0  0
   20.4579   -0.2880   59.6329 O   0  0  0  0  0  0  0  0  0  0  0  0
   21.5683    4.4235   55.7977 O   0  0  0  0  0  0  0  0  0  0  0  0
   20.0972   -2.7861   48.4625 C   0  0  1  0  0  0  0  0  0  0  0  0
   20.7171   -3.1056   47.0551 C   0  0  1  0  0  0  0  0  0  0  0  0
   19.5677   -3.1204   45.9840 C   0  0  2  0  0  0  0  0  0  0  0  0
   18.5458   -4.2071   46.3506 C   0  0  1  0  0  0  0  0  0  0  0  0
   17.9137   -3.8772   47.7577 C   0  0  0  0  0  0  0  0  0  0  0  0
   19.0693   -3.8464   48.8339 C   0  0  2  0  0  0  0  0  0  0  0  0
   17.4985   -4.2232   45.3427 N   0  0  0  0  0  0  0  0  0  0  0  0
   18.5168   -3.5160   50.1738 N   0  0  0  0  0  0  0  0  0  0  0  0
   21.6874   -2.0778   46.7036 O   0  0  0  0  0  0  0  0  0  0  0  0
   20.1145   -3.4237   44.7281 O   0  0  0  0  0  0  0  0  0  0  0  0
  1  2  1  0  0  0  0
  1 12  1  1  0  0  0
  1 13  1  0  0  0  0
  2  3  1  0  0  0  0
  2 10  1  6  0  0  0
  4  3  1  6  0  0  0
  4  5  1  0  0  0  0
  4 14  1  0  0  0  0
  5  6  1  0  0  0  0
  5 13  1  6  0  0  0
  6  7  1  0  0  0  0
  6 15  1  1  0  0  0
  7  8  1  0  0  0  0
  7 11  1  1  0  0  0
  8 14  1  0  0  0  0
  8 16  1  1  0  0  0
  9 11  1  0  0  0  0
 17 16  1  6  0  0  0
 17 18  1  0  0  0  0
 17 24  1  0  0  0  0
 18 19  1  0  0  0  0
 18 25  1  6  0  0  0
 19 20  1  0  0  0  0
 19 26  1  1  0  0  0
 20 21  1  0  0  0  0
 20 23  1  1  0  0  0
 21 22  1  1  0  0  0
 21 24  1  0  0  0  0
 22 27  1  0  0  0  0
 28 12  1  1  0  0  0
 28 29  1  0  0  0  0
 28 33  1  0  0  0  0
 29 30  1  0  0  0  0
 29 36  1  6  0  0  0
 30 31  1  0  0  0  0
 30 37  1  6  0  0  0
 31 32  1  0  0  0  0
 31 34  1  6  0  0  0
 32 33  1  0  0  0  0
 33 35  1  1  0  0  0
M  END
>  <CHROM.1>
-166.60680645,-65.38074037,-167.48004828,-158.55260951,178.72901380,74.21849894
20.69219069,-0.61392572,52.30874041,2.62438415,1.47231760,-3.06502399

>  <Name>
2oe5_lig

>  <RI>
0

>  <Rbt.Current_Directory>
/home/itssahil/PROJECTS/Mol_Feturizer/New_Systems/rnas/2oe5

>  <Rbt.Executable>
rbdock ($Id: //depot/dev/client3/rdock/2013.1/src/exe/rbdock.cxx#4 $)

>  <Rbt.Library>
libRbt.so (2013.1, Build901 2013/11/27)

>  <Rbt.Parameter_File>
/export/apps/rDock/src/rDock_2013.1_src/data/scripts/dock_solv.prm

>  <Rbt.Receptor>
prm/pocket_docking_3.prm

>  <SCORE>
-16.7516

>  <SCORE.INTER>
-11.4004

>  <SCORE.INTER.CONST>
1

>  <SCORE.INTER.POLAR>
-0.979796

>  <SCORE.INTER.ROT>
6

>  <SCORE.INTER.SOLV>
12.2751

>  <SCORE.INTER.VDW>
-16.026

>  <SCORE.INTER.norm>
-0.308119

>  <SCORE.INTRA>
-5.35123

>  <SCORE.INTRA.DIHEDRAL>
-11.5111

>  <SCORE.INTRA.DIHEDRAL.0>
16.2083

>  <SCORE.INTRA.POLAR>
0

>  <SCORE.INTRA.POLAR.0>
0

>  <SCORE.INTRA.REPUL>
0

>  <SCORE.INTRA.REPUL.0>
0

>  <SCORE.INTRA.SOLV>
-2.01188

>  <SCORE.INTRA.SOLV.lig_0>
-89.8095

>  <SCORE.INTRA.VDW>
1.41027

>  <SCORE.INTRA.VDW.0>
-3.19502

>  <SCORE.INTRA.norm>
-0.144628

>  <SCORE.RESTR>
0

>  <SCORE.RESTR.CAVITY>
0

>  <SCORE.RESTR.norm>
0

>  <SCORE.SYSTEM>
0

>  <SCORE.SYSTEM.CONST>
0

>  <SCORE.SYSTEM.DIHEDRAL>
0

>  <SCORE.SYSTEM.SOLV>
0

>  <SCORE.SYSTEM.norm>
0

>  <SCORE.heavy>
37

>  <SCORE.norm>
-0.452747

>  <RMSD>
9.920

$$$$
2oe5_lig
 OpenBabel11021811463D
libRbt.so/2013.1/901 2013/11/27
 37 40  0  0  0  0  0  0  0  0999 V2000
   22.2717   -2.5576   49.7140 C   0  0  1  0  0  0  0  0  0  0  0  0
   23.3895   -3.1252   50.6172 C   0  0  1  0  0  0  0  0  0  0  0  0
   22.8700   -3.2008   52.1010 C   0  0  0  0  0  0  0  0  0  0  0  0
   22.4945   -1.7498   52.4762 C   0  0  1  0  0  0  0  0  0  0  0  0
   21.3453   -1.1796   51.5325 C   0  0  1  0  0  0  0  0  0  0  0  0
   20.9474    0.2765   51.8978 C   0  0  1  0  0  0  0  0  0  0  0  0
   20.4616    0.2542   53.3751 C   0  0  1  0  0  0  0  0  0  0  0  0
   21.6091   -0.3569   54.2657 C   0  0  2  0  0  0  0  0  0  0  0  0
   19.0432    2.4407   53.1106 C   0  0  0  0  0  0  0  0  0  0  0  0
   23.7710   -4.4808   50.1588 N   0  0  0  0  0  0  0  0  0  0  0  0
   20.1005    1.6492   53.8313 N   0  0  0  0  0  0  0  0  0  0  0  0
   21.1173   -3.4129   49.6857 O   0  0  0  0  0  0  0  0  0  0  0  0
   21.8270   -1.2255   50.1505 O   0  0  0  0  0  0  0  0  0  0  0  0
   22.0020   -1.7150   53.8426 O   0  0  0  0  0  0  0  0  0  0  0  0
   22.1030    1.1042   51.7314 O   0  0  0  0  0  0  0  0  0  0  0  0
   21.1793   -0.4519   55.6094 O   0  0  0  0  0  0  0  0  0  0  0  0
   22.1750    0.0554   56.4778 C   0  0  2  0  0  0  0  0  0  0  0  0
   22.0116   -0.4544   57.9092 C   0  0  1  0  0  0  0  0  0  0  0  0
   20.6814    0.0475   58.5351 C   0  0  2  0  0  0  0  0  0  0  0  0
   20.6900    1.6036   58.4696 C   0  0  1  0  0  0  0  0  0  0  0  0
   20.8135    2.0277   56.9692 C   0  0  1  0  0  0  0  0  0  0  0  0
   20.8842    3.5277   56.7885 C   0  0  0  0  0  0  0  0  0  0  0  0
   19.4002    2.1024   59.0792 N   0  0  0  0  0  0  0  0  0  0  0  0
   22.0920    1.5151   56.4620 O   0  0  0  0  0  0  0  0  0  0  0  0
   22.0453   -1.8946   57.8627 O   0  0  0  0  0  0  0  0  0  0  0  0
   20.6472   -0.3770   59.9097 O   0  0  0  0  0  0  0  0  0  0  0  0
   20.6076    3.9076   55.4840 O   0  0  0  0  0  0  0  0  0  0  0  0
   20.2229   -3.1521   48.6036 C   0  0  1  0  0  0  0  0  0  0  0  0
   20.8332   -3.6982   47.2634 C   0  0  1  0  0  0  0  0  0  0  0  0
   19.8266   -3.4119   46.0916 C   0  0  2  0  0  0  0  0  0  0  0  0
   18.4980   -4.1282   46.3769 C   0  0  1  0  0  0  0  0  0  0  0  0
   17.8792   -3.5686   47.7157 C   0  0  0  0  0  0  0  0  0  0  0  0
   18.8962   -3.8413   48.8929 C   0  0  2  0  0  0  0  0  0  0  0  0
   17.5826   -3.8711   45.2774 N   0  0  0  0  0  0  0  0  0  0  0  0
   18.3586   -3.3077   50.1720 N   0  0  0  0  0  0  0  0  0  0  0  0
   22.0938   -3.0220   46.9891 O   0  0  0  0  0  0  0  0  0  0  0  0
   20.3597   -3.9146   44.8953 O   0  0  0  0  0  0  0  0  0  0  0  0
  1  2  1  0  0  0  0
  1 12  1  1  0  0  0
  1 13  1  0  0  0  0
  2  3  1  0  0  0  0
  2 10  1  6  0  0  0
  4  3  1  6  0  0  0
  4  5  1  0  0  0  0
  4 14  1  0  0  0  0
  5  6  1  0  0  0  0
  5 13  1  6  0  0  0
  6  7  1  0  0  0  0
  6 15  1  1  0  0  0
  7  8  1  0  0  0  0
  7 11  1  1  0  0  0
  8 14  1  0  0  0  0
  8 16  1  1  0  0  0
  9 11  1  0  0  0  0
 17 16  1  6  0  0  0
 17 18  1  0  0  0  0
 17 24  1  0  0  0  0
 18 19  1  0  0  0  0
 18 25  1  6  0  0  0
 19 20  1  0  0  0  0
 19 26  1  1  0  0  0
 20 21  1  0  0  0  0
 20 23  1  6  0  0  0
 21 22  1  1  0  0  0
 21 24  1  0  0  0  0
 22 27  1  0  0  0  0
 28 12  1  1  0  0  0
 28 29  1  0  0  0  0
 28 33  1  0  0  0  0
 29 30  1  0  0  0  0
 29 36  1  6  0  0  0
 30 31  1  0  0  0  0
 30 37  1  6  0  0  0
 31 32  1  0  0  0  0
 31 34  1  6  0  0  0
 32 33  1  0  0  0  0
 33 35  1  1  0  0  0
M  END
>  <CHROM.1>
-163.21846358,58.62157323,-133.05264678,-159.63204709,-162.66237494,74.61829416
20.91175876,-1.09794520,52.46824577,-1.68621733,-0.84705776,1.04706393

>  <Name>
2oe5_lig

>  <RI>
0

>  <Rbt.Current_Directory>
/home/itssahil/PROJECTS/Mol_Feturizer/New_Systems/rnas/2oe5

>  <Rbt.Executable>
rbdock ($Id: //depot/dev/client3/rdock/2013.1/src/exe/rbdock.cxx#4 $)

>  <Rbt.Library>
libRbt.so (2013.1, Build901 2013/11/27)

>  <Rbt.Parameter_File>
/export/apps/rDock/src/rDock_2013.1_src/data/scripts/dock_solv.prm

>  <Rbt.Receptor>
prm/pocket_docking_2.prm

>  <SCORE>
-10.5758

>  <SCORE.INTER>
-9.16576

>  <SCORE.INTER.CONST>
1

>  <SCORE.INTER.POLAR>
-0.979796

>  <SCORE.INTER.ROT>
6

>  <SCORE.INTER.SOLV>
10.0509

>  <SCORE.INTER.VDW>
-13.7948

>  <SCORE.INTER.norm>
-0.247723

>  <SCORE.INTRA>
-2.58457

>  <SCORE.INTRA.DIHEDRAL>
-4.62499

>  <SCORE.INTRA.DIHEDRAL.0>
16.2083

>  <SCORE.INTRA.POLAR>
0

>  <SCORE.INTRA.POLAR.0>
0

>  <SCORE.INTRA.REPUL>
0

>  <SCORE.INTRA.REPUL.0>
0

>  <SCORE.INTRA.SOLV>
-0.48624

>  <SCORE.INTRA.SOLV.lig_0>
-89.8095

>  <SCORE.INTRA.VDW>
-0.0289576

>  <SCORE.INTRA.VDW.0>
-3.19502

>  <SCORE.INTRA.norm>
-0.0698533

>  <SCORE.RESTR>
1.17451

>  <SCORE.RESTR.CAVITY>
1.17451

>  <SCORE.RESTR.norm>
0.0317436

>  <SCORE.SYSTEM>
0

>  <SCORE.SYSTEM.CONST>
0

>  <SCORE.SYSTEM.DIHEDRAL>
0

>  <SCORE.SYSTEM.SOLV>
0

>  <SCORE.SYSTEM.norm>
0

>  <SCORE.heavy>
37

>  <SCORE.norm>
-0.285833

>  <RMSD>
9.921

$$$$
2oe5_lig
 OpenBabel11021811463D
libRbt.so/2013.1/901 2013/11/27
 37 40  0  0  0  0  0  0  0  0999 V2000
   21.2721   -3.0879   49.5902 C   0  0  1  0  0  0  0  0  0  0  0  0
   22.6129   -3.1162   50.3576 C   0  0  1  0  0  0  0  0  0  0  0  0
   22.3273   -3.0614   51.9044 C   0  0  0  0  0  0  0  0  0  0  0  0
   21.5517   -1.7441   52.1296 C   0  0  1  0  0  0  0  0  0  0  0  0
   20.1758   -1.7303   51.3278 C   0  0  1  0  0  0  0  0  0  0  0  0
   19.3764   -0.4168   51.5465 C   0  0  1  0  0  0  0  0  0  0  0  0
   19.1045   -0.3033   53.0735 C   0  0  1  0  0  0  0  0  0  0  0  0
   20.4856   -0.3659   53.8297 C   0  0  2  0  0  0  0  0  0  0  0  0
   19.0596    2.3108   53.2394 C   0  0  0  0  0  0  0  0  0  0  0  0
   23.3533   -4.3581   50.0367 N   0  0  0  0  0  0  0  0  0  0  0  0
   18.3702    0.9811   53.3831 N   0  0  0  0  0  0  0  0  0  0  0  0
   20.4605   -4.2369   49.8834 O   0  0  0  0  0  0  0  0  0  0  0  0
   20.4774   -1.8909   49.9039 O   0  0  0  0  0  0  0  0  0  0  0  0
   21.2417   -1.6001   53.5416 O   0  0  0  0  0  0  0  0  0  0  0  0
   20.1747    0.6700   51.0672 O   0  0  0  0  0  0  0  0  0  0  0  0
   20.2736   -0.3290   55.2271 O   0  0  0  0  0  0  0  0  0  0  0  0
   21.4536    0.0858   55.8894 C   0  0  2  0  0  0  0  0  0  0  0  0
   21.5959   -0.5473   57.2731 C   0  0  1  0  0  0  0  0  0  0  0  0
   20.4553   -0.0857   58.2212 C   0  0  2  0  0  0  0  0  0  0  0  0
   20.5001    1.4698   58.2862 C   0  0  1  0  0  0  0  0  0  0  0  0
   20.3008    2.0242   56.8374 C   0  0  1  0  0  0  0  0  0  0  0  0
   20.3786    3.5332   56.7719 C   0  0  0  0  0  0  0  0  0  0  0  0
   19.3952    1.9292   59.2093 N   0  0  0  0  0  0  0  0  0  0  0  0
   21.4170    1.5420   56.0152 O   0  0  0  0  0  0  0  0  0  0  0  0
   21.5712   -1.9780   57.0996 O   0  0  0  0  0  0  0  0  0  0  0  0
   20.7138   -0.6304   59.5279 O   0  0  0  0  0  0  0  0  0  0  0  0
   20.1914    4.0078   55.4826 O   0  0  0  0  0  0  0  0  0  0  0  0
   19.4323   -4.4865   48.9246 C   0  0  1  0  0  0  0  0  0  0  0  0
   19.9359   -5.5265   47.8608 C   0  0  1  0  0  0  0  0  0  0  0  0
   18.7844   -5.7945   46.8260 C   0  0  2  0  0  0  0  0  0  0  0  0
   17.5634   -6.3669   47.5618 C   0  0  1  0  0  0  0  0  0  0  0  0
   17.0502   -5.3155   48.6198 C   0  0  0  0  0  0  0  0  0  0  0  0
   18.2113   -5.0325   49.6523 C   0  0  2  0  0  0  0  0  0  0  0  0
   16.5129   -6.6279   46.5915 N   0  0  0  0  0  0  0  0  0  0  0  0
   17.7742   -4.0271   50.6563 N   0  0  0  0  0  0  0  0  0  0  0  0
   21.0943   -4.9881   47.1609 O   0  0  0  0  0  0  0  0  0  0  0  0
   19.2237   -6.7372   45.8844 O   0  0  0  0  0  0  0  0  0  0  0  0
  1  2  1  0  0  0  0
  1 12  1  1  0  0  0
  1 13  1  0  0  0  0
  2  3  1  0  0  0  0
  2 10  1  1  0  0  0
  4  3  1  1  0  0  0
  4  5  1  0  0  0  0
  4 14  1  0  0  0  0
  5  6  1  0  0  0  0
  5 13  1  6  0  0  0
  6  7  1  0  0  0  0
  6 15  1  1  0  0  0
  7  8  1  0  0  0  0
  7 11  1  6  0  0  0
  8 14  1  0  0  0  0
  8 16  1  1  0  0  0
  9 11  1  0  0  0  0
 17 16  1  1  0  0  0
 17 18  1  0  0  0  0
 17 24  1  0  0  0  0
 18 19  1  0  0  0  0
 18 25  1  6  0  0  0
 19 20  1  0  0  0  0
 19 26  1  1  0  0  0
 20 21  1  0  0  0  0
 20 23  1  1  0  0  0
 21 22  1  1  0  0  0
 21 24  1  0  0  0  0
 22 27  1  0  0  0  0
 28 12  1  1  0  0  0
 28 29  1  0  0  0  0
 28 33  1  0  0  0  0
 29 30  1  0  0  0  0
 29 36  1  6  0  0  0
 30 31  1  0  0  0  0
 30 37  1  6  0  0  0
 31 32  1  0  0  0  0
 31 34  1  6  0  0  0
 32 33  1  0  0  0  0
 33 35  1  1  0  0  0
M  END
>  <CHROM.1>
-161.41721830,-69.20353342,-159.40359912,-148.33767122,-179.61944049,94.75170234
20.12226612,-1.74926616,52.46395580,-1.74462751,-0.84496182,0.81458177

>  <Name>
2oe5_lig

>  <RI>
0

>  <Rbt.Current_Directory>
/home/itssahil/PROJECTS/Mol_Feturizer/New_Systems/rnas/2oe5

>  <Rbt.Executable>
rbdock ($Id: //depot/dev/client3/rdock/2013.1/src/exe/rbdock.cxx#4 $)

>  <Rbt.Library>
libRbt.so (2013.1, Build901 2013/11/27)

>  <Rbt.Parameter_File>
/export/apps/rDock/src/rDock_2013.1_src/data/scripts/dock_solv.prm

>  <Rbt.Receptor>
prm/pocket_docking_2.prm

>  <SCORE>
-12.5792

>  <SCORE.INTER>
-11.027

>  <SCORE.INTER.CONST>
1

>  <SCORE.INTER.POLAR>
-0.979796

>  <SCORE.INTER.ROT>
6

>  <SCORE.INTER.SOLV>
14.4939

>  <SCORE.INTER.VDW>
-16.5166

>  <SCORE.INTER.norm>
-0.298026

>  <SCORE.INTRA>
-2.02686

>  <SCORE.INTRA.DIHEDRAL>
-4.21225

>  <SCORE.INTRA.DIHEDRAL.0>
16.2083

>  <SCORE.INTRA.POLAR>
0

>  <SCORE.INTRA.POLAR.0>
0

>  <SCORE.INTRA.REPUL>
0

>  <SCORE.INTRA.REPUL.0>
0

>  <SCORE.INTRA.SOLV>
-0.55864

>  <SCORE.INTRA.SOLV.lig_0>
-89.8095

>  <SCORE.INTRA.VDW>
0.358583

>  <SCORE.INTRA.VDW.0>
-3.19502

>  <SCORE.INTRA.norm>
-0.0547801

>  <SCORE.RESTR>
0.474649

>  <SCORE.RESTR.CAVITY>
0.474649

>  <SCORE.RESTR.norm>
0.0128283

>  <SCORE.SYSTEM>
0

>  <SCORE.SYSTEM.CONST>
0

>  <SCORE.SYSTEM.DIHEDRAL>
0

>  <SCORE.SYSTEM.SOLV>
0

>  <SCORE.SYSTEM.norm>
0

>  <SCORE.heavy>
37

>  <SCORE.norm>
-0.339978

>  <RMSD>
9.924

$$$$
2oe5_lig
 OpenBabel11021811463D
libRbt.so/2013.1/901 2013/11/27
 37 40  0  0  0  0  0  0  0  0999 V2000
   20.4171   -1.9306   49.1252 C   0  0  1  0  0  0  0  0  0  0  0  0
   21.9426   -1.6897   49.0791 C   0  0  1  0  0  0  0  0  0  0  0  0
   22.5459   -1.9037   50.5169 C   0  0  0  0  0  0  0  0  0  0  0  0
   21.8191   -0.8824   51.4204 C   0  0  1  0  0  0  0  0  0  0  0  0
   20.2482   -1.1425   51.4521 C   0  0  1  0  0  0  0  0  0  0  0  0
   19.4989   -0.1304   52.3612 C   0  0  1  0  0  0  0  0  0  0  0  0
   20.0931   -0.2822   53.7903 C   0  0  1  0  0  0  0  0  0  0  0  0
   21.6512   -0.0618   53.7061 C   0  0  2  0  0  0  0  0  0  0  0  0
   19.8102    0.7156   56.1960 C   0  0  0  0  0  0  0  0  0  0  0  0
   22.5760   -2.6368   48.1328 N   0  0  0  0  0  0  0  0  0  0  0  0
   19.4518    0.7084   54.7347 N   0  0  0  0  0  0  0  0  0  0  0  0
   20.0972   -3.2829   49.4910 O   0  0  0  0  0  0  0  0  0  0  0  0
   19.7425   -1.0403   50.0817 O   0  0  0  0  0  0  0  0  0  0  0  0
   22.3142   -1.0013   52.7811 O   0  0  0  0  0  0  0  0  0  0  0  0
   19.7161    1.1817   51.8325 O   0  0  0  0  0  0  0  0  0  0  0  0
   22.2361   -0.2548   54.9789 O   0  0  0  0  0  0  0  0  0  0  0  0
   23.6064    0.0974   54.9451 C   0  0  2  0  0  0  0  0  0  0  0  0
   24.2939   -0.1152   56.2933 C   0  0  1  0  0  0  0  0  0  0  0  0
   23.6964    0.8188   57.3813 C   0  0  2  0  0  0  0  0  0  0  0  0
   23.8482    2.2843   56.8761 C   0  0  1  0  0  0  0  0  0  0  0  0
   23.0772    2.4153   55.5216 C   0  0  1  0  0  0  0  0  0  0  0  0
   23.2003    3.7924   54.9085 C   0  0  0  0  0  0  0  0  0  0  0  0
   23.2721    3.2020   57.9296 N   0  0  0  0  0  0  0  0  0  0  0  0
   23.7055    1.5038   54.5579 O   0  0  0  0  0  0  0  0  0  0  0  0
   24.1205   -1.4998   56.6546 O   0  0  0  0  0  0  0  0  0  0  0  0
   24.4604    0.6434   58.5882 O   0  0  0  0  0  0  0  0  0  0  0  0
   22.6202    4.7691   55.7037 O   0  0  0  0  0  0  0  0  0  0  0  0
   19.1353   -3.9069   48.6400 C   0  0  1  0  0  0  0  0  0  0  0  0
   19.8462   -4.4826   47.3633 C   0  0  1  0  0  0  0  0  0  0  0  0
   18.7711   -5.1748   46.4504 C   0  0  2  0  0  0  0  0  0  0  0  0
   18.1081   -6.3224   47.2270 C   0  0  1  0  0  0  0  0  0  0  0  0
   17.3825   -5.7408   48.5012 C   0  0  0  0  0  0  0  0  0  0  0  0
   18.4588   -5.0308   49.4132 C   0  0  2  0  0  0  0  0  0  0  0  0
   17.1297   -6.9659   46.3658 N   0  0  0  0  0  0  0  0  0  0  0  0
   17.8101   -4.4484   50.6174 N   0  0  0  0  0  0  0  0  0  0  0  0
   20.4770   -3.3978   46.6239 O   0  0  0  0  0  0  0  0  0  0  0  0
   19.4048   -5.7068   45.3174 O   0  0  0  0  0  0  0  0  0  0  0  0
  1  2  1  0  0  0  0
  1 12  1  1  0  0  0
  1 13  1  0  0  0  0
  2  3  1  0  0  0  0
  2 10  1  6  0  0  0
  4  3  1  6  0  0  0
  4  5  1  0  0  0  0
  4 14  1  0  0  0  0
  5  6  1  0  0  0  0
  5 13  1  6  0  0  0
  6  7  1  0  0  0  0
  6 15  1  6  0  0  0
  7  8  1  0  0  0  0
  7 11  1  1  0  0  0
  8 14  1  0  0  0  0
  8 16  1  1  0  0  0
  9 11  1  0  0  0  0
 17 16  1  1  0  0  0
 17 18  1  0  0  0  0
 17 24  1  0  0  0  0
 18 19  1  0  0  0  0
 18 25  1  1  0  0  0
 19 20  1  0  0  0  0
 19 26  1  1  0  0  0
 20 21  1  0  0  0  0
 20 23  1  1  0  0  0
 21 22  1  6  0  0  0
 21 24  1  0  0  0  0
 22 27  1  0  0  0  0
 28 12  1  1  0  0  0
 28 29  1  0  0  0  0
 28 33  1  0  0  0  0
 29 30  1  0  0  0  0
 29 36  1  6  0  0  0
 30 31  1  0  0  0  0
 30 37  1  6  0  0  0
 31 32  1  0  0  0  0
 31 34  1  6  0  0  0
 32 33  1  0  0  0  0
 33 35  1  1  0  0  0
M  END
>  <CHROM.1>
-131.64949349,177.01794207,-172.99726465,-179.03757637,-63.86906454,83.18284283
21.12056451,-1.23389335,52.07287871,-2.01146587,0.59643755,1.19462721

>  <Name>
2oe5_lig

>  <RI>
0

>  <Rbt.Current_Directory>
/home/itssahil/PROJECTS/Mol_Feturizer/New_Systems/rnas/2oe5

>  <Rbt.Executable>
rbdock ($Id: //depot/dev/client3/rdock/2013.1/src/exe/rbdock.cxx#4 $)

>  <Rbt.Library>
libRbt.so (2013.1, Build901 2013/11/27)

>  <Rbt.Parameter_File>
/export/apps/rDock/src/rDock_2013.1_src/data/scripts/dock_solv.prm

>  <Rbt.Receptor>
prm/pocket_docking_5.prm

>  <SCORE>
-16.0736

>  <SCORE.INTER>
-13.7337

>  <SCORE.INTER.CONST>
1

>  <SCORE.INTER.POLAR>
-1.99227

>  <SCORE.INTER.ROT>
6

>  <SCORE.INTER.SOLV>
13.2652

>  <SCORE.INTER.VDW>
-14.5367

>  <SCORE.INTER.norm>
-0.371182

>  <SCORE.INTRA>
-2.33985

>  <SCORE.INTRA.DIHEDRAL>
-6.99602

>  <SCORE.INTRA.DIHEDRAL.0>
16.2083

>  <SCORE.INTRA.POLAR>
0

>  <SCORE.INTRA.POLAR.0>
0

>  <SCORE.INTRA.REPUL>
0

>  <SCORE.INTRA.REPUL.0>
0

>  <SCORE.INTRA.SOLV>
0.268733

>  <SCORE.INTRA.SOLV.lig_0>
-89.8095

>  <SCORE.INTRA.VDW>
1.02379

>  <SCORE.INTRA.VDW.0>
-3.19502

>  <SCORE.INTRA.norm>
-0.0632393

>  <SCORE.RESTR>
0

>  <SCORE.RESTR.CAVITY>
0

>  <SCORE.RESTR.norm>
0

>  <SCORE.SYSTEM>
0

>  <SCORE.SYSTEM.CONST>
0

>  <SCORE.SYSTEM.DIHEDRAL>
0

>  <SCORE.SYSTEM.SOLV>
0

>  <SCORE.SYSTEM.norm>
0

>  <SCORE.heavy>
37

>  <SCORE.norm>
-0.434421

>  <RMSD>
9.926

$$$$
2oe5_lig
 OpenBabel11021811463D
libRbt.so/2013.1/901 2013/11/27
 37 40  0  0  0  0  0  0  0  0999 V2000
   17.3859   -5.5723   47.7301 C   0  0  1  0  0  0  0  0  0  0  0  0
   17.1277   -4.2169   47.0348 C   0  0  1  0  0  0  0  0  0  0  0  0
   18.4225   -3.3276   47.1336 C   0  0  0  0  0  0  0  0  0  0  0  0
   18.6929   -3.1672   48.6464 C   0  0  1  0  0  0  0  0  0  0  0  0
   18.9518   -4.5737   49.3472 C   0  0  1  0  0  0  0  0  0  0  0  0
   19.2331   -4.4343   50.8683 C   0  0  1  0  0  0  0  0  0  0  0  0
   20.4883   -3.5276   51.0134 C   0  0  1  0  0  0  0  0  0  0  0  0
   20.2068   -2.1673   50.2696 C   0  0  2  0  0  0  0  0  0  0  0  0
   22.1939   -2.9127   52.9043 C   0  0  0  0  0  0  0  0  0  0  0  0
   16.7875   -4.4358   45.6101 N   0  0  0  0  0  0  0  0  0  0  0  0
   20.8044   -3.2964   52.4733 N   0  0  0  0  0  0  0  0  0  0  0  0
   18.4287   -6.3189   47.0821 O   0  0  0  0  0  0  0  0  0  0  0  0
   17.7672   -5.4095   49.1411 O   0  0  0  0  0  0  0  0  0  0  0  0
   19.8787   -2.3510   48.8425 O   0  0  0  0  0  0  0  0  0  0  0  0
   18.0797   -3.8457   51.4778 O   0  0  0  0  0  0  0  0  0  0  0  0
   21.3517   -1.3395   50.3260 O   0  0  0  0  0  0  0  0  0  0  0  0
   20.9945    0.0062   50.0722 C   0  0  2  0  0  0  0  0  0  0  0  0
   22.1267    0.9791   50.3996 C   0  0  1  0  0  0  0  0  0  0  0  0
   22.4597    0.9624   51.9168 C   0  0  2  0  0  0  0  0  0  0  0  0
   21.1521    1.3115   52.6877 C   0  0  1  0  0  0  0  0  0  0  0  0
   20.0720    0.2397   52.3260 C   0  0  1  0  0  0  0  0  0  0  0  0
   18.7362    0.5100   52.9818 C   0  0  0  0  0  0  0  0  0  0  0  0
   21.4663    1.3007   54.1660 N   0  0  0  0  0  0  0  0  0  0  0  0
   19.8203    0.3261   50.8826 O   0  0  0  0  0  0  0  0  0  0  0  0
   23.2734    0.5881   49.6186 O   0  0  0  0  0  0  0  0  0  0  0  0
   23.4516    1.9746   52.1668 O   0  0  0  0  0  0  0  0  0  0  0  0
   18.2811    1.7942   52.7243 O   0  0  0  0  0  0  0  0  0  0  0  0
   18.5719   -7.6574   47.5582 C   0  0  1  0  0  0  0  0  0  0  0  0
   17.6400   -8.6185   46.7368 C   0  0  1  0  0  0  0  0  0  0  0  0
   17.8249  -10.0850   47.2694 C   0  0  2  0  0  0  0  0  0  0  0  0
   19.2890  -10.5118   47.0843 C   0  0  1  0  0  0  0  0  0  0  0  0
   20.2225   -9.5545   47.9212 C   0  0  0  0  0  0  0  0  0  0  0  0
   20.0269   -8.0771   47.3981 C   0  0  2  0  0  0  0  0  0  0  0  0
   19.4425  -11.8757   47.5631 N   0  0  0  0  0  0  0  0  0  0  0  0
   20.8753   -7.1380   48.1780 N   0  0  0  0  0  0  0  0  0  0  0  0
   16.2505   -8.2171   46.9089 O   0  0  0  0  0  0  0  0  0  0  0  0
   17.0078  -10.9499   46.5259 O   0  0  0  0  0  0  0  0  0  0  0  0
  1  2  1  0  0  0  0
  1 12  1  6  0  0  0
  1 13  1  0  0  0  0
  2  3  1  0  0  0  0
  2 10  1  6  0  0  0
  4  3  1  6  0  0  0
  4  5  1  0  0  0  0
  4 14  1  0  0  0  0
  5  6  1  0  0  0  0
  5 13  1  1  0  0  0
  6  7  1  0  0  0  0
  6 15  1  1  0  0  0
  7  8  1  0  0  0  0
  7 11  1  1  0  0  0
  8 14  1  0  0  0  0
  8 16  1  6  0  0  0
  9 11  1  0  0  0  0
 17 16  1  1  0  0  0
 17 18  1  0  0  0  0
 17 24  1  0  0  0  0
 18 19  1  0  0  0  0
 18 25  1  6  0  0  0
 19 20  1  0  0  0  0
 19 26  1  6  0  0  0
 20 21  1  0  0  0  0
 20 23  1  1  0  0  0
 21 22  1  1  0  0  0
 21 24  1  0  0  0  0
 22 27  1  0  0  0  0
 28 12  1  6  0  0  0
 28 29  1  0  0  0  0
 28 33  1  0  0  0  0
 29 30  1  0  0  0  0
 29 36  1  1  0  0  0
 30 31  1  0  0  0  0
 30 37  1  6  0  0  0
 31 32  1  0  0  0  0
 31 34  1  1  0  0  0
 32 33  1  0  0  0  0
 33 35  1  1  0  0  0
M  END
>  <CHROM.1>
-171.14143982,157.14331846,-160.73596587,168.25706327,53.35396883,88.93498446
19.58813479,-3.83903054,49.55683035,1.89180926,0.55759161,-2.84864157

>  <Name>
2oe5_lig

>  <RI>
0

>  <Rbt.Current_Directory>
/home/itssahil/PROJECTS/Mol_Feturizer/New_Systems/rnas/2oe5

>  <Rbt.Executable>
rbdock ($Id: //depot/dev/client3/rdock/2013.1/src/exe/rbdock.cxx#4 $)

>  <Rbt.Library>
libRbt.so (2013.1, Build901 2013/11/27)

>  <Rbt.Parameter_File>
/export/apps/rDock/src/rDock_2013.1_src/data/scripts/dock_solv.prm

>  <Rbt.Receptor>
prm/pocket_docking_8.prm

>  <SCORE>
-27.8766

>  <SCORE.INTER>
-23.2066

>  <SCORE.INTER.CONST>
1

>  <SCORE.INTER.POLAR>
-2.22753

>  <SCORE.INTER.ROT>
6

>  <SCORE.INTER.SOLV>
12.3267

>  <SCORE.INTER.VDW>
-19.7549

>  <SCORE.INTER.norm>
-0.627205

>  <SCORE.INTRA>
-4.66999

>  <SCORE.INTRA.DIHEDRAL>
-9.46703

>  <SCORE.INTRA.DIHEDRAL.0>
16.2083

>  <SCORE.INTRA.POLAR>
0

>  <SCORE.INTRA.POLAR.0>
0

>  <SCORE.INTRA.REPUL>
0

>  <SCORE.INTRA.REPUL.0>
0

>  <SCORE.INTRA.SOLV>
-0.387691

>  <SCORE.INTRA.SOLV.lig_0>
-89.8095

>  <SCORE.INTRA.VDW>
0.257365

>  <SCORE.INTRA.VDW.0>
-3.19502

>  <SCORE.INTRA.norm>
-0.126216

>  <SCORE.RESTR>
0

>  <SCORE.RESTR.CAVITY>
0

>  <SCORE.RESTR.norm>
0

>  <SCORE.SYSTEM>
0

>  <SCORE.SYSTEM.CONST>
0

>  <SCORE.SYSTEM.DIHEDRAL>
0

>  <SCORE.SYSTEM.SOLV>
0

>  <SCORE.SYSTEM.norm>
0

>  <SCORE.heavy>
37

>  <SCORE.norm>
-0.753421

>  <RMSD>
9.931

$$$$
2oe5_lig
 OpenBabel11021811463D
libRbt.so/2013.1/901 2013/11/27
 37 40  0  0  0  0  0  0  0  0999 V2000
   22.2316   -2.4796   49.7497 C   0  0  1  0  0  0  0  0  0  0  0  0
   23.4195   -3.0046   50.5867 C   0  0  1  0  0  0  0  0  0  0  0  0
   22.9692   -3.1606   52.0867 C   0  0  0  0  0  0  0  0  0  0  0  0
   22.5214   -1.7489   52.5272 C   0  0  1  0  0  0  0  0  0  0  0  0
   21.3003   -1.2220   51.6511 C   0  0  1  0  0  0  0  0  0  0  0  0
   20.8295    0.1937   52.0827 C   0  0  1  0  0  0  0  0  0  0  0  0
   20.4093    0.0932   53.5767 C   0  0  1  0  0  0  0  0  0  0  0  0
   21.6289   -0.4729   54.3984 C   0  0  2  0  0  0  0  0  0  0  0  0
   18.8996    2.2269   53.4007 C   0  0  0  0  0  0  0  0  0  0  0  0
   23.8638   -4.3181   50.0663 N   0  0  0  0  0  0  0  0  0  0  0  0
   19.9828    1.4473   54.0955 N   0  0  0  0  0  0  0  0  0  0  0  0
   21.1317   -3.4044   49.7382 O   0  0  0  0  0  0  0  0  0  0  0  0
   21.7248   -1.1929   50.2500 O   0  0  0  0  0  0  0  0  0  0  0  0
   22.0862   -1.7893   53.9127 O   0  0  0  0  0  0  0  0  0  0  0  0
   21.9240    1.0973   51.8988 O   0  0  0  0  0  0  0  0  0  0  0  0
   21.2632   -0.6381   55.7543 O   0  0  0  0  0  0  0  0  0  0  0  0
   22.2418   -0.0605   56.5979 C   0  0  2  0  0  0  0  0  0  0  0  0
   22.0944   -0.5106   58.0510 C   0  0  1  0  0  0  0  0  0  0  0  0
   20.7484   -0.0243   58.6551 C   0  0  2  0  0  0  0  0  0  0  0  0
   20.7069    1.5268   58.5199 C   0  0  1  0  0  0  0  0  0  0  0  0
   20.8172    1.8869   57.0019 C   0  0  1  0  0  0  0  0  0  0  0  0
   20.8395    3.3788   56.7541 C   0  0  0  0  0  0  0  0  0  0  0  0
   19.4014    2.0105   59.1080 N   0  0  0  0  0  0  0  0  0  0  0  0
   22.1117    1.3935   56.5169 O   0  0  0  0  0  0  0  0  0  0  0  0
   22.1745   -1.9496   58.0691 O   0  0  0  0  0  0  0  0  0  0  0  0
   20.7274   -0.3876   60.0475 O   0  0  0  0  0  0  0  0  0  0  0  0
   20.8050    3.6815   55.4014 O   0  0  0  0  0  0  0  0  0  0  0  0
   20.2383   -3.2367   48.6372 C   0  0  1  0  0  0  0  0  0  0  0  0
   20.8644   -3.8658   47.3414 C   0  0  1  0  0  0  0  0  0  0  0  0
   19.8586   -3.6809   46.1486 C   0  0  2  0  0  0  0  0  0  0  0  0
   18.5411   -4.3981   46.4793 C   0  0  1  0  0  0  0  0  0  0  0  0
   17.9064   -3.7557   47.7726 C   0  0  0  0  0  0  0  0  0  0  0  0
   18.9221   -3.9265   48.9699 C   0  0  2  0  0  0  0  0  0  0  0  0
   17.6268   -4.2356   45.3609 N   0  0  0  0  0  0  0  0  0  0  0  0
   18.3694   -3.3128   50.2059 N   0  0  0  0  0  0  0  0  0  0  0  0
   22.1146   -3.1891   47.0243 O   0  0  0  0  0  0  0  0  0  0  0  0
   20.4061   -4.2580   44.9929 O   0  0  0  0  0  0  0  0  0  0  0  0
  1  2  1  0  0  0  0
  1 12  1  1  0  0  0
  1 13  1  0  0  0  0
  2  3  1  0  0  0  0
  2 10  1  6  0  0  0
  4  3  1  6  0  0  0
  4  5  1  0  0  0  0
  4 14  1  0  0  0  0
  5  6  1  0  0  0  0
  5 13  1  6  0  0  0
  6  7  1  0  0  0  0
  6 15  1  1  0  0  0
  7  8  1  0  0  0  0
  7 11  1  1  0  0  0
  8 14  1  0  0  0  0
  8 16  1  1  0  0  0
  9 11  1  0  0  0  0
 17 16  1  6  0  0  0
 17 18  1  0  0  0  0
 17 24  1  0  0  0  0
 18 19  1  0  0  0  0
 18 25  1  6  0  0  0
 19 20  1  0  0  0  0
 19 26  1  1  0  0  0
 20 21  1  0  0  0  0
 20 23  1  6  0  0  0
 21 22  1  1  0  0  0
 21 24  1  0  0  0  0
 22 27  1  0  0  0  0
 28 12  1  1  0  0  0
 28 29  1  0  0  0  0
 28 33  1  0  0  0  0
 29 30  1  0  0  0  0
 29 36  1  6  0  0  0
 30 31  1  0  0  0  0
 30 37  1  6  0  0  0
 31 32  1  0  0  0  0
 31 34  1  6  0  0  0
 32 33  1  0  0  0  0
 33 35  1  1  0  0  0
M  END
>  <CHROM.1>
-158.19602660,55.27763637,-131.23614318,-165.33970126,-174.09120835,77.90061562
20.92781826,-1.19868468,52.55267942,-1.67952689,-0.77012076,1.05580237

>  <Name>
2oe5_lig

>  <RI>
0

>  <Rbt.Current_Directory>
/home/itssahil/PROJECTS/Mol_Feturizer/New_Systems/rnas/2oe5

>  <Rbt.Executable>
rbdock ($Id: //depot/dev/client3/rdock/2013.1/src/exe/rbdock.cxx#4 $)

>  <Rbt.Library>
libRbt.so (2013.1, Build901 2013/11/27)

>  <Rbt.Parameter_File>
/export/apps/rDock/src/rDock_2013.1_src/data/scripts/dock_solv.prm

>  <Rbt.Receptor>
prm/pocket_docking_2.prm

>  <SCORE>
-10.1241

>  <SCORE.INTER>
-8.84256

>  <SCORE.INTER.CONST>
1

>  <SCORE.INTER.POLAR>
-0.979796

>  <SCORE.INTER.ROT>
6

>  <SCORE.INTER.SOLV>
9.69785

>  <SCORE.INTER.VDW>
-13.4617

>  <SCORE.INTER.norm>
-0.238988

>  <SCORE.INTRA>
-2.44179

>  <SCORE.INTRA.DIHEDRAL>
-4.87791

>  <SCORE.INTRA.DIHEDRAL.0>
16.2083

>  <SCORE.INTRA.POLAR>
0

>  <SCORE.INTRA.POLAR.0>
0

>  <SCORE.INTRA.REPUL>
0

>  <SCORE.INTRA.REPUL.0>
0

>  <SCORE.INTRA.SOLV>
0.041086

>  <SCORE.INTRA.SOLV.lig_0>
-89.8095

>  <SCORE.INTRA.VDW>
-0.0233786

>  <SCORE.INTRA.VDW.0>
-3.19502

>  <SCORE.INTRA.norm>
-0.0659943

>  <SCORE.RESTR>
1.16028

>  <SCORE.RESTR.CAVITY>
1.16028

>  <SCORE.RESTR.norm>
0.0313589

>  <SCORE.SYSTEM>
0

>  <SCORE.SYSTEM.CONST>
0

>  <SCORE.SYSTEM.DIHEDRAL>
0

>  <SCORE.SYSTEM.SOLV>
0

>  <SCORE.SYSTEM.norm>
0

>  <SCORE.heavy>
37

>  <SCORE.norm>
-0.273624

>  <RMSD>
9.933

$$$$
2oe5_lig
 OpenBabel11021811463D
libRbt.so/2013.1/901 2013/11/27
 37 40  0  0  0  0  0  0  0  0999 V2000
   19.8731   -4.3292   49.0524 C   0  0  1  0  0  0  0  0  0  0  0  0
   20.0483   -5.1378   50.3573 C   0  0  1  0  0  0  0  0  0  0  0  0
   19.4005   -4.3435   51.5516 C   0  0  0  0  0  0  0  0  0  0  0  0
   20.1479   -2.9919   51.5957 C   0  0  1  0  0  0  0  0  0  0  0  0
   19.9604   -2.1746   50.2418 C   0  0  1  0  0  0  0  0  0  0  0  0
   20.6985   -0.8083   50.2680 C   0  0  1  0  0  0  0  0  0  0  0  0
   20.1129   -0.0024   51.4623 C   0  0  1  0  0  0  0  0  0  0  0  0
   20.2782   -0.8641   52.7712 C   0  0  2  0  0  0  0  0  0  0  0  0
   21.8351    1.7605   50.5741 C   0  0  0  0  0  0  0  0  0  0  0  0
   19.3885   -6.4574   50.2273 N   0  0  0  0  0  0  0  0  0  0  0  0
   20.8154    1.3295   51.5931 N   0  0  0  0  0  0  0  0  0  0  0  0
   18.4885   -4.1576   48.7082 O   0  0  0  0  0  0  0  0  0  0  0  0
   20.4776   -2.9916   49.1420 O   0  0  0  0  0  0  0  0  0  0  0  0
   19.6181   -2.1808   52.6783 O   0  0  0  0  0  0  0  0  0  0  0  0
   22.0963   -1.0655   50.4356 O   0  0  0  0  0  0  0  0  0  0  0  0
   19.6990   -0.1893   53.8705 O   0  0  0  0  0  0  0  0  0  0  0  0
   20.6459    0.6785   54.4649 C   0  0  2  0  0  0  0  0  0  0  0  0
   21.3445    0.0409   55.6653 C   0  0  1  0  0  0  0  0  0  0  0  0
   20.3369   -0.2511   56.8109 C   0  0  2  0  0  0  0  0  0  0  0  0
   19.6500    1.0955   57.1859 C   0  0  1  0  0  0  0  0  0  0  0  0
   18.9268    1.6451   55.9126 C   0  0  1  0  0  0  0  0  0  0  0  0
   18.2642    2.9842   56.1476 C   0  0  0  0  0  0  0  0  0  0  0  0
   18.6690    0.8226   58.3027 N   0  0  0  0  0  0  0  0  0  0  0  0
   19.9484    1.8919   54.8881 O   0  0  0  0  0  0  0  0  0  0  0  0
   21.9678   -1.1757   55.2080 O   0  0  0  0  0  0  0  0  0  0  0  0
   21.0778   -0.7455   57.9413 O   0  0  0  0  0  0  0  0  0  0  0  0
   17.6115    3.4469   55.0151 O   0  0  0  0  0  0  0  0  0  0  0  0
   18.2169   -4.2571   47.3100 C   0  0  1  0  0  0  0  0  0  0  0  0
   18.7175   -2.9620   46.5757 C   0  0  1  0  0  0  0  0  0  0  0  0
   18.4202   -3.1007   45.0392 C   0  0  2  0  0  0  0  0  0  0  0  0
   19.1677   -4.3231   44.4855 C   0  0  1  0  0  0  0  0  0  0  0  0
   18.6537   -5.6245   45.2138 C   0  0  0  0  0  0  0  0  0  0  0  0
   18.9374   -5.4810   46.7608 C   0  0  2  0  0  0  0  0  0  0  0  0
   18.8997   -4.4292   43.0607 N   0  0  0  0  0  0  0  0  0  0  0  0
   18.4463   -6.6809   47.4881 N   0  0  0  0  0  0  0  0  0  0  0  0
   18.0116   -1.8000   47.0982 O   0  0  0  0  0  0  0  0  0  0  0  0
   18.8826   -1.9537   44.3768 O   0  0  0  0  0  0  0  0  0  0  0  0
  1  2  1  0  0  0  0
  1 12  1  1  0  0  0
  1 13  1  0  0  0  0
  2  3  1  0  0  0  0
  2 10  1  6  0  0  0
  4  3  1  6  0  0  0
  4  5  1  0  0  0  0
  4 14  1  0  0  0  0
  5  6  1  0  0  0  0
  5 13  1  6  0  0  0
  6  7  1  0  0  0  0
  6 15  1  1  0  0  0
  7  8  1  0  0  0  0
  7 11  1  1  0  0  0
  8 14  1  0  0  0  0
  8 16  1  1  0  0  0
  9 11  1  0  0  0  0
 17 16  1  1  0  0  0
 17 18  1  0  0  0  0
 17 24  1  0  0  0  0
 18 19  1  0  0  0  0
 18 25  1  6  0  0  0
 19 20  1  0  0  0  0
 19 26  1  1  0  0  0
 20 21  1  0  0  0  0
 20 23  1  1  0  0  0
 21 22  1  1  0  0  0
 21 24  1  0  0  0  0
 22 27  1  0  0  0  0
 28 12  1  1  0  0  0
 28 29  1  0  0  0  0
 28 33  1  0  0  0  0
 29 30  1  0  0  0  0
 29 36  1  1  0  0  0
 30 31  1  0  0  0  0
 30 37  1  6  0  0  0
 31 32  1  0  0  0  0
 31 34  1  6  0  0  0
 32 33  1  0  0  0  0
 33 35  1  1  0  0  0
M  END
>  <CHROM.1>
-141.15195434,5.05919695,-87.77481160,-96.15962504,-179.10307430,-74.05162238
19.67634440,-1.70587687,51.09914993,-2.34281321,-1.44520715,0.30730693

>  <Name>
2oe5_lig

>  <RI>
0

>  <Rbt.Current_Directory>
/home/itssahil/PROJECTS/Mol_Feturizer/New_Systems/rnas/2oe5

>  <Rbt.Executable>
rbdock ($Id: //depot/dev/client3/rdock/2013.1/src/exe/rbdock.cxx#4 $)

>  <Rbt.Library>
libRbt.so (2013.1, Build901 2013/11/27)

>  <Rbt.Parameter_File>
/export/apps/rDock/src/rDock_2013.1_src/data/scripts/dock_solv.prm

>  <Rbt.Receptor>
prm/pocket_docking_4.prm

>  <SCORE>
-14.8294

>  <SCORE.INTER>
-19.5322

>  <SCORE.INTER.CONST>
1

>  <SCORE.INTER.POLAR>
-2.16176

>  <SCORE.INTER.ROT>
6

>  <SCORE.INTER.SOLV>
16.4027

>  <SCORE.INTER.VDW>
-18.8831

>  <SCORE.INTER.norm>
-0.527897

>  <SCORE.INTRA>
4.70277

>  <SCORE.INTRA.DIHEDRAL>
-0.964983

>  <SCORE.INTRA.DIHEDRAL.0>
16.2083

>  <SCORE.INTRA.POLAR>
0

>  <SCORE.INTRA.POLAR.0>
0

>  <SCORE.INTRA.REPUL>
0

>  <SCORE.INTRA.REPUL.0>
0

>  <SCORE.INTRA.SOLV>
1.11886

>  <SCORE.INTRA.SOLV.lig_0>
-89.8095

>  <SCORE.INTRA.VDW>
4.62583

>  <SCORE.INTRA.VDW.0>
-3.19502

>  <SCORE.INTRA.norm>
0.127102

>  <SCORE.RESTR>
0

>  <SCORE.RESTR.CAVITY>
0

>  <SCORE.RESTR.norm>
0

>  <SCORE.SYSTEM>
0

>  <SCORE.SYSTEM.CONST>
0

>  <SCORE.SYSTEM.DIHEDRAL>
0

>  <SCORE.SYSTEM.SOLV>
0

>  <SCORE.SYSTEM.norm>
0

>  <SCORE.heavy>
37

>  <SCORE.norm>
-0.400795

>  <RMSD>
9.934

$$$$
2oe5_lig
 OpenBabel11021811463D
libRbt.so/2013.1/901 2013/11/27
 37 40  0  0  0  0  0  0  0  0999 V2000
   21.4634   -1.5956   49.2700 C   0  0  1  0  0  0  0  0  0  0  0  0
   21.9443   -2.7170   50.2179 C   0  0  1  0  0  0  0  0  0  0  0  0
   21.1493   -2.6278   51.5734 C   0  0  0  0  0  0  0  0  0  0  0  0
   21.4520   -1.2193   52.1319 C   0  0  1  0  0  0  0  0  0  0  0  0
   20.9543   -0.0767   51.1404 C   0  0  1  0  0  0  0  0  0  0  0  0
   21.2427    1.3482   51.6868 C   0  0  1  0  0  0  0  0  0  0  0  0
   20.5035    1.4665   53.0500 C   0  0  1  0  0  0  0  0  0  0  0  0
   20.9912    0.2937   53.9826 C   0  0  2  0  0  0  0  0  0  0  0  0
   19.8456    3.9725   53.4376 C   0  0  0  0  0  0  0  0  0  0  0  0
   21.7106   -4.0404   49.5956 N   0  0  0  0  0  0  0  0  0  0  0  0
   20.7740    2.8136   53.6800 N   0  0  0  0  0  0  0  0  0  0  0  0
   20.0760   -1.7414   48.9251 O   0  0  0  0  0  0  0  0  0  0  0  0
   21.6368   -0.2586   49.8576 O   0  0  0  0  0  0  0  0  0  0  0  0
   20.7585   -1.0403   53.3959 O   0  0  0  0  0  0  0  0  0  0  0  0
   22.6594    1.4842   51.8376 O   0  0  0  0  0  0  0  0  0  0  0  0
   20.2930    0.3311   55.2115 O   0  0  0  0  0  0  0  0  0  0  0  0
   21.0167    1.0904   56.1616 C   0  0  2  0  0  0  0  0  0  0  0  0
   21.2825    0.3095   57.4481 C   0  0  1  0  0  0  0  0  0  0  0  0
   19.9561   -0.0351   58.1796 C   0  0  2  0  0  0  0  0  0  0  0  0
   19.2115    1.3046   58.4562 C   0  0  1  0  0  0  0  0  0  0  0  0
   18.9439    2.0060   57.0840 C   0  0  1  0  0  0  0  0  0  0  0  0
   18.2669    3.3499   57.2354 C   0  0  0  0  0  0  0  0  0  0  0  0
   17.9199    0.9804   59.1708 N   0  0  0  0  0  0  0  0  0  0  0  0
   20.2440    2.2937   56.4664 O   0  0  0  0  0  0  0  0  0  0  0  0
   21.9957   -0.8900   57.0873 O   0  0  0  0  0  0  0  0  0  0  0  0
   20.2872   -0.6693   59.4282 O   0  0  0  0  0  0  0  0  0  0  0  0
   17.9308    3.9036   56.0094 O   0  0  0  0  0  0  0  0  0  0  0  0
   19.7886   -2.8938   48.1326 C   0  0  1  0  0  0  0  0  0  0  0  0
   18.2350   -3.1068   48.0443 C   0  0  1  0  0  0  0  0  0  0  0  0
   17.9439   -4.3708   47.1578 C   0  0  2  0  0  0  0  0  0  0  0  0
   18.5092   -4.1433   45.7476 C   0  0  1  0  0  0  0  0  0  0  0  0
   20.0714   -3.9439   45.8365 C   0  0  0  0  0  0  0  0  0  0  0  0
   20.3673   -2.6828   46.7400 C   0  0  2  0  0  0  0  0  0  0  0  0
   18.2169   -5.3110   44.9328 N   0  0  0  0  0  0  0  0  0  0  0  0
   21.8335   -2.4730   46.8674 N   0  0  0  0  0  0  0  0  0  0  0  0
   17.6944   -3.3223   49.3796 O   0  0  0  0  0  0  0  0  0  0  0  0
   16.5563   -4.5539   47.0610 O   0  0  0  0  0  0  0  0  0  0  0  0
  1  2  1  0  0  0  0
  1 12  1  1  0  0  0
  1 13  1  0  0  0  0
  2  3  1  0  0  0  0
  2 10  1  6  0  0  0
  4  3  1  6  0  0  0
  4  5  1  0  0  0  0
  4 14  1  0  0  0  0
  5  6  1  0  0  0  0
  5 13  1  6  0  0  0
  6  7  1  0  0  0  0
  6 15  1  1  0  0  0
  7  8  1  0  0  0  0
  7 11  1  1  0  0  0
  8 14  1  0  0  0  0
  8 16  1  1  0  0  0
  9 11  1  0  0  0  0
 17 16  1  6  0  0  0
 17 18  1  0  0  0  0
 17 24  1  0  0  0  0
 18 19  1  0  0  0  0
 18 25  1  6  0  0  0
 19 20  1  0  0  0  0
 19 26  1  1  0  0  0
 20 21  1  0  0  0  0
 20 23  1  6  0  0  0
 21 22  1  1  0  0  0
 21 24  1  0  0  0  0
 22 27  1  0  0  0  0
 28 12  1  1  0  0  0
 28 29  1  0  0  0  0
 28 33  1  0  0  0  0
 29 30  1  0  0  0  0
 29 36  1  1  0  0  0
 30 31  1  0  0  0  0
 30 37  1  6  0  0  0
 31 32  1  0  0  0  0
 31 34  1  6  0  0  0
 32 33  1  0  0  0  0
 33 35  1  1  0  0  0
M  END
>  <CHROM.1>
-66.61454399,92.38187527,-92.48585120,-125.25122611,-174.67749599,169.29594132
20.09253175,-0.69580374,52.25319823,-1.63225431,0.87408070,1.14468056

>  <Name>
2oe5_lig

>  <RI>
0

>  <Rbt.Current_Directory>
/home/itssahil/PROJECTS/Mol_Feturizer/New_Systems/rnas/2oe5

>  <Rbt.Executable>
rbdock ($Id: //depot/dev/client3/rdock/2013.1/src/exe/rbdock.cxx#4 $)

>  <Rbt.Library>
libRbt.so (2013.1, Build901 2013/11/27)

>  <Rbt.Parameter_File>
/export/apps/rDock/src/rDock_2013.1_src/data/scripts/dock_solv.prm

>  <Rbt.Receptor>
prm/pocket_docking_3.prm

>  <SCORE>
-13.0135

>  <SCORE.INTER>
-14.7381

>  <SCORE.INTER.CONST>
1

>  <SCORE.INTER.POLAR>
-0.979796

>  <SCORE.INTER.ROT>
6

>  <SCORE.INTER.SOLV>
13.4727

>  <SCORE.INTER.VDW>
-18.6503

>  <SCORE.INTER.norm>
-0.398327

>  <SCORE.INTRA>
1.72461

>  <SCORE.INTRA.DIHEDRAL>
-3.48732

>  <SCORE.INTRA.DIHEDRAL.0>
16.2083

>  <SCORE.INTRA.POLAR>
0

>  <SCORE.INTRA.POLAR.0>
0

>  <SCORE.INTRA.REPUL>
0

>  <SCORE.INTRA.REPUL.0>
0

>  <SCORE.INTRA.SOLV>
3.55955

>  <SCORE.INTRA.SOLV.lig_0>
-89.8095

>  <SCORE.INTRA.VDW>
1.6885

>  <SCORE.INTRA.VDW.0>
-3.19502

>  <SCORE.INTRA.norm>
0.0466111

>  <SCORE.RESTR>
0

>  <SCORE.RESTR.CAVITY>
0

>  <SCORE.RESTR.norm>
0

>  <SCORE.SYSTEM>
0

>  <SCORE.SYSTEM.CONST>
0

>  <SCORE.SYSTEM.DIHEDRAL>
0

>  <SCORE.SYSTEM.SOLV>
0

>  <SCORE.SYSTEM.norm>
0

>  <SCORE.heavy>
37

>  <SCORE.norm>
-0.351716

>  <RMSD>
9.935

$$$$
2oe5_lig
 OpenBabel11021811463D
libRbt.so/2013.1/901 2013/11/27
 37 40  0  0  0  0  0  0  0  0999 V2000
   21.3244   -0.7549   52.7768 C   0  0  1  0  0  0  0  0  0  0  0  0
   19.8921   -0.3452   52.3671 C   0  0  1  0  0  0  0  0  0  0  0  0
   19.4749    0.9485   53.1606 C   0  0  0  0  0  0  0  0  0  0  0  0
   19.5681    0.5594   54.6531 C   0  0  1  0  0  0  0  0  0  0  0  0
   21.0493    0.1354   55.0563 C   0  0  1  0  0  0  0  0  0  0  0  0
   21.1666   -0.2529   56.5555 C   0  0  1  0  0  0  0  0  0  0  0  0
   20.7253    0.9903   57.3791 C   0  0  1  0  0  0  0  0  0  0  0  0
   19.2759    1.4023   56.9181 C   0  0  2  0  0  0  0  0  0  0  0  0
   22.0523    0.3022   59.5305 C   0  0  0  0  0  0  0  0  0  0  0  0
   19.8412   -0.0693   50.9129 N   0  0  0  0  0  0  0  0  0  0  0  0
   20.7607    0.6812   58.8582 N   0  0  0  0  0  0  0  0  0  0  0  0
   22.2910    0.2504   52.4304 O   0  0  0  0  0  0  0  0  0  0  0  0
   21.4398   -1.0028   54.2218 O   0  0  0  0  0  0  0  0  0  0  0  0
   19.1955    1.6982   55.4746 O   0  0  0  0  0  0  0  0  0  0  0  0
   20.3098   -1.3754   56.7884 O   0  0  0  0  0  0  0  0  0  0  0  0
   18.8647    2.5697   57.6017 O   0  0  0  0  0  0  0  0  0  0  0  0
   17.4949    2.8244   57.3533 C   0  0  2  0  0  0  0  0  0  0  0  0
   17.1187    4.2824   57.6147 C   0  0  1  0  0  0  0  0  0  0  0  0
   17.2993    4.6483   59.1135 C   0  0  2  0  0  0  0  0  0  0  0  0
   16.4243    3.6641   59.9452 C   0  0  1  0  0  0  0  0  0  0  0  0
   16.9118    2.2080   59.6479 C   0  0  1  0  0  0  0  0  0  0  0  0
   16.0939    1.1584   60.3667 C   0  0  0  0  0  0  0  0  0  0  0  0
   16.5908    4.0138   61.4060 N   0  0  0  0  0  0  0  0  0  0  0  0
   16.7050    1.9490   58.2180 O   0  0  0  0  0  0  0  0  0  0  0  0
   17.9609    5.1033   56.7813 O   0  0  0  0  0  0  0  0  0  0  0  0
   16.8254    5.9937   59.3043 O   0  0  0  0  0  0  0  0  0  0  0  0
   16.6195   -0.1139   60.2005 O   0  0  0  0  0  0  0  0  0  0  0  0
   23.6378   -0.0978   52.7523 C   0  0  1  0  0  0  0  0  0  0  0  0
   24.1469   -1.2186   51.7768 C   0  0  1  0  0  0  0  0  0  0  0  0
   25.6330   -1.5747   52.1418 C   0  0  2  0  0  0  0  0  0  0  0  0
   26.5090   -0.3229   51.9831 C   0  0  1  0  0  0  0  0  0  0  0  0
   26.0054    0.7967   52.9736 C   0  0  0  0  0  0  0  0  0  0  0  0
   24.5065    1.1456   52.6188 C   0  0  2  0  0  0  0  0  0  0  0  0
   27.8833   -0.6701   52.3052 N   0  0  0  0  0  0  0  0  0  0  0  0
   23.9859    2.1842   53.5463 N   0  0  0  0  0  0  0  0  0  0  0  0
   23.3185   -2.4076   51.9235 O   0  0  0  0  0  0  0  0  0  0  0  0
   26.0979   -2.5627   51.2608 O   0  0  0  0  0  0  0  0  0  0  0  0
  1  2  1  0  0  0  0
  1 12  1  1  0  0  0
  1 13  1  0  0  0  0
  2  3  1  0  0  0  0
  2 10  1  6  0  0  0
  4  3  1  6  0  0  0
  4  5  1  0  0  0  0
  4 14  1  0  0  0  0
  5  6  1  0  0  0  0
  5 13  1  6  0  0  0
  6  7  1  0  0  0  0
  6 15  1  6  0  0  0
  7  8  1  0  0  0  0
  7 11  1  1  0  0  0
  8 14  1  0  0  0  0
  8 16  1  1  0  0  0
  9 11  1  0  0  0  0
 17 16  1  1  0  0  0
 17 18  1  0  0  0  0
 17 24  1  0  0  0  0
 18 19  1  0  0  0  0
 18 25  1  6  0  0  0
 19 20  1  0  0  0  0
 19 26  1  6  0  0  0
 20 21  1  0  0  0  0
 20 23  1  1  0  0  0
 21 22  1  1  0  0  0
 21 24  1  0  0  0  0
 22 27  1  0  0  0  0
 28 12  1  6  0  0  0
 28 29  1  0  0  0  0
 28 33  1  0  0  0  0
 29 30  1  0  0  0  0
 29 36  1  1  0  0  0
 30 31  1  0  0  0  0
 30 37  1  6  0  0  0
 31 32  1  0  0  0  0
 31 34  1  1  0  0  0
 32 33  1  0  0  0  0
 33 35  1  1  0  0  0
M  END
>  <CHROM.1>
-178.22466351,61.47521106,-170.81703720,-159.05718419,-173.96323942,71.61958747
20.64645622,0.98773409,55.64535402,0.64434560,0.54903401,-1.46271312

>  <Name>
2oe5_lig

>  <RI>
0

>  <Rbt.Current_Directory>
/home/itssahil/PROJECTS/Mol_Feturizer/New_Systems/rnas/2oe5

>  <Rbt.Executable>
rbdock ($Id: //depot/dev/client3/rdock/2013.1/src/exe/rbdock.cxx#4 $)

>  <Rbt.Library>
libRbt.so (2013.1, Build901 2013/11/27)

>  <Rbt.Parameter_File>
/export/apps/rDock/src/rDock_2013.1_src/data/scripts/dock_solv.prm

>  <Rbt.Receptor>
prm/pocket_docking_8.prm

>  <SCORE>
-27.4836

>  <SCORE.INTER>
-20.7712

>  <SCORE.INTER.CONST>
1

>  <SCORE.INTER.POLAR>
-2.41738

>  <SCORE.INTER.ROT>
6

>  <SCORE.INTER.SOLV>
13.4817

>  <SCORE.INTER.VDW>
-17.8834

>  <SCORE.INTER.norm>
-0.561383

>  <SCORE.INTRA>
-6.71238

>  <SCORE.INTRA.DIHEDRAL>
-12.9655

>  <SCORE.INTRA.DIHEDRAL.0>
16.2083

>  <SCORE.INTRA.POLAR>
0

>  <SCORE.INTRA.POLAR.0>
0

>  <SCORE.INTRA.REPUL>
0

>  <SCORE.INTRA.REPUL.0>
0

>  <SCORE.INTRA.SOLV>
-2.98594

>  <SCORE.INTRA.SOLV.lig_0>
-89.8095

>  <SCORE.INTRA.VDW>
1.26335

>  <SCORE.INTRA.VDW.0>
-3.19502

>  <SCORE.INTRA.norm>
-0.181416

>  <SCORE.RESTR>
0

>  <SCORE.RESTR.CAVITY>
0

>  <SCORE.RESTR.norm>
0

>  <SCORE.SYSTEM>
0

>  <SCORE.SYSTEM.CONST>
0

>  <SCORE.SYSTEM.DIHEDRAL>
0

>  <SCORE.SYSTEM.SOLV>
0

>  <SCORE.SYSTEM.norm>
0

>  <SCORE.heavy>
37

>  <SCORE.norm>
-0.742799

>  <RMSD>
9.936

$$$$
2oe5_lig
 OpenBabel11021811463D
libRbt.so/2013.1/901 2013/11/27
 37 40  0  0  0  0  0  0  0  0999 V2000
   22.2684   -2.5753   49.7112 C   0  0  1  0  0  0  0  0  0  0  0  0
   23.4091   -3.1213   50.5989 C   0  0  1  0  0  0  0  0  0  0  0  0
   22.9167   -3.1924   52.0921 C   0  0  0  0  0  0  0  0  0  0  0  0
   22.5286   -1.7436   52.4631 C   0  0  1  0  0  0  0  0  0  0  0  0
   21.3557   -1.1957   51.5355 C   0  0  1  0  0  0  0  0  0  0  0  0
   20.9451    0.2579   51.8969 C   0  0  1  0  0  0  0  0  0  0  0  0
   20.4855    0.2404   53.3826 C   0  0  1  0  0  0  0  0  0  0  0  0
   21.6562   -0.3488   54.2575 C   0  0  2  0  0  0  0  0  0  0  0  0
   18.7452    2.1911   53.5524 C   0  0  0  0  0  0  0  0  0  0  0  0
   23.8004   -4.4753   50.1438 N   0  0  0  0  0  0  0  0  0  0  0  0
   20.1141    1.6340   53.8348 N   0  0  0  0  0  0  0  0  0  0  0  0
   21.1250   -3.4457   49.7094 O   0  0  0  0  0  0  0  0  0  0  0  0
   21.8139   -1.2458   50.1456 O   0  0  0  0  0  0  0  0  0  0  0  0
   22.0596   -1.7048   53.8376 O   0  0  0  0  0  0  0  0  0  0  0  0
   22.0866    1.0993   51.7042 O   0  0  0  0  0  0  0  0  0  0  0  0
   21.2513   -0.4392   55.6092 O   0  0  0  0  0  0  0  0  0  0  0  0
   22.2378    0.1238   56.4534 C   0  0  2  0  0  0  0  0  0  0  0  0
   22.1318   -0.3857   57.8903 C   0  0  1  0  0  0  0  0  0  0  0  0
   20.7911    0.0504   58.5427 C   0  0  2  0  0  0  0  0  0  0  0  0
   20.7178    1.6044   58.4700 C   0  0  1  0  0  0  0  0  0  0  0  0
   20.7870    2.0259   56.9653 C   0  0  1  0  0  0  0  0  0  0  0  0
   20.7760    3.5264   56.7764 C   0  0  0  0  0  0  0  0  0  0  0  0
   19.4173    2.0394   59.1052 N   0  0  0  0  0  0  0  0  0  0  0  0
   22.0790    1.5771   56.4328 O   0  0  0  0  0  0  0  0  0  0  0  0
   22.2389   -1.8225   57.8497 O   0  0  0  0  0  0  0  0  0  0  0  0
   20.8085   -0.3676   59.9197 O   0  0  0  0  0  0  0  0  0  0  0  0
   20.5798    3.8819   55.4505 O   0  0  0  0  0  0  0  0  0  0  0  0
   20.2352   -3.2399   48.6119 C   0  0  1  0  0  0  0  0  0  0  0  0
   20.8513   -3.8524   47.3034 C   0  0  1  0  0  0  0  0  0  0  0  0
   19.8496   -3.6256   46.1145 C   0  0  2  0  0  0  0  0  0  0  0  0
   18.5199   -4.3271   46.4297 C   0  0  1  0  0  0  0  0  0  0  0  0
   17.8954   -3.7012   47.7360 C   0  0  0  0  0  0  0  0  0  0  0  0
   18.9074   -3.9141   48.9297 C   0  0  2  0  0  0  0  0  0  0  0  0
   17.6092   -4.1258   45.3148 N   0  0  0  0  0  0  0  0  0  0  0  0
   18.3643   -3.3171   50.1782 N   0  0  0  0  0  0  0  0  0  0  0  0
   22.1130   -3.1905   47.0009 O   0  0  0  0  0  0  0  0  0  0  0  0
   20.3879   -4.1876   44.9471 O   0  0  0  0  0  0  0  0  0  0  0  0
  1  2  1  0  0  0  0
  1 12  1  1  0  0  0
  1 13  1  0  0  0  0
  2  3  1  0  0  0  0
  2 10  1  6  0  0  0
  4  3  1  6  0  0  0
  4  5  1  0  0  0  0
  4 14  1  0  0  0  0
  5  6  1  0  0  0  0
  5 13  1  6  0  0  0
  6  7  1  0  0  0  0
  6 15  1  1  0  0  0
  7  8  1  0  0  0  0
  7 11  1  1  0  0  0
  8 14  1  0  0  0  0
  8 16  1  1  0  0  0
  9 11  1  0  0  0  0
 17 16  1  6  0  0  0
 17 18  1  0  0  0  0
 17 24  1  0  0  0  0
 18 19  1  0  0  0  0
 18 25  1  6  0  0  0
 19 20  1  0  0  0  0
 19 26  1  1  0  0  0
 20 21  1  0  0  0  0
 20 23  1  6  0  0  0
 21 22  1  1  0  0  0
 21 24  1  0  0  0  0
 22 27  1  0  0  0  0
 28 12  1  1  0  0  0
 28 29  1  0  0  0  0
 28 33  1  0  0  0  0
 29 30  1  0  0  0  0
 29 36  1  6  0  0  0
 30 31  1  0  0  0  0
 30 37  1  6  0  0  0
 31 32  1  0  0  0  0
 31 34  1  6  0  0  0
 32 33  1  0  0  0  0
 33 35  1  1  0  0  0
M  END
>  <CHROM.1>
-160.88880532,83.47184020,-131.31968482,-158.70650713,-168.46776463,75.55637838
20.93144675,-1.14420044,52.48417190,-1.67832042,-0.77185400,1.04405864

>  <Name>
2oe5_lig

>  <RI>
0

>  <Rbt.Current_Directory>
/home/itssahil/PROJECTS/Mol_Feturizer/New_Systems/rnas/2oe5

>  <Rbt.Executable>
rbdock ($Id: //depot/dev/client3/rdock/2013.1/src/exe/rbdock.cxx#4 $)

>  <Rbt.Library>
libRbt.so (2013.1, Build901 2013/11/27)

>  <Rbt.Parameter_File>
/export/apps/rDock/src/rDock_2013.1_src/data/scripts/dock_solv.prm

>  <Rbt.Receptor>
prm/pocket_docking_2.prm

>  <SCORE>
-9.94887

>  <SCORE.INTER>
-8.42428

>  <SCORE.INTER.CONST>
1

>  <SCORE.INTER.POLAR>
-0.979796

>  <SCORE.INTER.ROT>
6

>  <SCORE.INTER.SOLV>
9.36575

>  <SCORE.INTER.VDW>
-13.0721

>  <SCORE.INTER.norm>
-0.227683

>  <SCORE.INTRA>
-2.62936

>  <SCORE.INTRA.DIHEDRAL>
-3.94564

>  <SCORE.INTRA.DIHEDRAL.0>
16.2083

>  <SCORE.INTRA.POLAR>
0

>  <SCORE.INTRA.POLAR.0>
0

>  <SCORE.INTRA.REPUL>
0

>  <SCORE.INTRA.REPUL.0>
0

>  <SCORE.INTRA.SOLV>
-0.360165

>  <SCORE.INTRA.SOLV.lig_0>
-89.8095

>  <SCORE.INTRA.VDW>
-0.47646

>  <SCORE.INTRA.VDW.0>
-3.19502

>  <SCORE.INTRA.norm>
-0.0710639

>  <SCORE.RESTR>
1.10478

>  <SCORE.RESTR.CAVITY>
1.10478

>  <SCORE.RESTR.norm>
0.0298589

>  <SCORE.SYSTEM>
0

>  <SCORE.SYSTEM.CONST>
0

>  <SCORE.SYSTEM.DIHEDRAL>
0

>  <SCORE.SYSTEM.SOLV>
0

>  <SCORE.SYSTEM.norm>
0

>  <SCORE.heavy>
37

>  <SCORE.norm>
-0.268888

>  <RMSD>
9.941

$$$$
2oe5_lig
 OpenBabel11021811463D
libRbt.so/2013.1/901 2013/11/27
 37 40  0  0  0  0  0  0  0  0999 V2000
   20.1037   -2.4460   49.2207 C   0  0  1  0  0  0  0  0  0  0  0  0
   21.3697   -3.1895   49.7019 C   0  0  1  0  0  0  0  0  0  0  0  0
   21.4253   -3.1565   51.2744 C   0  0  0  0  0  0  0  0  0  0  0  0
   21.4481   -1.6580   51.6505 C   0  0  1  0  0  0  0  0  0  0  0  0
   20.1387   -0.9069   51.1427 C   0  0  1  0  0  0  0  0  0  0  0  0
   20.1381    0.6004   51.5171 C   0  0  1  0  0  0  0  0  0  0  0  0
   20.2306    0.6799   53.0675 C   0  0  1  0  0  0  0  0  0  0  0  0
   21.5124   -0.1117   53.5297 C   0  0  2  0  0  0  0  0  0  0  0  0
   19.0659    2.9966   53.4405 C   0  0  0  0  0  0  0  0  0  0  0  0
   21.3371   -4.5960   49.2392 N   0  0  0  0  0  0  0  0  0  0  0  0
   20.2874    2.1216   53.5180 N   0  0  0  0  0  0  0  0  0  0  0  0
   18.8995   -3.0870   49.6724 O   0  0  0  0  0  0  0  0  0  0  0  0
   20.0667   -1.0518   49.6874 O   0  0  0  0  0  0  0  0  0  0  0  0
   21.5027   -1.5223   53.0959 O   0  0  0  0  0  0  0  0  0  0  0  0
   21.2677    1.2118   50.8859 O   0  0  0  0  0  0  0  0  0  0  0  0
   21.5957   -0.1151   54.9411 O   0  0  0  0  0  0  0  0  0  0  0  0
   21.9365    1.1748   55.4134 C   0  0  2  0  0  0  0  0  0  0  0  0
   23.0232    1.1317   56.4870 C   0  0  1  0  0  0  0  0  0  0  0  0
   22.5270    0.3893   57.7581 C   0  0  2  0  0  0  0  0  0  0  0  0
   21.2452    1.1197   58.2574 C   0  0  1  0  0  0  0  0  0  0  0  0
   20.1800    1.0721   57.1132 C   0  0  1  0  0  0  0  0  0  0  0  0
   18.9040    1.8013   57.4702 C   0  0  0  0  0  0  0  0  0  0  0  0
   20.7556    0.4063   59.4965 N   0  0  0  0  0  0  0  0  0  0  0  0
   20.7292    1.7935   55.9588 O   0  0  0  0  0  0  0  0  0  0  0  0
   24.1681    0.4657   55.9182 O   0  0  0  0  0  0  0  0  0  0  0  0
   23.5562    0.4828   58.7596 O   0  0  0  0  0  0  0  0  0  0  0  0
   19.1300    3.1424   57.7406 O   0  0  0  0  0  0  0  0  0  0  0  0
   18.5062   -4.2125   48.8867 C   0  0  1  0  0  0  0  0  0  0  0  0
   17.6258   -5.1848   49.7507 C   0  0  1  0  0  0  0  0  0  0  0  0
   17.1950   -6.4067   48.8620 C   0  0  2  0  0  0  0  0  0  0  0  0
   16.3739   -5.9008   47.6663 C   0  0  1  0  0  0  0  0  0  0  0  0
   17.2639   -4.9357   46.7918 C   0  0  0  0  0  0  0  0  0  0  0  0
   17.7113   -3.7141   47.6873 C   0  0  2  0  0  0  0  0  0  0  0  0
   15.9658   -7.0415   46.8631 N   0  0  0  0  0  0  0  0  0  0  0  0
   18.5727   -2.7895   46.9043 N   0  0  0  0  0  0  0  0  0  0  0  0
   18.4003   -5.6667   50.8862 O   0  0  0  0  0  0  0  0  0  0  0  0
   16.3929   -7.2688   49.6247 O   0  0  0  0  0  0  0  0  0  0  0  0
  1  2  1  0  0  0  0
  1 12  1  1  0  0  0
  1 13  1  0  0  0  0
  2  3  1  0  0  0  0
  2 10  1  1  0  0  0
  4  3  1  1  0  0  0
  4  5  1  0  0  0  0
  4 14  1  0  0  0  0
  5  6  1  0  0  0  0
  5 13  1  6  0  0  0
  6  7  1  0  0  0  0
  6 15  1  6  0  0  0
  7  8  1  0  0  0  0
  7 11  1  6  0  0  0
  8 14  1  0  0  0  0
  8 16  1  1  0  0  0
  9 11  1  0  0  0  0
 17 16  1  1  0  0  0
 17 18  1  0  0  0  0
 17 24  1  0  0  0  0
 18 19  1  0  0  0  0
 18 25  1  6  0  0  0
 19 20  1  0  0  0  0
 19 26  1  1  0  0  0
 20 21  1  0  0  0  0
 20 23  1  1  0  0  0
 21 22  1  1  0  0  0
 21 24  1  0  0  0  0
 22 27  1  0  0  0  0
 28 12  1  1  0  0  0
 28 29  1  0  0  0  0
 28 33  1  0  0  0  0
 29 30  1  0  0  0  0
 29 36  1  1  0  0  0
 30 31  1  0  0  0  0
 30 37  1  1  0  0  0
 31 32  1  0  0  0  0
 31 34  1  6  0  0  0
 32 33  1  0  0  0  0
 33 35  1  6  0  0  0
M  END
>  <CHROM.1>
-80.78988066,72.17692057,-71.34261730,-134.83772692,59.93601188,155.31336853
20.03213081,-1.43867904,52.47759399,-2.35132665,1.10641549,1.65196705

>  <Name>
2oe5_lig

>  <RI>
0

>  <Rbt.Current_Directory>
/home/itssahil/PROJECTS/Mol_Feturizer/New_Systems/rnas/2oe5

>  <Rbt.Executable>
rbdock ($Id: //depot/dev/client3/rdock/2013.1/src/exe/rbdock.cxx#4 $)

>  <Rbt.Library>
libRbt.so (2013.1, Build901 2013/11/27)

>  <Rbt.Parameter_File>
/export/apps/rDock/src/rDock_2013.1_src/data/scripts/dock_solv.prm

>  <Rbt.Receptor>
prm/pocket_docking_5.prm

>  <SCORE>
-14.1136

>  <SCORE.INTER>
-14.6728

>  <SCORE.INTER.CONST>
1

>  <SCORE.INTER.POLAR>
-1.01865

>  <SCORE.INTER.ROT>
6

>  <SCORE.INTER.SOLV>
11.2889

>  <SCORE.INTER.VDW>
-17.7494

>  <SCORE.INTER.norm>
-0.396563

>  <SCORE.INTRA>
0.559236

>  <SCORE.INTRA.DIHEDRAL>
-4.70616

>  <SCORE.INTRA.DIHEDRAL.0>
16.2083

>  <SCORE.INTRA.POLAR>
0

>  <SCORE.INTRA.POLAR.0>
0

>  <SCORE.INTRA.REPUL>
0

>  <SCORE.INTRA.REPUL.0>
0

>  <SCORE.INTRA.SOLV>
2.59272

>  <SCORE.INTRA.SOLV.lig_0>
-89.8095

>  <SCORE.INTRA.VDW>
1.61596

>  <SCORE.INTRA.VDW.0>
-3.19502

>  <SCORE.INTRA.norm>
0.0151145

>  <SCORE.RESTR>
0

>  <SCORE.RESTR.CAVITY>
0

>  <SCORE.RESTR.norm>
0

>  <SCORE.SYSTEM>
0

>  <SCORE.SYSTEM.CONST>
0

>  <SCORE.SYSTEM.DIHEDRAL>
0

>  <SCORE.SYSTEM.SOLV>
0

>  <SCORE.SYSTEM.norm>
0

>  <SCORE.heavy>
37

>  <SCORE.norm>
-0.381449

>  <RMSD>
9.942

$$$$
2oe5_lig
 OpenBabel11021811463D
libRbt.so/2013.1/901 2013/11/27
 37 40  0  0  0  0  0  0  0  0999 V2000
   21.4733   -3.7713   47.6955 C   0  0  1  0  0  0  0  0  0  0  0  0
   20.4599   -4.3849   48.6873 C   0  0  1  0  0  0  0  0  0  0  0  0
   19.8742   -3.2463   49.6026 C   0  0  0  0  0  0  0  0  0  0  0  0
   21.0963   -2.6307   50.3202 C   0  0  1  0  0  0  0  0  0  0  0  0
   22.1319   -2.0077   49.2831 C   0  0  1  0  0  0  0  0  0  0  0  0
   23.3654   -1.3766   49.9848 C   0  0  1  0  0  0  0  0  0  0  0  0
   22.8266   -0.2667   50.9316 C   0  0  1  0  0  0  0  0  0  0  0  0
   21.7747   -0.9157   51.9092 C   0  0  2  0  0  0  0  0  0  0  0  0
   23.9873    1.8539   51.9408 C   0  0  0  0  0  0  0  0  0  0  0  0
   19.3567   -5.0370   47.9449 N   0  0  0  0  0  0  0  0  0  0  0  0
   23.9639    0.3693   51.6975 N   0  0  0  0  0  0  0  0  0  0  0  0
   20.8518   -2.8293   46.8059 O   0  0  0  0  0  0  0  0  0  0  0  0
   22.5717   -3.0754   48.3825 O   0  0  0  0  0  0  0  0  0  0  0  0
   20.6539   -1.5617   51.1990 O   0  0  0  0  0  0  0  0  0  0  0  0
   24.0380   -2.4117   50.7090 O   0  0  0  0  0  0  0  0  0  0  0  0
   21.2151    0.0776   52.7455 O   0  0  0  0  0  0  0  0  0  0  0  0
   20.3321   -0.5124   53.6811 C   0  0  2  0  0  0  0  0  0  0  0  0
   19.3301    0.4929   54.2476 C   0  0  1  0  0  0  0  0  0  0  0  0
   20.0488    1.6027   55.0630 C   0  0  2  0  0  0  0  0  0  0  0  0
   20.8684    0.9025   56.1871 C   0  0  1  0  0  0  0  0  0  0  0  0
   21.8930   -0.0671   55.5116 C   0  0  1  0  0  0  0  0  0  0  0  0
   22.7135   -0.8448   56.5163 C   0  0  0  0  0  0  0  0  0  0  0  0
   21.5698    1.9747   56.9887 N   0  0  0  0  0  0  0  0  0  0  0  0
   21.1311   -1.0773   54.7675 O   0  0  0  0  0  0  0  0  0  0  0  0
   18.6087    1.0592   53.1356 O   0  0  0  0  0  0  0  0  0  0  0  0
   19.0423    2.4449   55.6535 O   0  0  0  0  0  0  0  0  0  0  0  0
   21.9190   -1.6194   57.3479 O   0  0  0  0  0  0  0  0  0  0  0  0
   19.9911   -3.4234   45.8337 C   0  0  1  0  0  0  0  0  0  0  0  0
   18.6447   -2.6189   45.7505 C   0  0  1  0  0  0  0  0  0  0  0  0
   17.7213   -3.2826   44.6664 C   0  0  2  0  0  0  0  0  0  0  0  0
   18.4270   -3.2397   43.3027 C   0  0  1  0  0  0  0  0  0  0  0  0
   19.7719   -4.0600   43.3839 C   0  0  0  0  0  0  0  0  0  0  0  0
   20.6960   -3.4041   44.4841 C   0  0  2  0  0  0  0  0  0  0  0  0
   17.5552   -3.8392   42.3059 N   0  0  0  0  0  0  0  0  0  0  0  0
   21.9682   -4.1631   44.6076 N   0  0  0  0  0  0  0  0  0  0  0  0
   17.9722   -2.6564   47.0419 O   0  0  0  0  0  0  0  0  0  0  0  0
   16.5246   -2.5560   44.5756 O   0  0  0  0  0  0  0  0  0  0  0  0
  1  2  1  0  0  0  0
  1 12  1  6  0  0  0
  1 13  1  0  0  0  0
  2  3  1  0  0  0  0
  2 10  1  6  0  0  0
  4  3  1  6  0  0  0
  4  5  1  0  0  0  0
  4 14  1  0  0  0  0
  5  6  1  0  0  0  0
  5 13  1  6  0  0  0
  6  7  1  0  0  0  0
  6 15  1  1  0  0  0
  7  8  1  0  0  0  0
  7 11  1  1  0  0  0
  8 14  1  0  0  0  0
  8 16  1  1  0  0  0
  9 11  1  0  0  0  0
 17 16  1  6  0  0  0
 17 18  1  0  0  0  0
 17 24  1  0  0  0  0
 18 19  1  0  0  0  0
 18 25  1  6  0  0  0
 19 20  1  0  0  0  0
 19 26  1  1  0  0  0
 20 21  1  0  0  0  0
 20 23  1  6  0  0  0
 21 22  1  1  0  0  0
 21 24  1  0  0  0  0
 22 27  1  0  0  0  0
 28 12  1  1  0  0  0
 28 29  1  0  0  0  0
 28 33  1  0  0  0  0
 29 30  1  0  0  0  0
 29 36  1  1  0  0  0
 30 31  1  0  0  0  0
 30 37  1  6  0  0  0
 31 32  1  0  0  0  0
 31 34  1  6  0  0  0
 32 33  1  0  0  0  0
 33 35  1  1  0  0  0
M  END
>  <CHROM.1>
-70.90973120,140.21241376,-176.35231183,-158.85728070,59.54410725,134.38368981
20.70848169,-1.60133342,50.18604541,-1.76304381,-0.22127301,1.15718147

>  <Name>
2oe5_lig

>  <RI>
0

>  <Rbt.Current_Directory>
/home/itssahil/PROJECTS/Mol_Feturizer/New_Systems/rnas/2oe5

>  <Rbt.Executable>
rbdock ($Id: //depot/dev/client3/rdock/2013.1/src/exe/rbdock.cxx#4 $)

>  <Rbt.Library>
libRbt.so (2013.1, Build901 2013/11/27)

>  <Rbt.Parameter_File>
/export/apps/rDock/src/rDock_2013.1_src/data/scripts/dock_solv.prm

>  <Rbt.Receptor>
prm/pocket_docking_6.prm

>  <SCORE>
-18.5922

>  <SCORE.INTER>
-16.3885

>  <SCORE.INTER.CONST>
1

>  <SCORE.INTER.POLAR>
-1.03923

>  <SCORE.INTER.ROT>
6

>  <SCORE.INTER.SOLV>
13.9897

>  <SCORE.INTER.VDW>
-19.7248

>  <SCORE.INTER.norm>
-0.442933

>  <SCORE.INTRA>
-2.20371

>  <SCORE.INTRA.DIHEDRAL>
-6.37487

>  <SCORE.INTRA.DIHEDRAL.0>
16.2083

>  <SCORE.INTRA.POLAR>
0

>  <SCORE.INTRA.POLAR.0>
0

>  <SCORE.INTRA.REPUL>
0

>  <SCORE.INTRA.REPUL.0>
0

>  <SCORE.INTRA.SOLV>
1.18719

>  <SCORE.INTRA.SOLV.lig_0>
-89.8095

>  <SCORE.INTRA.VDW>
0.390129

>  <SCORE.INTRA.VDW.0>
-3.19502

>  <SCORE.INTRA.norm>
-0.0595597

>  <SCORE.RESTR>
0

>  <SCORE.RESTR.CAVITY>
0

>  <SCORE.RESTR.norm>
0

>  <SCORE.SYSTEM>
0

>  <SCORE.SYSTEM.CONST>
0

>  <SCORE.SYSTEM.DIHEDRAL>
0

>  <SCORE.SYSTEM.SOLV>
0

>  <SCORE.SYSTEM.norm>
0

>  <SCORE.heavy>
37

>  <SCORE.norm>
-0.502493

>  <RMSD>
9.948

$$$$
2oe5_lig
 OpenBabel11021811463D
libRbt.so/2013.1/901 2013/11/27
 37 40  0  0  0  0  0  0  0  0999 V2000
   22.4632   -2.1704   50.4034 C   0  0  1  0  0  0  0  0  0  0  0  0
   23.3895   -2.8160   51.4582 C   0  0  1  0  0  0  0  0  0  0  0  0
   22.6261   -2.9113   52.8312 C   0  0  0  0  0  0  0  0  0  0  0  0
   22.2528   -1.4561   53.1923 C   0  0  1  0  0  0  0  0  0  0  0  0
   21.3024   -0.8052   52.0926 C   0  0  1  0  0  0  0  0  0  0  0  0
   20.9090    0.6564   52.4403 C   0  0  1  0  0  0  0  0  0  0  0  0
   20.1821    0.6130   53.8145 C   0  0  1  0  0  0  0  0  0  0  0  0
   21.1379   -0.0771   54.8601 C   0  0  2  0  0  0  0  0  0  0  0  0
   19.1087    2.9490   53.3110 C   0  0  0  0  0  0  0  0  0  0  0  0
   23.7865   -4.1738   51.0196 N   0  0  0  0  0  0  0  0  0  0  0  0
   19.8072    2.0092   54.2557 N   0  0  0  0  0  0  0  0  0  0  0  0
   21.2957   -2.9696   50.1521 O   0  0  0  0  0  0  0  0  0  0  0  0
   22.0067   -0.8325   50.8090 O   0  0  0  0  0  0  0  0  0  0  0  0
   21.5401   -1.4389   54.4582 O   0  0  0  0  0  0  0  0  0  0  0  0
   22.1092    1.4339   52.4990 O   0  0  0  0  0  0  0  0  0  0  0  0
   20.4855   -0.1917   56.1093 O   0  0  0  0  0  0  0  0  0  0  0  0
   21.0265    0.7370   57.0301 C   0  0  2  0  0  0  0  0  0  0  0  0
   21.3223    0.1026   58.3885 C   0  0  1  0  0  0  0  0  0  0  0  0
   20.0176   -0.3857   59.0758 C   0  0  2  0  0  0  0  0  0  0  0  0
   19.0666    0.8413   59.2020 C   0  0  1  0  0  0  0  0  0  0  0  0
   18.7864    1.3907   57.7647 C   0  0  1  0  0  0  0  0  0  0  0  0
   17.9095    2.6230   57.7694 C   0  0  0  0  0  0  0  0  0  0  0  0
   17.7942    0.3771   59.8726 N   0  0  0  0  0  0  0  0  0  0  0  0
   20.0663    1.8273   57.1940 O   0  0  0  0  0  0  0  0  0  0  0  0
   22.2269   -0.9973   58.1654 O   0  0  0  0  0  0  0  0  0  0  0  0
   20.3585   -0.8684   60.3880 O   0  0  0  0  0  0  0  0  0  0  0  0
   17.7341    3.1410   56.4952 O   0  0  0  0  0  0  0  0  0  0  0  0
   20.6284   -2.6612   48.9280 C   0  0  1  0  0  0  0  0  0  0  0  0
   21.5589   -3.0076   47.7110 C   0  0  1  0  0  0  0  0  0  0  0  0
   20.7989   -2.6725   46.3774 C   0  0  2  0  0  0  0  0  0  0  0  0
   19.5177   -3.5163   46.2972 C   0  0  1  0  0  0  0  0  0  0  0  0
   18.5780   -3.1569   47.5122 C   0  0  0  0  0  0  0  0  0  0  0  0
   19.3456   -3.4783   48.8545 C   0  0  2  0  0  0  0  0  0  0  0  0
   18.8341   -3.2111   45.0512 N   0  0  0  0  0  0  0  0  0  0  0  0
   18.5001   -3.1318   50.0271 N   0  0  0  0  0  0  0  0  0  0  0  0
   22.7756   -2.2101   47.7833 O   0  0  0  0  0  0  0  0  0  0  0  0
   21.6196   -2.9979   45.2871 O   0  0  0  0  0  0  0  0  0  0  0  0
  1  2  1  0  0  0  0
  1 12  1  1  0  0  0
  1 13  1  0  0  0  0
  2  3  1  0  0  0  0
  2 10  1  6  0  0  0
  4  3  1  6  0  0  0
  4  5  1  0  0  0  0
  4 14  1  0  0  0  0
  5  6  1  0  0  0  0
  5 13  1  6  0  0  0
  6  7  1  0  0  0  0
  6 15  1  1  0  0  0
  7  8  1  0  0  0  0
  7 11  1  1  0  0  0
  8 14  1  0  0  0  0
  8 16  1  1  0  0  0
  9 11  1  0  0  0  0
 17 16  1  6  0  0  0
 17 18  1  0  0  0  0
 17 24  1  0  0  0  0
 18 19  1  0  0  0  0
 18 25  1  6  0  0  0
 19 20  1  0  0  0  0
 19 26  1  1  0  0  0
 20 21  1  0  0  0  0
 20 23  1  6  0  0  0
 21 22  1  1  0  0  0
 21 24  1  0  0  0  0
 22 27  1  0  0  0  0
 28 12  1  1  0  0  0
 28 29  1  0  0  0  0
 28 33  1  0  0  0  0
 29 30  1  0  0  0  0
 29 36  1  1  0  0  0
 30 31  1  0  0  0  0
 30 37  1  6  0  0  0
 31 32  1  0  0  0  0
 31 34  1  6  0  0  0
 32 33  1  0  0  0  0
 33 35  1  1  0  0  0
M  END
>  <CHROM.1>
-161.52501360,48.72184255,-107.02429426,-133.58465765,176.55093335,65.03018969
20.62957343,-0.87528217,52.97395004,-1.43727991,-0.68319227,1.30482704

>  <Name>
2oe5_lig

>  <RI>
0

>  <Rbt.Current_Directory>
/home/itssahil/PROJECTS/Mol_Feturizer/New_Systems/rnas/2oe5

>  <Rbt.Executable>
rbdock ($Id: //depot/dev/client3/rdock/2013.1/src/exe/rbdock.cxx#4 $)

>  <Rbt.Library>
libRbt.so (2013.1, Build901 2013/11/27)

>  <Rbt.Parameter_File>
/export/apps/rDock/src/rDock_2013.1_src/data/scripts/dock_solv.prm

>  <Rbt.Receptor>
prm/pocket_docking_4.prm

>  <SCORE>
-17.0295

>  <SCORE.INTER>
-16.7987

>  <SCORE.INTER.CONST>
1

>  <SCORE.INTER.POLAR>
-1.79639

>  <SCORE.INTER.ROT>
6

>  <SCORE.INTER.SOLV>
17.1675

>  <SCORE.INTER.VDW>
-18.5337

>  <SCORE.INTER.norm>
-0.45402

>  <SCORE.INTRA>
-0.230802

>  <SCORE.INTRA.DIHEDRAL>
-1.63281

>  <SCORE.INTRA.DIHEDRAL.0>
16.2083

>  <SCORE.INTRA.POLAR>
0

>  <SCORE.INTRA.POLAR.0>
0

>  <SCORE.INTRA.REPUL>
0

>  <SCORE.INTRA.REPUL.0>
0

>  <SCORE.INTRA.SOLV>
-0.991847

>  <SCORE.INTRA.SOLV.lig_0>
-89.8095

>  <SCORE.INTRA.VDW>
1.08153

>  <SCORE.INTRA.VDW.0>
-3.19502

>  <SCORE.INTRA.norm>
-0.0062379

>  <SCORE.RESTR>
0

>  <SCORE.RESTR.CAVITY>
0

>  <SCORE.RESTR.norm>
0

>  <SCORE.SYSTEM>
0

>  <SCORE.SYSTEM.CONST>
0

>  <SCORE.SYSTEM.DIHEDRAL>
0

>  <SCORE.SYSTEM.SOLV>
0

>  <SCORE.SYSTEM.norm>
0

>  <SCORE.heavy>
37

>  <SCORE.norm>
-0.460258

>  <RMSD>
9.952

$$$$
2oe5_lig
 OpenBabel11021811463D
libRbt.so/2013.1/901 2013/11/27
 37 40  0  0  0  0  0  0  0  0999 V2000
   20.6697   -1.2698   49.8170 C   0  0  1  0  0  0  0  0  0  0  0  0
   22.1228   -0.7454   49.8460 C   0  0  1  0  0  0  0  0  0  0  0  0
   22.6508   -0.7602   51.3286 C   0  0  0  0  0  0  0  0  0  0  0  0
   21.6834    0.1522   52.1154 C   0  0  1  0  0  0  0  0  0  0  0  0
   20.1905   -0.4005   52.0706 C   0  0  1  0  0  0  0  0  0  0  0  0
   19.2023    0.4989   52.8622 C   0  0  1  0  0  0  0  0  0  0  0  0
   19.7104    0.5427   54.3314 C   0  0  1  0  0  0  0  0  0  0  0  0
   21.2019    1.0512   54.3259 C   0  0  2  0  0  0  0  0  0  0  0  0
   18.7725    2.9228   54.8958 C   0  0  0  0  0  0  0  0  0  0  0  0
   22.9879   -1.6052   49.0060 N   0  0  0  0  0  0  0  0  0  0  0  0
   18.8295    1.4438   55.1662 N   0  0  0  0  0  0  0  0  0  0  0  0
   20.5824   -2.6359   50.2541 O   0  0  0  0  0  0  0  0  0  0  0  0
   19.7740   -0.4728   50.6686 O   0  0  0  0  0  0  0  0  0  0  0  0
   22.0931    0.2056   53.5082 O   0  0  0  0  0  0  0  0  0  0  0  0
   19.2081    1.7970   52.2596 O   0  0  0  0  0  0  0  0  0  0  0  0
   21.7199    1.0443   55.6415 O   0  0  0  0  0  0  0  0  0  0  0  0
   22.9351    1.7679   55.6919 C   0  0  2  0  0  0  0  0  0  0  0  0
   23.6107    1.6737   57.0595 C   0  0  1  0  0  0  0  0  0  0  0  0
   22.7386    2.3338   58.1626 C   0  0  2  0  0  0  0  0  0  0  0  0
   22.4863    3.8113   57.7394 C   0  0  1  0  0  0  0  0  0  0  0  0
   21.7539    3.8043   56.3574 C   0  0  1  0  0  0  0  0  0  0  0  0
   21.5025    5.1958   55.8207 C   0  0  0  0  0  0  0  0  0  0  0  0
   21.6404    4.4639   58.8084 N   0  0  0  0  0  0  0  0  0  0  0  0
   22.6451    3.1668   55.3808 O   0  0  0  0  0  0  0  0  0  0  0  0
   23.8240    0.2765   57.3421 O   0  0  0  0  0  0  0  0  0  0  0  0
   23.4815    2.3055   59.3948 O   0  0  0  0  0  0  0  0  0  0  0  0
   20.6719    5.9314   56.6524 O   0  0  0  0  0  0  0  0  0  0  0  0
   19.4064   -3.3163   49.8150 C   0  0  1  0  0  0  0  0  0  0  0  0
   19.5882   -3.7912   48.3289 C   0  0  1  0  0  0  0  0  0  0  0  0
   18.2886   -4.5475   47.8735 C   0  0  2  0  0  0  0  0  0  0  0  0
   18.0694   -5.7702   48.7772 C   0  0  1  0  0  0  0  0  0  0  0  0
   17.8727   -5.2906   50.2671 C   0  0  0  0  0  0  0  0  0  0  0  0
   19.1718   -4.5164   50.7223 C   0  0  2  0  0  0  0  0  0  0  0  0
   16.8756   -6.4712   48.3340 N   0  0  0  0  0  0  0  0  0  0  0  0
   19.0177   -4.0274   52.1177 N   0  0  0  0  0  0  0  0  0  0  0  0
   19.7971   -2.6348   47.4682 O   0  0  0  0  0  0  0  0  0  0  0  0
   18.4540   -4.9897   46.5523 O   0  0  0  0  0  0  0  0  0  0  0  0
  1  2  1  0  0  0  0
  1 12  1  1  0  0  0
  1 13  1  0  0  0  0
  2  3  1  0  0  0  0
  2 10  1  6  0  0  0
  4  3  1  6  0  0  0
  4  5  1  0  0  0  0
  4 14  1  0  0  0  0
  5  6  1  0  0  0  0
  5 13  1  6  0  0  0
  6  7  1  0  0  0  0
  6 15  1  6  0  0  0
  7  8  1  0  0  0  0
  7 11  1  1  0  0  0
  8 14  1  0  0  0  0
  8 16  1  1  0  0  0
  9 11  1  0  0  0  0
 17 16  1  1  0  0  0
 17 18  1  0  0  0  0
 17 24  1  0  0  0  0
 18 19  1  0  0  0  0
 18 25  1  1  0  0  0
 19 20  1  0  0  0  0
 19 26  1  1  0  0  0
 20 21  1  0  0  0  0
 20 23  1  1  0  0  0
 21 22  1  6  0  0  0
 21 24  1  0  0  0  0
 22 27  1  0  0  0  0
 28 12  1  1  0  0  0
 28 29  1  0  0  0  0
 28 33  1  0  0  0  0
 29 30  1  0  0  0  0
 29 36  1  6  0  0  0
 30 31  1  0  0  0  0
 30 37  1  6  0  0  0
 31 32  1  0  0  0  0
 31 34  1  6  0  0  0
 32 33  1  0  0  0  0
 33 35  1  1  0  0  0
M  END
>  <CHROM.1>
-158.81657355,-65.74502127,-167.05779411,-174.22106603,-62.32876621,80.16717080
20.69389397,-0.19920450,52.90819383,1.90155845,0.60390529,-2.48906808

>  <Name>
2oe5_lig

>  <RI>
0

>  <Rbt.Current_Directory>
/home/itssahil/PROJECTS/Mol_Feturizer/New_Systems/rnas/2oe5

>  <Rbt.Executable>
rbdock ($Id: //depot/dev/client3/rdock/2013.1/src/exe/rbdock.cxx#4 $)

>  <Rbt.Library>
libRbt.so (2013.1, Build901 2013/11/27)

>  <Rbt.Parameter_File>
/export/apps/rDock/src/rDock_2013.1_src/data/scripts/dock_solv.prm

>  <Rbt.Receptor>
prm/pocket_docking_8.prm

>  <SCORE>
-20.5915

>  <SCORE.INTER>
-16.0842

>  <SCORE.INTER.CONST>
1

>  <SCORE.INTER.POLAR>
-2.0781

>  <SCORE.INTER.ROT>
6

>  <SCORE.INTER.SOLV>
14.2866

>  <SCORE.INTER.VDW>
-16.158

>  <SCORE.INTER.norm>
-0.434708

>  <SCORE.INTRA>
-4.50731

>  <SCORE.INTRA.DIHEDRAL>
-11.3124

>  <SCORE.INTRA.DIHEDRAL.0>
16.2083

>  <SCORE.INTRA.POLAR>
0

>  <SCORE.INTRA.POLAR.0>
0

>  <SCORE.INTRA.REPUL>
0

>  <SCORE.INTRA.REPUL.0>
0

>  <SCORE.INTRA.SOLV>
-0.529835

>  <SCORE.INTRA.SOLV.lig_0>
-89.8095

>  <SCORE.INTRA.VDW>
1.41381

>  <SCORE.INTRA.VDW.0>
-3.19502

>  <SCORE.INTRA.norm>
-0.121819

>  <SCORE.RESTR>
0

>  <SCORE.RESTR.CAVITY>
0

>  <SCORE.RESTR.norm>
0

>  <SCORE.SYSTEM>
0

>  <SCORE.SYSTEM.CONST>
0

>  <SCORE.SYSTEM.DIHEDRAL>
0

>  <SCORE.SYSTEM.SOLV>
0

>  <SCORE.SYSTEM.norm>
0

>  <SCORE.heavy>
37

>  <SCORE.norm>
-0.556527

>  <RMSD>
9.959

$$$$
2oe5_lig
 OpenBabel11021811463D
libRbt.so/2013.1/901 2013/11/27
 37 40  0  0  0  0  0  0  0  0999 V2000
   21.8024   -3.1683   50.2506 C   0  0  1  0  0  0  0  0  0  0  0  0
   22.9890   -3.1485   51.2401 C   0  0  1  0  0  0  0  0  0  0  0  0
   22.4411   -2.9688   52.7046 C   0  0  0  0  0  0  0  0  0  0  0  0
   21.6689   -1.6306   52.6899 C   0  0  1  0  0  0  0  0  0  0  0  0
   20.4533   -1.6672   51.6616 C   0  0  1  0  0  0  0  0  0  0  0  0
   19.6587   -0.3330   51.6366 C   0  0  1  0  0  0  0  0  0  0  0  0
   19.1290   -0.0965   53.0796 C   0  0  1  0  0  0  0  0  0  0  0  0
   20.3564   -0.1123   54.0677 C   0  0  2  0  0  0  0  0  0  0  0  0
   19.1296    2.5202   53.2047 C   0  0  0  0  0  0  0  0  0  0  0  0
   23.7449   -4.4188   51.1490 N   0  0  0  0  0  0  0  0  0  0  0  0
   18.3821    1.2152   53.1575 N   0  0  0  0  0  0  0  0  0  0  0  0
   20.9260   -4.2827   50.4844 O   0  0  0  0  0  0  0  0  0  0  0  0
   20.9932   -1.9428   50.3286 O   0  0  0  0  0  0  0  0  0  0  0  0
   21.1224   -1.3724   54.0110 O   0  0  0  0  0  0  0  0  0  0  0  0
   20.5528    0.7049   51.2226 O   0  0  0  0  0  0  0  0  0  0  0  0
   19.9065    0.0371   55.3998 O   0  0  0  0  0  0  0  0  0  0  0  0
   20.9515    0.5324   56.2157 C   0  0  2  0  0  0  0  0  0  0  0  0
   21.0920   -0.2526   57.5194 C   0  0  1  0  0  0  0  0  0  0  0  0
   19.8248   -0.1009   58.4050 C   0  0  2  0  0  0  0  0  0  0  0  0
   19.6119    1.4204   58.6625 C   0  0  1  0  0  0  0  0  0  0  0  0
   19.4328    2.1285   57.2795 C   0  0  1  0  0  0  0  0  0  0  0  0
   19.2696    3.6268   57.4055 C   0  0  0  0  0  0  0  0  0  0  0  0
   18.3820    1.5787   59.5264 N   0  0  0  0  0  0  0  0  0  0  0  0
   20.6701    1.9360   56.5135 O   0  0  0  0  0  0  0  0  0  0  0  0
   21.3124   -1.6340   57.1719 O   0  0  0  0  0  0  0  0  0  0  0  0
   20.0709   -0.7715   59.6543 O   0  0  0  0  0  0  0  0  0  0  0  0
   20.4127    4.2342   57.9023 O   0  0  0  0  0  0  0  0  0  0  0  0
   20.0337   -4.5613   49.4051 C   0  0  1  0  0  0  0  0  0  0  0  0
   20.7132   -5.5517   48.3930 C   0  0  1  0  0  0  0  0  0  0  0  0
   19.7086   -5.8530   47.2232 C   0  0  2  0  0  0  0  0  0  0  0  0
   18.4396   -6.5007   47.7976 C   0  0  1  0  0  0  0  0  0  0  0  0
   17.7506   -5.4992   48.8029 C   0  0  0  0  0  0  0  0  0  0  0  0
   18.7642   -5.1824   49.9719 C   0  0  2  0  0  0  0  0  0  0  0  0
   17.5271   -6.7914   46.7041 N   0  0  0  0  0  0  0  0  0  0  0  0
   18.1595   -4.2220   50.9320 N   0  0  0  0  0  0  0  0  0  0  0  0
   21.9177   -4.9419   47.8462 O   0  0  0  0  0  0  0  0  0  0  0  0
   20.3049   -6.7521   46.3263 O   0  0  0  0  0  0  0  0  0  0  0  0
  1  2  1  0  0  0  0
  1 12  1  1  0  0  0
  1 13  1  0  0  0  0
  2  3  1  0  0  0  0
  2 10  1  1  0  0  0
  4  3  1  1  0  0  0
  4  5  1  0  0  0  0
  4 14  1  0  0  0  0
  5  6  1  0  0  0  0
  5 13  1  6  0  0  0
  6  7  1  0  0  0  0
  6 15  1  1  0  0  0
  7  8  1  0  0  0  0
  7 11  1  6  0  0  0
  8 14  1  0  0  0  0
  8 16  1  1  0  0  0
  9 11  1  0  0  0  0
 17 16  1  6  0  0  0
 17 18  1  0  0  0  0
 17 24  1  0  0  0  0
 18 19  1  0  0  0  0
 18 25  1  6  0  0  0
 19 20  1  0  0  0  0
 19 26  1  1  0  0  0
 20 21  1  0  0  0  0
 20 23  1  1  0  0  0
 21 22  1  1  0  0  0
 21 24  1  0  0  0  0
 22 27  1  0  0  0  0
 28 12  1  1  0  0  0
 28 29  1  0  0  0  0
 28 33  1  0  0  0  0
 29 30  1  0  0  0  0
 29 36  1  6  0  0  0
 30 31  1  0  0  0  0
 30 37  1  6  0  0  0
 31 32  1  0  0  0  0
 31 34  1  6  0  0  0
 32 33  1  0  0  0  0
 33 35  1  1  0  0  0
M  END
>  <CHROM.1>
-163.99904119,-76.72243969,-157.54298570,-132.72774084,65.23586082,88.74771259
20.22380286,-1.69172535,52.89047596,-1.56466068,-0.86636757,0.92978984

>  <Name>
2oe5_lig

>  <RI>
0

>  <Rbt.Current_Directory>
/home/itssahil/PROJECTS/Mol_Feturizer/New_Systems/rnas/2oe5

>  <Rbt.Executable>
rbdock ($Id: //depot/dev/client3/rdock/2013.1/src/exe/rbdock.cxx#4 $)

>  <Rbt.Library>
libRbt.so (2013.1, Build901 2013/11/27)

>  <Rbt.Parameter_File>
/export/apps/rDock/src/rDock_2013.1_src/data/scripts/dock_solv.prm

>  <Rbt.Receptor>
prm/pocket_docking_7.prm

>  <SCORE>
-14.3506

>  <SCORE.INTER>
-12.992

>  <SCORE.INTER.CONST>
1

>  <SCORE.INTER.POLAR>
-0.979796

>  <SCORE.INTER.ROT>
6

>  <SCORE.INTER.SOLV>
15.0265

>  <SCORE.INTER.VDW>
-18.0042

>  <SCORE.INTER.norm>
-0.351134

>  <SCORE.INTRA>
-1.35859

>  <SCORE.INTRA.DIHEDRAL>
-2.64385

>  <SCORE.INTRA.DIHEDRAL.0>
16.2083

>  <SCORE.INTRA.POLAR>
0

>  <SCORE.INTRA.POLAR.0>
0

>  <SCORE.INTRA.REPUL>
0

>  <SCORE.INTRA.REPUL.0>
0

>  <SCORE.INTRA.SOLV>
-0.707352

>  <SCORE.INTRA.SOLV.lig_0>
-89.8095

>  <SCORE.INTRA.VDW>
0.317012

>  <SCORE.INTRA.VDW.0>
-3.19502

>  <SCORE.INTRA.norm>
-0.0367187

>  <SCORE.RESTR>
0

>  <SCORE.RESTR.CAVITY>
0

>  <SCORE.RESTR.norm>
0

>  <SCORE.SYSTEM>
0

>  <SCORE.SYSTEM.CONST>
0

>  <SCORE.SYSTEM.DIHEDRAL>
0

>  <SCORE.SYSTEM.SOLV>
0

>  <SCORE.SYSTEM.norm>
0

>  <SCORE.heavy>
37

>  <SCORE.norm>
-0.387853

>  <RMSD>
9.961

$$$$
2oe5_lig
 OpenBabel11021811463D
libRbt.so/2013.1/901 2013/11/27
 37 40  0  0  0  0  0  0  0  0999 V2000
   18.3476   -3.5844   46.4504 C   0  0  1  0  0  0  0  0  0  0  0  0
   19.2988   -2.5518   45.8052 C   0  0  1  0  0  0  0  0  0  0  0  0
   20.7772   -2.8594   46.2488 C   0  0  0  0  0  0  0  0  0  0  0  0
   20.7688   -2.7638   47.7909 C   0  0  1  0  0  0  0  0  0  0  0  0
   19.7799   -3.8313   48.4383 C   0  0  1  0  0  0  0  0  0  0  0  0
   19.7619   -3.7570   49.9895 C   0  0  1  0  0  0  0  0  0  0  0  0
   21.2175   -4.0187   50.4705 C   0  0  1  0  0  0  0  0  0  0  0  0
   22.1666   -2.9717   49.7732 C   0  0  2  0  0  0  0  0  0  0  0  0
   22.6363   -3.9013   52.6696 C   0  0  0  0  0  0  0  0  0  0  0  0
   19.2011   -2.6269   44.3293 N   0  0  0  0  0  0  0  0  0  0  0  0
   21.3011   -3.9136   51.9760 N   0  0  0  0  0  0  0  0  0  0  0  0
   18.6240   -4.9221   46.0043 O   0  0  0  0  0  0  0  0  0  0  0  0
   18.4344   -3.5788   47.9185 O   0  0  0  0  0  0  0  0  0  0  0  0
   22.1028   -3.0318   48.3000 O   0  0  0  0  0  0  0  0  0  0  0  0
   19.3058   -2.4529   50.3631 O   0  0  0  0  0  0  0  0  0  0  0  0
   23.5100   -3.2190   50.1381 O   0  0  0  0  0  0  0  0  0  0  0  0
   24.3556   -2.2241   49.5918 C   0  0  2  0  0  0  0  0  0  0  0  0
   25.7841   -2.3187   50.1265 C   0  0  1  0  0  0  0  0  0  0  0  0
   25.8300   -2.0476   51.6554 C   0  0  2  0  0  0  0  0  0  0  0  0
   25.2094   -0.6403   51.9009 C   0  0  1  0  0  0  0  0  0  0  0  0
   23.7400   -0.6553   51.3653 C   0  0  1  0  0  0  0  0  0  0  0  0
   23.0520    0.6843   51.5053 C   0  0  0  0  0  0  0  0  0  0  0  0
   25.2521   -0.3654   53.3864 N   0  0  0  0  0  0  0  0  0  0  0  0
   23.7916   -0.9161   49.9218 O   0  0  0  0  0  0  0  0  0  0  0  0
   26.2729   -3.6408   49.8253 O   0  0  0  0  0  0  0  0  0  0  0  0
   27.2092   -2.0447   52.0666 O   0  0  0  0  0  0  0  0  0  0  0  0
   22.9126    1.0607   52.8326 O   0  0  0  0  0  0  0  0  0  0  0  0
   17.6065   -5.8692   46.3305 C   0  0  1  0  0  0  0  0  0  0  0  0
   16.2959   -5.5415   45.5294 C   0  0  1  0  0  0  0  0  0  0  0  0
   15.1970   -6.6034   45.8944 C   0  0  2  0  0  0  0  0  0  0  0  0
   15.6956   -8.0039   45.5072 C   0  0  1  0  0  0  0  0  0  0  0  0
   17.0037   -8.3373   46.3231 C   0  0  0  0  0  0  0  0  0  0  0  0
   18.1052   -7.2620   45.9697 C   0  0  2  0  0  0  0  0  0  0  0  0
   14.6631   -8.9742   45.8324 N   0  0  0  0  0  0  0  0  0  0  0  0
   19.3503   -7.5285   46.7370 N   0  0  0  0  0  0  0  0  0  0  0  0
   15.8198   -4.2138   45.8929 O   0  0  0  0  0  0  0  0  0  0  0  0
   14.0302   -6.3252   45.1668 O   0  0  0  0  0  0  0  0  0  0  0  0
  1  2  1  0  0  0  0
  1 12  1  6  0  0  0
  1 13  1  0  0  0  0
  2  3  1  0  0  0  0
  2 10  1  6  0  0  0
  4  3  1  6  0  0  0
  4  5  1  0  0  0  0
  4 14  1  0  0  0  0
  5  6  1  0  0  0  0
  5 13  1  6  0  0  0
  6  7  1  0  0  0  0
  6 15  1  6  0  0  0
  7  8  1  0  0  0  0
  7 11  1  1  0  0  0
  8 14  1  0  0  0  0
  8 16  1  6  0  0  0
  9 11  1  0  0  0  0
 17 16  1  1  0  0  0
 17 18  1  0  0  0  0
 17 24  1  0  0  0  0
 18 19  1  0  0  0  0
 18 25  1  1  0  0  0
 19 20  1  0  0  0  0
 19 26  1  6  0  0  0
 20 21  1  0  0  0  0
 20 23  1  1  0  0  0
 21 22  1  6  0  0  0
 21 24  1  0  0  0  0
 22 27  1  0  0  0  0
 28 12  1  6  0  0  0
 28 29  1  0  0  0  0
 28 33  1  0  0  0  0
 29 30  1  0  0  0  0
 29 36  1  1  0  0  0
 30 31  1  0  0  0  0
 30 37  1  6  0  0  0
 31 32  1  0  0  0  0
 31 34  1  1  0  0  0
 32 33  1  0  0  0  0
 33 35  1  1  0  0  0
M  END
>  <CHROM.1>
-166.94534095,-169.93459538,-175.82020674,171.28867081,-63.52125839,66.97809019
20.68552071,-3.63824217,48.67805748,2.63536734,0.56463539,-3.04621011

>  <Name>
2oe5_lig

>  <RI>
0

>  <Rbt.Current_Directory>
/home/itssahil/PROJECTS/Mol_Feturizer/New_Systems/rnas/2oe5

>  <Rbt.Executable>
rbdock ($Id: //depot/dev/client3/rdock/2013.1/src/exe/rbdock.cxx#4 $)

>  <Rbt.Library>
libRbt.so (2013.1, Build901 2013/11/27)

>  <Rbt.Parameter_File>
/export/apps/rDock/src/rDock_2013.1_src/data/scripts/dock_solv.prm

>  <Rbt.Receptor>
prm/pocket_docking_5.prm

>  <SCORE>
-12.9384

>  <SCORE.INTER>
-8.42065

>  <SCORE.INTER.CONST>
1

>  <SCORE.INTER.POLAR>
-0.388434

>  <SCORE.INTER.ROT>
6

>  <SCORE.INTER.SOLV>
13.6925

>  <SCORE.INTER.VDW>
-16.4831

>  <SCORE.INTER.norm>
-0.227585

>  <SCORE.INTRA>
-4.51773

>  <SCORE.INTRA.DIHEDRAL>
-14.4939

>  <SCORE.INTRA.DIHEDRAL.0>
16.2083

>  <SCORE.INTRA.POLAR>
0

>  <SCORE.INTRA.POLAR.0>
0

>  <SCORE.INTRA.REPUL>
0

>  <SCORE.INTRA.REPUL.0>
0

>  <SCORE.INTRA.SOLV>
-1.34978

>  <SCORE.INTRA.SOLV.lig_0>
-89.8095

>  <SCORE.INTRA.VDW>
3.4041

>  <SCORE.INTRA.VDW.0>
-3.19502

>  <SCORE.INTRA.norm>
-0.122101

>  <SCORE.RESTR>
0

>  <SCORE.RESTR.CAVITY>
0

>  <SCORE.RESTR.norm>
0

>  <SCORE.SYSTEM>
0

>  <SCORE.SYSTEM.CONST>
0

>  <SCORE.SYSTEM.DIHEDRAL>
0

>  <SCORE.SYSTEM.SOLV>
0

>  <SCORE.SYSTEM.norm>
0

>  <SCORE.heavy>
37

>  <SCORE.norm>
-0.349686

>  <RMSD>
9.964

$$$$
2oe5_lig
 OpenBabel11021811463D
libRbt.so/2013.1/901 2013/11/27
 37 40  0  0  0  0  0  0  0  0999 V2000
   22.9243   -1.5181   49.4608 C   0  0  1  0  0  0  0  0  0  0  0  0
   23.3545   -2.7168   50.3356 C   0  0  1  0  0  0  0  0  0  0  0  0
   22.6200   -2.6357   51.7253 C   0  0  0  0  0  0  0  0  0  0  0  0
   23.0489   -1.2823   52.3350 C   0  0  1  0  0  0  0  0  0  0  0  0
   22.6018   -0.0591   51.4182 C   0  0  1  0  0  0  0  0  0  0  0  0
   23.0171    1.3123   52.0172 C   0  0  1  0  0  0  0  0  0  0  0  0
   22.3407    1.4180   53.4136 C   0  0  1  0  0  0  0  0  0  0  0  0
   22.7733    0.1683   54.2705 C   0  0  2  0  0  0  0  0  0  0  0  0
   21.8761    3.2963   55.1796 C   0  0  0  0  0  0  0  0  0  0  0  0
   22.9985   -3.9875   49.6633 N   0  0  0  0  0  0  0  0  0  0  0  0
   22.7355    2.7091   54.0931 N   0  0  0  0  0  0  0  0  0  0  0  0
   21.5179   -1.5445   49.1668 O   0  0  0  0  0  0  0  0  0  0  0  0
   23.2200   -0.2278   50.1015 O   0  0  0  0  0  0  0  0  0  0  0  0
   22.4187   -1.1147   53.6333 O   0  0  0  0  0  0  0  0  0  0  0  0
   24.4447    1.3362   52.1157 O   0  0  0  0  0  0  0  0  0  0  0  0
   22.1265    0.1968   55.5275 O   0  0  0  0  0  0  0  0  0  0  0  0
   22.6332   -0.8287   56.3610 C   0  0  2  0  0  0  0  0  0  0  0  0
   21.6773   -1.1749   57.5020 C   0  0  1  0  0  0  0  0  0  0  0  0
   21.4932    0.0301   58.4649 C   0  0  2  0  0  0  0  0  0  0  0  0
   22.9038    0.4309   58.9896 C   0  0  1  0  0  0  0  0  0  0  0  0
   23.7919    0.8106   57.7594 C   0  0  1  0  0  0  0  0  0  0  0  0
   25.2087    1.1692   58.1484 C   0  0  0  0  0  0  0  0  0  0  0  0
   22.7352    1.6017   59.9304 N   0  0  0  0  0  0  0  0  0  0  0  0
   23.9123   -0.3796   56.9088 O   0  0  0  0  0  0  0  0  0  0  0  0
   20.4188   -1.5569   56.9122 O   0  0  0  0  0  0  0  0  0  0  0  0
   20.6734   -0.4005   59.5665 O   0  0  0  0  0  0  0  0  0  0  0  0
   25.2609    2.3229   58.9158 O   0  0  0  0  0  0  0  0  0  0  0  0
   21.1347   -2.5540   48.2325 C   0  0  1  0  0  0  0  0  0  0  0  0
   19.5814   -2.7779   48.2960 C   0  0  1  0  0  0  0  0  0  0  0  0
   19.1830   -3.8817   47.2514 C   0  0  2  0  0  0  0  0  0  0  0  0
   19.5742   -3.4122   45.8421 C   0  0  1  0  0  0  0  0  0  0  0  0
   21.1360   -3.2015   45.7758 C   0  0  0  0  0  0  0  0  0  0  0  0
   21.5413   -2.1033   46.8360 C   0  0  2  0  0  0  0  0  0  0  0  0
   19.1835   -4.4331   44.8839 N   0  0  0  0  0  0  0  0  0  0  0  0
   23.0125   -1.8905   46.8207 N   0  0  0  0  0  0  0  0  0  0  0  0
   19.2058   -3.2227   49.6312 O   0  0  0  0  0  0  0  0  0  0  0  0
   17.7936   -4.0718   47.2918 O   0  0  0  0  0  0  0  0  0  0  0  0
  1  2  1  0  0  0  0
  1 12  1  1  0  0  0
  1 13  1  0  0  0  0
  2  3  1  0  0  0  0
  2 10  1  6  0  0  0
  4  3  1  6  0  0  0
  4  5  1  0  0  0  0
  4 14  1  0  0  0  0
  5  6  1  0  0  0  0
  5 13  1  6  0  0  0
  6  7  1  0  0  0  0
  6 15  1  1  0  0  0
  7  8  1  0  0  0  0
  7 11  1  1  0  0  0
  8 14  1  0  0  0  0
  8 16  1  1  0  0  0
  9 11  1  0  0  0  0
 17 16  1  1  0  0  0
 17 18  1  0  0  0  0
 17 24  1  0  0  0  0
 18 19  1  0  0  0  0
 18 25  1  6  0  0  0
 19 20  1  0  0  0  0
 19 26  1  1  0  0  0
 20 21  1  0  0  0  0
 20 23  1  1  0  0  0
 21 22  1  1  0  0  0
 21 24  1  0  0  0  0
 22 27  1  0  0  0  0
 28 12  1  1  0  0  0
 28 29  1  0  0  0  0
 28 33  1  0  0  0  0
 29 30  1  0  0  0  0
 29 36  1  1  0  0  0
 30 31  1  0  0  0  0
 30 37  1  6  0  0  0
 31 32  1  0  0  0  0
 31 34  1  6  0  0  0
 32 33  1  0  0  0  0
 33 35  1  1  0  0  0
M  END
>  <CHROM.1>
-72.35589116,157.60918781,-172.85916445,-159.68486714,-65.30552709,163.59137134
22.05221414,-0.90513151,52.61962804,-1.84947374,0.70345811,1.40254656

>  <Name>
2oe5_lig

>  <RI>
0

>  <Rbt.Current_Directory>
/home/itssahil/PROJECTS/Mol_Feturizer/New_Systems/rnas/2oe5

>  <Rbt.Executable>
rbdock ($Id: //depot/dev/client3/rdock/2013.1/src/exe/rbdock.cxx#4 $)

>  <Rbt.Library>
libRbt.so (2013.1, Build901 2013/11/27)

>  <Rbt.Parameter_File>
/export/apps/rDock/src/rDock_2013.1_src/data/scripts/dock_solv.prm

>  <Rbt.Receptor>
prm/pocket_docking_5.prm

>  <SCORE>
-14.1568

>  <SCORE.INTER>
-11.0078

>  <SCORE.INTER.CONST>
1

>  <SCORE.INTER.POLAR>
-0.620394

>  <SCORE.INTER.ROT>
6

>  <SCORE.INTER.SOLV>
12.7816

>  <SCORE.INTER.VDW>
-17.1311

>  <SCORE.INTER.norm>
-0.297508

>  <SCORE.INTRA>
-3.14899

>  <SCORE.INTRA.DIHEDRAL>
-11.5763

>  <SCORE.INTRA.DIHEDRAL.0>
16.2083

>  <SCORE.INTRA.POLAR>
0

>  <SCORE.INTRA.POLAR.0>
0

>  <SCORE.INTRA.REPUL>
0

>  <SCORE.INTRA.REPUL.0>
0

>  <SCORE.INTRA.SOLV>
2.35163

>  <SCORE.INTRA.SOLV.lig_0>
-89.8095

>  <SCORE.INTRA.VDW>
1.46336

>  <SCORE.INTRA.VDW.0>
-3.19502

>  <SCORE.INTRA.norm>
-0.0851079

>  <SCORE.RESTR>
0

>  <SCORE.RESTR.CAVITY>
0

>  <SCORE.RESTR.norm>
0

>  <SCORE.SYSTEM>
0

>  <SCORE.SYSTEM.CONST>
0

>  <SCORE.SYSTEM.DIHEDRAL>
0

>  <SCORE.SYSTEM.SOLV>
0

>  <SCORE.SYSTEM.norm>
0

>  <SCORE.heavy>
37

>  <SCORE.norm>
-0.382616

>  <RMSD>
9.965

$$$$
2oe5_lig
 OpenBabel11021811463D
libRbt.so/2013.1/901 2013/11/27
 37 40  0  0  0  0  0  0  0  0999 V2000
   19.7473   -2.4013   49.8842 C   0  0  1  0  0  0  0  0  0  0  0  0
   20.9286   -2.9999   50.6802 C   0  0  1  0  0  0  0  0  0  0  0  0
   20.6248   -2.8919   52.2207 C   0  0  0  0  0  0  0  0  0  0  0  0
   20.4390   -1.3827   52.4951 C   0  0  1  0  0  0  0  0  0  0  0  0
   19.2211   -0.7819   51.6632 C   0  0  1  0  0  0  0  0  0  0  0  0
   19.0124    0.7338   51.9303 C   0  0  1  0  0  0  0  0  0  0  0  0
   18.7455    0.8905   53.4544 C   0  0  1  0  0  0  0  0  0  0  0  0
   19.9503    0.2447   54.2383 C   0  0  2  0  0  0  0  0  0  0  0  0
   19.6761    3.3386   53.5185 C   0  0  0  0  0  0  0  0  0  0  0  0
   21.1168   -4.4224   50.3133 N   0  0  0  0  0  0  0  0  0  0  0  0
   18.5807    2.3497   53.8123 N   0  0  0  0  0  0  0  0  0  0  0  0
   18.5290   -3.1324   50.0991 O   0  0  0  0  0  0  0  0  0  0  0  0
   19.4917   -0.9975   50.2404 O   0  0  0  0  0  0  0  0  0  0  0  0
   20.1546   -1.1784   53.9050 O   0  0  0  0  0  0  0  0  0  0  0  0
   20.2012    1.4204   51.5262 O   0  0  0  0  0  0  0  0  0  0  0  0
   19.7128    0.3120   55.6305 O   0  0  0  0  0  0  0  0  0  0  0  0
   20.9252    0.1460   56.3415 C   0  0  2  0  0  0  0  0  0  0  0  0
   20.7147    0.1420   57.8552 C   0  0  1  0  0  0  0  0  0  0  0  0
   20.1777    1.5128   58.3506 C   0  0  2  0  0  0  0  0  0  0  0  0
   21.1977    2.6036   57.9084 C   0  0  1  0  0  0  0  0  0  0  0  0
   21.3107    2.5618   56.3490 C   0  0  1  0  0  0  0  0  0  0  0  0
   22.3195    3.5505   55.8083 C   0  0  0  0  0  0  0  0  0  0  0  0
   20.6855    3.9420   58.3885 N   0  0  0  0  0  0  0  0  0  0  0  0
   21.8230    1.2391   55.9718 O   0  0  0  0  0  0  0  0  0  0  0  0
   19.7828   -0.9145   58.1603 O   0  0  0  0  0  0  0  0  0  0  0  0
   20.1083    1.4718   59.7874 O   0  0  0  0  0  0  0  0  0  0  0  0
   23.5910    3.3242   56.3129 O   0  0  0  0  0  0  0  0  0  0  0  0
   18.3203   -4.2042   49.1792 C   0  0  1  0  0  0  0  0  0  0  0  0
   17.5177   -5.3590   49.8786 C   0  0  1  0  0  0  0  0  0  0  0  0
   17.2893   -6.5193   48.8441 C   0  0  2  0  0  0  0  0  0  0  0  0
   16.4812   -5.9850   47.6519 C   0  0  1  0  0  0  0  0  0  0  0  0
   17.2949   -4.8352   46.9419 C   0  0  0  0  0  0  0  0  0  0  0  0
   17.5394   -3.6741   47.9843 C   0  0  2  0  0  0  0  0  0  0  0  0
   16.2607   -7.0718   46.7119 N   0  0  0  0  0  0  0  0  0  0  0  0
   18.3245   -2.5774   47.3591 N   0  0  0  0  0  0  0  0  0  0  0  0
   18.2800   -5.8683   51.0104 O   0  0  0  0  0  0  0  0  0  0  0  0
   16.5564   -7.5452   49.4595 O   0  0  0  0  0  0  0  0  0  0  0  0
  1  2  1  0  0  0  0
  1 12  1  1  0  0  0
  1 13  1  0  0  0  0
  2  3  1  0  0  0  0
  2 10  1  6  0  0  0
  4  3  1  1  0  0  0
  4  5  1  0  0  0  0
  4 14  1  0  0  0  0
  5  6  1  0  0  0  0
  5 13  1  6  0  0  0
  6  7  1  0  0  0  0
  6 15  1  1  0  0  0
  7  8  1  0  0  0  0
  7 11  1  6  0  0  0
  8 14  1  0  0  0  0
  8 16  1  1  0  0  0
  9 11  1  0  0  0  0
 17 16  1  6  0  0  0
 17 18  1  0  0  0  0
 17 24  1  0  0  0  0
 18 19  1  0  0  0  0
 18 25  1  6  0  0  0
 19 20  1  0  0  0  0
 19 26  1  1  0  0  0
 20 21  1  0  0  0  0
 20 23  1  6  0  0  0
 21 22  1  1  0  0  0
 21 24  1  0  0  0  0
 22 27  1  0  0  0  0
 28 12  1  1  0  0  0
 28 29  1  0  0  0  0
 28 33  1  0  0  0  0
 29 30  1  0  0  0  0
 29 36  1  1  0  0  0
 30 31  1  0  0  0  0
 30 37  1  1  0  0  0
 31 32  1  0  0  0  0
 31 34  1  6  0  0  0
 32 33  1  0  0  0  0
 33 35  1  6  0  0  0
M  END
>  <CHROM.1>
-89.97502681,-58.04136138,-161.20516929,-177.19404245,59.22673097,148.90699936
19.54856364,-1.19332213,52.80341655,-2.64107158,1.24678709,1.90406535

>  <Name>
2oe5_lig

>  <RI>
0

>  <Rbt.Current_Directory>
/home/itssahil/PROJECTS/Mol_Feturizer/New_Systems/rnas/2oe5

>  <Rbt.Executable>
rbdock ($Id: //depot/dev/client3/rdock/2013.1/src/exe/rbdock.cxx#4 $)

>  <Rbt.Library>
libRbt.so (2013.1, Build901 2013/11/27)

>  <Rbt.Parameter_File>
/export/apps/rDock/src/rDock_2013.1_src/data/scripts/dock_solv.prm

>  <Rbt.Receptor>
prm/pocket_docking_4.prm

>  <SCORE>
-21.0944

>  <SCORE.INTER>
-19.5983

>  <SCORE.INTER.CONST>
1

>  <SCORE.INTER.POLAR>
-1.88854

>  <SCORE.INTER.ROT>
6

>  <SCORE.INTER.SOLV>
16.3987

>  <SCORE.INTER.VDW>
-19.8367

>  <SCORE.INTER.norm>
-0.529685

>  <SCORE.INTRA>
-1.49602

>  <SCORE.INTRA.DIHEDRAL>
-7.1175

>  <SCORE.INTRA.DIHEDRAL.0>
16.2083

>  <SCORE.INTRA.POLAR>
0

>  <SCORE.INTRA.POLAR.0>
0

>  <SCORE.INTRA.REPUL>
0

>  <SCORE.INTRA.REPUL.0>
0

>  <SCORE.INTRA.SOLV>
1.01844

>  <SCORE.INTRA.SOLV.lig_0>
-89.8095

>  <SCORE.INTRA.VDW>
1.55351

>  <SCORE.INTRA.VDW.0>
-3.19502

>  <SCORE.INTRA.norm>
-0.0404329

>  <SCORE.RESTR>
0

>  <SCORE.RESTR.CAVITY>
0

>  <SCORE.RESTR.norm>
0

>  <SCORE.SYSTEM>
0

>  <SCORE.SYSTEM.CONST>
0

>  <SCORE.SYSTEM.DIHEDRAL>
0

>  <SCORE.SYSTEM.SOLV>
0

>  <SCORE.SYSTEM.norm>
0

>  <SCORE.heavy>
37

>  <SCORE.norm>
-0.570118

>  <RMSD>
9.972

$$$$
2oe5_lig
 OpenBabel11021811463D
libRbt.so/2013.1/901 2013/11/27
 37 40  0  0  0  0  0  0  0  0999 V2000
   21.0630   -1.2144   52.2367 C   0  0  1  0  0  0  0  0  0  0  0  0
   19.9248   -0.2691   51.7914 C   0  0  1  0  0  0  0  0  0  0  0  0
   20.1245    1.1384   52.4667 C   0  0  0  0  0  0  0  0  0  0  0  0
   20.0997    0.8684   53.9878 C   0  0  1  0  0  0  0  0  0  0  0  0
   21.2760   -0.1110   54.4279 C   0  0  1  0  0  0  0  0  0  0  0  0
   21.2736   -0.3900   55.9557 C   0  0  1  0  0  0  0  0  0  0  0  0
   21.4313    0.9849   56.6654 C   0  0  1  0  0  0  0  0  0  0  0  0
   20.2766    1.9352   56.1688 C   0  0  2  0  0  0  0  0  0  0  0  0
   21.9669   -0.4192   58.8112 C   0  0  0  0  0  0  0  0  0  0  0  0
   19.9413   -0.1161   50.3184 N   0  0  0  0  0  0  0  0  0  0  0  0
   21.3875    0.8104   58.1661 N   0  0  0  0  0  0  0  0  0  0  0  0
   22.3507   -0.7469   51.8028 O   0  0  0  0  0  0  0  0  0  0  0  0
   21.1163   -1.3704   53.6981 O   0  0  0  0  0  0  0  0  0  0  0  0
   20.2753    2.1198   54.7047 O   0  0  0  0  0  0  0  0  0  0  0  0
   20.0315   -1.0189   56.2870 O   0  0  0  0  0  0  0  0  0  0  0  0
   20.4242    3.2176   56.7458 O   0  0  0  0  0  0  0  0  0  0  0  0
   19.2282    3.9599   56.5992 C   0  0  2  0  0  0  0  0  0  0  0  0
   19.3167    5.3386   57.2526 C   0  0  1  0  0  0  0  0  0  0  0  0
   19.4946    5.2199   58.7912 C   0  0  2  0  0  0  0  0  0  0  0  0
   18.2943    4.3927   59.3396 C   0  0  1  0  0  0  0  0  0  0  0  0
   18.3142    2.9889   58.6503 C   0  0  1  0  0  0  0  0  0  0  0  0
   17.1552    2.1132   59.0714 C   0  0  0  0  0  0  0  0  0  0  0  0
   18.4565    4.2738   60.8375 N   0  0  0  0  0  0  0  0  0  0  0  0
   18.1405    3.1953   57.2075 O   0  0  0  0  0  0  0  0  0  0  0  0
   20.4343    6.0286   56.6588 O   0  0  0  0  0  0  0  0  0  0  0  0
   19.4602    6.5466   59.3477 O   0  0  0  0  0  0  0  0  0  0  0  0
   17.1882    0.8736   58.4510 O   0  0  0  0  0  0  0  0  0  0  0  0
   23.3689   -1.7479   51.8096 C   0  0  1  0  0  0  0  0  0  0  0  0
   23.0896   -2.8008   50.6782 C   0  0  1  0  0  0  0  0  0  0  0  0
   24.2287   -3.8827   50.6971 C   0  0  2  0  0  0  0  0  0  0  0  0
   25.5808   -3.2012   50.4381 C   0  0  1  0  0  0  0  0  0  0  0  0
   25.8665   -2.1544   51.5829 C   0  0  0  0  0  0  0  0  0  0  0  0
   24.7143   -1.0741   51.5762 C   0  0  2  0  0  0  0  0  0  0  0  0
   26.6230   -4.2146   50.4393 N   0  0  0  0  0  0  0  0  0  0  0  0
   24.9352   -0.0786   52.6580 N   0  0  0  0  0  0  0  0  0  0  0  0
   21.8078   -3.4492   50.9194 O   0  0  0  0  0  0  0  0  0  0  0  0
   23.9930   -4.8152   49.6757 O   0  0  0  0  0  0  0  0  0  0  0  0
  1  2  1  0  0  0  0
  1 12  1  1  0  0  0
  1 13  1  0  0  0  0
  2  3  1  0  0  0  0
  2 10  1  6  0  0  0
  4  3  1  6  0  0  0
  4  5  1  0  0  0  0
  4 14  1  0  0  0  0
  5  6  1  0  0  0  0
  5 13  1  6  0  0  0
  6  7  1  0  0  0  0
  6 15  1  1  0  0  0
  7  8  1  0  0  0  0
  7 11  1  1  0  0  0
  8 14  1  0  0  0  0
  8 16  1  1  0  0  0
  9 11  1  0  0  0  0
 17 16  1  1  0  0  0
 17 18  1  0  0  0  0
 17 24  1  0  0  0  0
 18 19  1  0  0  0  0
 18 25  1  6  0  0  0
 19 20  1  0  0  0  0
 19 26  1  1  0  0  0
 20 21  1  0  0  0  0
 20 23  1  1  0  0  0
 21 22  1  1  0  0  0
 21 24  1  0  0  0  0
 22 27  1  0  0  0  0
 28 12  1  6  0  0  0
 28 29  1  0  0  0  0
 28 33  1  0  0  0  0
 29 30  1  0  0  0  0
 29 36  1  1  0  0  0
 30 31  1  0  0  0  0
 30 37  1  6  0  0  0
 31 32  1  0  0  0  0
 31 34  1  1  0  0  0
 32 33  1  0  0  0  0
 33 35  1  1  0  0  0
M  END
>  <CHROM.1>
-161.50883611,34.52225699,-164.57989112,177.89254935,179.98351659,69.59987666
21.12345058,0.63112226,54.80833523,0.42818488,1.06537219,-1.20458718

>  <Name>
2oe5_lig

>  <RI>
0

>  <Rbt.Current_Directory>
/home/itssahil/PROJECTS/Mol_Feturizer/New_Systems/rnas/2oe5

>  <Rbt.Executable>
rbdock ($Id: //depot/dev/client3/rdock/2013.1/src/exe/rbdock.cxx#4 $)

>  <Rbt.Library>
libRbt.so (2013.1, Build901 2013/11/27)

>  <Rbt.Parameter_File>
/export/apps/rDock/src/rDock_2013.1_src/data/scripts/dock_solv.prm

>  <Rbt.Receptor>
prm/pocket_docking_6.prm

>  <SCORE>
-20.8948

>  <SCORE.INTER>
-16.0416

>  <SCORE.INTER.CONST>
1

>  <SCORE.INTER.POLAR>
-2.38699

>  <SCORE.INTER.ROT>
6

>  <SCORE.INTER.SOLV>
12.8912

>  <SCORE.INTER.VDW>
-14.6349

>  <SCORE.INTER.norm>
-0.433558

>  <SCORE.INTRA>
-4.85318

>  <SCORE.INTRA.DIHEDRAL>
-12.5431

>  <SCORE.INTRA.DIHEDRAL.0>
16.2083

>  <SCORE.INTRA.POLAR>
0

>  <SCORE.INTRA.POLAR.0>
0

>  <SCORE.INTRA.REPUL>
0.0110325

>  <SCORE.INTRA.REPUL.0>
0

>  <SCORE.INTRA.SOLV>
-2.04772

>  <SCORE.INTRA.SOLV.lig_0>
-89.8095

>  <SCORE.INTRA.VDW>
2.38709

>  <SCORE.INTRA.VDW.0>
-3.19502

>  <SCORE.INTRA.norm>
-0.131167

>  <SCORE.RESTR>
0

>  <SCORE.RESTR.CAVITY>
0

>  <SCORE.RESTR.norm>
0

>  <SCORE.SYSTEM>
0

>  <SCORE.SYSTEM.CONST>
0

>  <SCORE.SYSTEM.DIHEDRAL>
0

>  <SCORE.SYSTEM.SOLV>
0

>  <SCORE.SYSTEM.norm>
0

>  <SCORE.heavy>
37

>  <SCORE.norm>
-0.564725

>  <RMSD>
9.974

$$$$
2oe5_lig
 OpenBabel11021811463D
libRbt.so/2013.1/901 2013/11/27
 37 40  0  0  0  0  0  0  0  0999 V2000
   17.7126   -5.8390   48.9347 C   0  0  1  0  0  0  0  0  0  0  0  0
   18.3818   -5.5411   50.2951 C   0  0  1  0  0  0  0  0  0  0  0  0
   19.9383   -5.4236   50.0937 C   0  0  0  0  0  0  0  0  0  0  0  0
   20.3781   -6.7853   49.5108 C   0  0  1  0  0  0  0  0  0  0  0  0
   19.6754   -7.0779   48.1120 C   0  0  1  0  0  0  0  0  0  0  0  0
   20.1098   -8.4398   47.5047 C   0  0  1  0  0  0  0  0  0  0  0  0
   21.6533   -8.3810   47.3236 C   0  0  1  0  0  0  0  0  0  0  0  0
   22.3044   -8.0457   48.7190 C   0  0  2  0  0  0  0  0  0  0  0  0
   21.4826  -10.3681   45.6251 C   0  0  0  0  0  0  0  0  0  0  0  0
   17.8590   -4.2707   50.8486 N   0  0  0  0  0  0  0  0  0  0  0  0
   22.1699   -9.6938   46.7814 N   0  0  0  0  0  0  0  0  0  0  0  0
   17.9100   -4.7715   47.9932 O   0  0  0  0  0  0  0  0  0  0  0  0
   18.2261   -7.0730   48.3211 O   0  0  0  0  0  0  0  0  0  0  0  0
   21.8141   -6.7766   49.2906 O   0  0  0  0  0  0  0  0  0  0  0  0
   19.7212   -9.4728   48.4158 O   0  0  0  0  0  0  0  0  0  0  0  0
   23.7061   -7.9214   48.5809 O   0  0  0  0  0  0  0  0  0  0  0  0
   24.0220   -6.7686   47.8232 C   0  0  2  0  0  0  0  0  0  0  0  0
   25.4482   -6.8067   47.2754 C   0  0  1  0  0  0  0  0  0  0  0  0
   26.4917   -6.7931   48.4260 C   0  0  2  0  0  0  0  0  0  0  0  0
   26.2311   -5.5172   49.2804 C   0  0  1  0  0  0  0  0  0  0  0  0
   24.7696   -5.5906   49.8328 C   0  0  1  0  0  0  0  0  0  0  0  0
   24.3867   -4.3702   50.6400 C   0  0  0  0  0  0  0  0  0  0  0  0
   27.2439   -5.4930   50.4019 N   0  0  0  0  0  0  0  0  0  0  0  0
   23.8559   -5.5985   48.6841 O   0  0  0  0  0  0  0  0  0  0  0  0
   25.5756   -8.0030   46.4816 O   0  0  0  0  0  0  0  0  0  0  0  0
   27.8031   -6.7199   47.8379 O   0  0  0  0  0  0  0  0  0  0  0  0
   24.3889   -3.2166   49.8707 O   0  0  0  0  0  0  0  0  0  0  0  0
   17.1423   -4.8983   46.7961 C   0  0  1  0  0  0  0  0  0  0  0  0
   15.6104   -4.9028   47.1425 C   0  0  1  0  0  0  0  0  0  0  0  0
   14.7874   -5.0296   45.8102 C   0  0  2  0  0  0  0  0  0  0  0  0
   15.1022   -3.8308   44.9027 C   0  0  1  0  0  0  0  0  0  0  0  0
   16.6383   -3.8358   44.5440 C   0  0  0  0  0  0  0  0  0  0  0  0
   17.4683   -3.7240   45.8830 C   0  0  2  0  0  0  0  0  0  0  0  0
   14.3210   -3.9502   43.6826 N   0  0  0  0  0  0  0  0  0  0  0  0
   18.9254   -3.7476   45.5894 N   0  0  0  0  0  0  0  0  0  0  0  0
   15.3073   -6.0378   48.0037 O   0  0  0  0  0  0  0  0  0  0  0  0
   13.4177   -5.0155   46.1136 O   0  0  0  0  0  0  0  0  0  0  0  0
  1  2  1  0  0  0  0
  1 12  1  6  0  0  0
  1 13  1  0  0  0  0
  2  3  1  0  0  0  0
  2 10  1  6  0  0  0
  4  3  1  6  0  0  0
  4  5  1  0  0  0  0
  4 14  1  0  0  0  0
  5  6  1  0  0  0  0
  5 13  1  1  0  0  0
  6  7  1  0  0  0  0
  6 15  1  1  0  0  0
  7  8  1  0  0  0  0
  7 11  1  1  0  0  0
  8 14  1  0  0  0  0
  8 16  1  6  0  0  0
  9 11  1  0  0  0  0
 17 16  1  1  0  0  0
 17 18  1  0  0  0  0
 17 24  1  0  0  0  0
 18 19  1  0  0  0  0
 18 25  1  1  0  0  0
 19 20  1  0  0  0  0
 19 26  1  6  0  0  0
 20 21  1  0  0  0  0
 20 23  1  1  0  0  0
 21 22  1  1  0  0  0
 21 24  1  0  0  0  0
 22 27  1  0  0  0  0
 28 12  1  1  0  0  0
 28 29  1  0  0  0  0
 28 33  1  0  0  0  0
 29 30  1  0  0  0  0
 29 36  1  1  0  0  0
 30 31  1  0  0  0  0
 30 37  1  1  0  0  0
 31 32  1  0  0  0  0
 31 34  1  6  0  0  0
 32 33  1  0  0  0  0
 33 35  1  6  0  0  0
M  END
>  <CHROM.1>
-170.73816891,46.26269786,68.26992666,-162.23832262,63.48663342,60.70787721
20.62078307,-6.12183098,47.88242950,-3.11345576,0.28606233,-2.60248887

>  <Name>
2oe5_lig

>  <RI>
0

>  <Rbt.Current_Directory>
/home/itssahil/PROJECTS/Mol_Feturizer/New_Systems/rnas/2oe5

>  <Rbt.Executable>
rbdock ($Id: //depot/dev/client3/rdock/2013.1/src/exe/rbdock.cxx#4 $)

>  <Rbt.Library>
libRbt.so (2013.1, Build901 2013/11/27)

>  <Rbt.Parameter_File>
/export/apps/rDock/src/rDock_2013.1_src/data/scripts/dock_solv.prm

>  <Rbt.Receptor>
prm/pocket_docking_6.prm

>  <SCORE>
-21.1538

>  <SCORE.INTER>
-17.6739

>  <SCORE.INTER.CONST>
1

>  <SCORE.INTER.POLAR>
-0.979796

>  <SCORE.INTER.ROT>
6

>  <SCORE.INTER.SOLV>
16.5529

>  <SCORE.INTER.VDW>
-21.6342

>  <SCORE.INTER.norm>
-0.477673

>  <SCORE.INTRA>
-3.47992

>  <SCORE.INTRA.DIHEDRAL>
-13.7347

>  <SCORE.INTRA.DIHEDRAL.0>
16.2083

>  <SCORE.INTRA.POLAR>
0

>  <SCORE.INTRA.POLAR.0>
0

>  <SCORE.INTRA.REPUL>
0

>  <SCORE.INTRA.REPUL.0>
0

>  <SCORE.INTRA.SOLV>
-1.68363

>  <SCORE.INTRA.SOLV.lig_0>
-89.8095

>  <SCORE.INTRA.VDW>
4.22922

>  <SCORE.INTRA.VDW.0>
-3.19502

>  <SCORE.INTRA.norm>
-0.0940519

>  <SCORE.RESTR>
0

>  <SCORE.RESTR.CAVITY>
0

>  <SCORE.RESTR.norm>
0

>  <SCORE.SYSTEM>
0

>  <SCORE.SYSTEM.CONST>
0

>  <SCORE.SYSTEM.DIHEDRAL>
0

>  <SCORE.SYSTEM.SOLV>
0

>  <SCORE.SYSTEM.norm>
0

>  <SCORE.heavy>
37

>  <SCORE.norm>
-0.571725

>  <RMSD>
9.976

$$$$
2oe5_lig
 OpenBabel11021811463D
libRbt.so/2013.1/901 2013/11/27
 37 40  0  0  0  0  0  0  0  0999 V2000
   20.0438   -5.2154   49.6436 C   0  0  1  0  0  0  0  0  0  0  0  0
   18.9444   -5.3810   50.7166 C   0  0  1  0  0  0  0  0  0  0  0  0
   18.6212   -3.9769   51.3500 C   0  0  0  0  0  0  0  0  0  0  0  0
   19.9563   -3.4835   51.9512 C   0  0  1  0  0  0  0  0  0  0  0  0
   21.0785   -3.3234   50.8325 C   0  0  1  0  0  0  0  0  0  0  0  0
   22.4277   -2.8209   51.4151 C   0  0  1  0  0  0  0  0  0  0  0  0
   22.1450   -1.4470   52.0868 C   0  0  1  0  0  0  0  0  0  0  0  0
   21.0005   -1.6415   53.1525 C   0  0  2  0  0  0  0  0  0  0  0  0
   24.3942   -0.1142   51.9208 C   0  0  0  0  0  0  0  0  0  0  0  0
   17.7177   -5.9388   50.1022 N   0  0  0  0  0  0  0  0  0  0  0  0
   23.4023   -0.9064   52.7284 N   0  0  0  0  0  0  0  0  0  0  0  0
   19.6123   -4.3810   48.5562 O   0  0  0  0  0  0  0  0  0  0  0  0
   21.2738   -4.6267   50.1943 O   0  0  0  0  0  0  0  0  0  0  0  0
   19.7584   -2.1830   52.5678 O   0  0  0  0  0  0  0  0  0  0  0  0
   22.8872   -3.7903   52.3624 O   0  0  0  0  0  0  0  0  0  0  0  0
   20.6715   -0.3986   53.7408 O   0  0  0  0  0  0  0  0  0  0  0  0
   20.2576   -0.5868   55.0810 C   0  0  2  0  0  0  0  0  0  0  0  0
   19.8736    0.7273   55.7601 C   0  0  1  0  0  0  0  0  0  0  0  0
   21.0977    1.6762   55.8786 C   0  0  2  0  0  0  0  0  0  0  0  0
   22.2054    0.9165   56.6670 C   0  0  1  0  0  0  0  0  0  0  0  0
   22.5628   -0.3839   55.8749 C   0  0  1  0  0  0  0  0  0  0  0  0
   23.5982   -1.2325   56.5787 C   0  0  0  0  0  0  0  0  0  0  0  0
   23.4008    1.8330   56.7905 N   0  0  0  0  0  0  0  0  0  0  0  0
   21.3558   -1.2169   55.8123 O   0  0  0  0  0  0  0  0  0  0  0  0
   18.8294    1.3331   54.9725 O   0  0  0  0  0  0  0  0  0  0  0  0
   20.6897    2.8398   56.6207 O   0  0  0  0  0  0  0  0  0  0  0  0
   23.9443   -2.3517   55.8369 O   0  0  0  0  0  0  0  0  0  0  0  0
   19.8214   -4.9504   47.2636 C   0  0  1  0  0  0  0  0  0  0  0  0
   18.7528   -6.0696   46.9944 C   0  0  1  0  0  0  0  0  0  0  0  0
   18.9947   -6.6709   45.5632 C   0  0  2  0  0  0  0  0  0  0  0  0
   18.8458   -5.5593   44.5134 C   0  0  1  0  0  0  0  0  0  0  0  0
   19.9289   -4.4431   44.7765 C   0  0  0  0  0  0  0  0  0  0  0  0
   19.6976   -3.8477   46.2209 C   0  0  2  0  0  0  0  0  0  0  0  0
   19.0533   -6.1319   43.1935 N   0  0  0  0  0  0  0  0  0  0  0  0
   20.7146   -2.8047   46.5171 N   0  0  0  0  0  0  0  0  0  0  0  0
   18.8899   -7.1257   47.9881 O   0  0  0  0  0  0  0  0  0  0  0  0
   18.0306   -7.6584   45.3111 O   0  0  0  0  0  0  0  0  0  0  0  0
  1  2  1  0  0  0  0
  1 12  1  6  0  0  0
  1 13  1  0  0  0  0
  2  3  1  0  0  0  0
  2 10  1  6  0  0  0
  4  3  1  6  0  0  0
  4  5  1  0  0  0  0
  4 14  1  0  0  0  0
  5  6  1  0  0  0  0
  5 13  1  1  0  0  0
  6  7  1  0  0  0  0
  6 15  1  1  0  0  0
  7  8  1  0  0  0  0
  7 11  1  1  0  0  0
  8 14  1  0  0  0  0
  8 16  1  6  0  0  0
  9 11  1  0  0  0  0
 17 16  1  6  0  0  0
 17 18  1  0  0  0  0
 17 24  1  0  0  0  0
 18 19  1  0  0  0  0
 18 25  1  6  0  0  0
 19 20  1  0  0  0  0
 19 26  1  1  0  0  0
 20 21  1  0  0  0  0
 20 23  1  6  0  0  0
 21 22  1  1  0  0  0
 21 24  1  0  0  0  0
 22 27  1  0  0  0  0
 28 12  1  1  0  0  0
 28 29  1  0  0  0  0
 28 33  1  0  0  0  0
 29 30  1  0  0  0  0
 29 36  1  1  0  0  0
 30 31  1  0  0  0  0
 30 37  1  6  0  0  0
 31 32  1  0  0  0  0
 31 34  1  6  0  0  0
 32 33  1  0  0  0  0
 33 35  1  1  0  0  0
M  END
>  <CHROM.1>
-129.39187109,85.47725724,-148.39905842,-179.32289558,-177.46929625,75.22174307
20.67053725,-2.72875035,51.32751061,1.81578958,-0.21983724,-2.09338873

>  <Name>
2oe5_lig

>  <RI>
0

>  <Rbt.Current_Directory>
/home/itssahil/PROJECTS/Mol_Feturizer/New_Systems/rnas/2oe5

>  <Rbt.Executable>
rbdock ($Id: //depot/dev/client3/rdock/2013.1/src/exe/rbdock.cxx#4 $)

>  <Rbt.Library>
libRbt.so (2013.1, Build901 2013/11/27)

>  <Rbt.Parameter_File>
/export/apps/rDock/src/rDock_2013.1_src/data/scripts/dock_solv.prm

>  <Rbt.Receptor>
prm/pocket_docking_8.prm

>  <SCORE>
-7.93842

>  <SCORE.INTER>
-5.90916

>  <SCORE.INTER.CONST>
1

>  <SCORE.INTER.POLAR>
-0.489332

>  <SCORE.INTER.ROT>
6

>  <SCORE.INTER.SOLV>
12.7107

>  <SCORE.INTER.VDW>
-14.1452

>  <SCORE.INTER.norm>
-0.159707

>  <SCORE.INTRA>
-2.02926

>  <SCORE.INTRA.DIHEDRAL>
-3.98668

>  <SCORE.INTRA.DIHEDRAL.0>
16.2083

>  <SCORE.INTRA.POLAR>
0

>  <SCORE.INTRA.POLAR.0>
0

>  <SCORE.INTRA.REPUL>
0

>  <SCORE.INTRA.REPUL.0>
0

>  <SCORE.INTRA.SOLV>
0.170451

>  <SCORE.INTRA.SOLV.lig_0>
-89.8095

>  <SCORE.INTRA.VDW>
-0.121146

>  <SCORE.INTRA.VDW.0>
-3.19502

>  <SCORE.INTRA.norm>
-0.0548449

>  <SCORE.RESTR>
0

>  <SCORE.RESTR.CAVITY>
0

>  <SCORE.RESTR.norm>
0

>  <SCORE.SYSTEM>
0

>  <SCORE.SYSTEM.CONST>
0

>  <SCORE.SYSTEM.DIHEDRAL>
0

>  <SCORE.SYSTEM.SOLV>
0

>  <SCORE.SYSTEM.norm>
0

>  <SCORE.heavy>
37

>  <SCORE.norm>
-0.214552

>  <RMSD>
9.978

$$$$
2oe5_lig
 OpenBabel11021811463D
libRbt.so/2013.1/901 2013/11/27
 37 40  0  0  0  0  0  0  0  0999 V2000
   19.6132   -4.4320   47.8301 C   0  0  1  0  0  0  0  0  0  0  0  0
   19.2780   -5.1283   49.1681 C   0  0  1  0  0  0  0  0  0  0  0  0
   18.9888   -4.0361   50.2638 C   0  0  0  0  0  0  0  0  0  0  0  0
   20.2807   -3.1930   50.3503 C   0  0  1  0  0  0  0  0  0  0  0  0
   20.6132   -2.4870   48.9620 C   0  0  1  0  0  0  0  0  0  0  0  0
   21.9053   -1.6278   49.0294 C   0  0  1  0  0  0  0  0  0  0  0  0
   21.6763   -0.5547   50.1314 C   0  0  1  0  0  0  0  0  0  0  0  0
   21.3069   -1.2927   51.4738 C   0  0  2  0  0  0  0  0  0  0  0  0
   22.8026    1.7170   50.7899 C   0  0  0  0  0  0  0  0  0  0  0  0
   18.0851   -5.9907   49.0047 N   0  0  0  0  0  0  0  0  0  0  0  0
   22.9124    0.2987   50.2998 N   0  0  0  0  0  0  0  0  0  0  0  0
   18.5081   -3.6582   47.3352 O   0  0  0  0  0  0  0  0  0  0  0  0
   20.7694   -3.5308   47.9469 O   0  0  0  0  0  0  0  0  0  0  0  0
   20.1122   -2.1497   51.3473 O   0  0  0  0  0  0  0  0  0  0  0  0
   22.9959   -2.4963   49.3526 O   0  0  0  0  0  0  0  0  0  0  0  0
   21.0291   -0.3451   52.4858 O   0  0  0  0  0  0  0  0  0  0  0  0
   21.0225   -0.9727   53.7543 C   0  0  2  0  0  0  0  0  0  0  0  0
   20.2865   -0.1455   54.8076 C   0  0  1  0  0  0  0  0  0  0  0  0
   21.0084    1.2057   55.0648 C   0  0  2  0  0  0  0  0  0  0  0  0
   22.4694    0.8821   55.4966 C   0  0  1  0  0  0  0  0  0  0  0  0
   23.1523    0.0781   54.3418 C   0  0  1  0  0  0  0  0  0  0  0  0
   24.5677   -0.3377   54.6751 C   0  0  0  0  0  0  0  0  0  0  0  0
   23.1801    2.1911   55.7524 N   0  0  0  0  0  0  0  0  0  0  0  0
   22.4099   -1.1762   54.1686 O   0  0  0  0  0  0  0  0  0  0  0  0
   18.9451    0.0730   54.3273 O   0  0  0  0  0  0  0  0  0  0  0  0
   20.3261    1.8784   56.1387 O   0  0  0  0  0  0  0  0  0  0  0  0
   25.2142   -0.9008   53.5853 O   0  0  0  0  0  0  0  0  0  0  0  0
   18.2550   -3.8262   45.9400 C   0  0  1  0  0  0  0  0  0  0  0  0
   16.7954   -3.3548   45.6019 C   0  0  1  0  0  0  0  0  0  0  0  0
   16.5456   -3.5366   44.0615 C   0  0  2  0  0  0  0  0  0  0  0  0
   17.5530   -2.6805   43.2791 C   0  0  1  0  0  0  0  0  0  0  0  0
   19.0177   -3.1645   43.6087 C   0  0  0  0  0  0  0  0  0  0  0  0
   19.2661   -2.9973   45.1594 C   0  0  2  0  0  0  0  0  0  0  0  0
   17.2993   -2.8428   41.8570 N   0  0  0  0  0  0  0  0  0  0  0  0
   20.6316   -3.4645   45.5157 N   0  0  0  0  0  0  0  0  0  0  0  0
   15.8366   -4.1636   46.3423 O   0  0  0  0  0  0  0  0  0  0  0  0
   15.2490   -3.0993   43.7519 O   0  0  0  0  0  0  0  0  0  0  0  0
  1  2  1  0  0  0  0
  1 12  1  1  0  0  0
  1 13  1  0  0  0  0
  2  3  1  0  0  0  0
  2 10  1  6  0  0  0
  4  3  1  6  0  0  0
  4  5  1  0  0  0  0
  4 14  1  0  0  0  0
  5  6  1  0  0  0  0
  5 13  1  6  0  0  0
  6  7  1  0  0  0  0
  6 15  1  1  0  0  0
  7  8  1  0  0  0  0
  7 11  1  1  0  0  0
  8 14  1  0  0  0  0
  8 16  1  1  0  0  0
  9 11  1  0  0  0  0
 17 16  1  6  0  0  0
 17 18  1  0  0  0  0
 17 24  1  0  0  0  0
 18 19  1  0  0  0  0
 18 25  1  6  0  0  0
 19 20  1  0  0  0  0
 19 26  1  1  0  0  0
 20 21  1  0  0  0  0
 20 23  1  6  0  0  0
 21 22  1  1  0  0  0
 21 24  1  0  0  0  0
 22 27  1  0  0  0  0
 28 12  1  1  0  0  0
 28 29  1  0  0  0  0
 28 33  1  0  0  0  0
 29 30  1  0  0  0  0
 29 36  1  1  0  0  0
 30 31  1  0  0  0  0
 30 37  1  1  0  0  0
 31 32  1  0  0  0  0
 31 34  1  6  0  0  0
 32 33  1  0  0  0  0
 33 35  1  6  0  0  0
M  END
>  <CHROM.1>
-135.30641135,152.35446291,-165.60871679,-160.73228919,-172.50331843,160.99988479
20.27358784,-1.85685218,49.85079461,-2.00678407,0.24889764,1.28769246

>  <Name>
2oe5_lig

>  <RI>
0

>  <Rbt.Current_Directory>
/home/itssahil/PROJECTS/Mol_Feturizer/New_Systems/rnas/2oe5

>  <Rbt.Executable>
rbdock ($Id: //depot/dev/client3/rdock/2013.1/src/exe/rbdock.cxx#4 $)

>  <Rbt.Library>
libRbt.so (2013.1, Build901 2013/11/27)

>  <Rbt.Parameter_File>
/export/apps/rDock/src/rDock_2013.1_src/data/scripts/dock_solv.prm

>  <Rbt.Receptor>
prm/pocket_docking_7.prm

>  <SCORE>
-10.9026

>  <SCORE.INTER>
-9.32897

>  <SCORE.INTER.CONST>
1

>  <SCORE.INTER.POLAR>
0

>  <SCORE.INTER.ROT>
6

>  <SCORE.INTER.SOLV>
11.201

>  <SCORE.INTER.VDW>
-17.553

>  <SCORE.INTER.norm>
-0.252134

>  <SCORE.INTRA>
-1.57367

>  <SCORE.INTRA.DIHEDRAL>
-5.07986

>  <SCORE.INTRA.DIHEDRAL.0>
16.2083

>  <SCORE.INTRA.POLAR>
0

>  <SCORE.INTRA.POLAR.0>
0

>  <SCORE.INTRA.REPUL>
0

>  <SCORE.INTRA.REPUL.0>
0

>  <SCORE.INTRA.SOLV>
-0.156346

>  <SCORE.INTRA.SOLV.lig_0>
-89.8095

>  <SCORE.INTRA.VDW>
1.04443

>  <SCORE.INTRA.VDW.0>
-3.19502

>  <SCORE.INTRA.norm>
-0.0425316

>  <SCORE.RESTR>
0

>  <SCORE.RESTR.CAVITY>
0

>  <SCORE.RESTR.norm>
0

>  <SCORE.SYSTEM>
0

>  <SCORE.SYSTEM.CONST>
0

>  <SCORE.SYSTEM.DIHEDRAL>
0

>  <SCORE.SYSTEM.SOLV>
0

>  <SCORE.SYSTEM.norm>
0

>  <SCORE.heavy>
37

>  <SCORE.norm>
-0.294666

>  <RMSD>
9.979

$$$$
2oe5_lig
 OpenBabel11021811463D
libRbt.so/2013.1/901 2013/11/27
 37 40  0  0  0  0  0  0  0  0999 V2000
   22.1789   -2.6141   49.6924 C   0  0  1  0  0  0  0  0  0  0  0  0
   23.3665   -3.1220   50.5403 C   0  0  1  0  0  0  0  0  0  0  0  0
   22.9144   -3.2520   52.0423 C   0  0  0  0  0  0  0  0  0  0  0  0
   22.4636   -1.8334   52.4568 C   0  0  1  0  0  0  0  0  0  0  0  0
   21.2428   -1.3243   51.5698 C   0  0  1  0  0  0  0  0  0  0  0  0
   20.7690    0.0981   51.9753 C   0  0  1  0  0  0  0  0  0  0  0  0
   20.3469    0.0236   53.4703 C   0  0  1  0  0  0  0  0  0  0  0  0
   21.5663   -0.5257   54.3037 C   0  0  2  0  0  0  0  0  0  0  0  0
   18.8690    2.1727   53.2254 C   0  0  0  0  0  0  0  0  0  0  0  0
   23.8138   -4.4438   50.0440 N   0  0  0  0  0  0  0  0  0  0  0  0
   19.9173    1.3860   53.9642 N   0  0  0  0  0  0  0  0  0  0  0  0
   21.0807   -3.5408   49.6960 O   0  0  0  0  0  0  0  0  0  0  0  0
   21.6693   -1.3195   50.1689 O   0  0  0  0  0  0  0  0  0  0  0  0
   22.0265   -1.8497   53.8422 O   0  0  0  0  0  0  0  0  0  0  0  0
   21.8622    1.0002   51.7768 O   0  0  0  0  0  0  0  0  0  0  0  0
   21.1990   -0.6672   55.6617 O   0  0  0  0  0  0  0  0  0  0  0  0
   22.1834   -0.0873   56.4970 C   0  0  2  0  0  0  0  0  0  0  0  0
   21.9669   -0.4265   57.9713 C   0  0  1  0  0  0  0  0  0  0  0  0
   20.6336    0.1742   58.4953 C   0  0  2  0  0  0  0  0  0  0  0  0
   20.6853    1.7121   58.2541 C   0  0  1  0  0  0  0  0  0  0  0  0
   20.8615    1.9592   56.7198 C   0  0  1  0  0  0  0  0  0  0  0  0
   20.9768    3.4267   56.3724 C   0  0  0  0  0  0  0  0  0  0  0  0
   19.3927    2.3069   58.7636 N   0  0  0  0  0  0  0  0  0  0  0  0
   22.1395    1.3626   56.3133 O   0  0  0  0  0  0  0  0  0  0  0  0
   21.9637   -1.8630   58.0896 O   0  0  0  0  0  0  0  0  0  0  0  0
   20.5502   -0.0897   59.9076 O   0  0  0  0  0  0  0  0  0  0  0  0
   19.8395    4.1358   56.7279 O   0  0  0  0  0  0  0  0  0  0  0  0
   20.1902   -3.3964   48.5892 C   0  0  1  0  0  0  0  0  0  0  0  0
   20.9093   -3.8381   47.2646 C   0  0  1  0  0  0  0  0  0  0  0  0
   19.9068   -3.6831   46.0649 C   0  0  2  0  0  0  0  0  0  0  0  0
   18.6837   -4.5807   46.3058 C   0  0  1  0  0  0  0  0  0  0  0  0
   17.9544   -4.1267   47.6288 C   0  0  0  0  0  0  0  0  0  0  0  0
   18.9651   -4.2669   48.8343 C   0  0  2  0  0  0  0  0  0  0  0  0
   17.7735   -4.4426   45.1809 N   0  0  0  0  0  0  0  0  0  0  0  0
   18.3216   -3.8267   50.1000 N   0  0  0  0  0  0  0  0  0  0  0  0
   22.0704   -2.9898   47.0324 O   0  0  0  0  0  0  0  0  0  0  0  0
   20.5393   -4.0942   44.8820 O   0  0  0  0  0  0  0  0  0  0  0  0
  1  2  1  0  0  0  0
  1 12  1  1  0  0  0
  1 13  1  0  0  0  0
  2  3  1  0  0  0  0
  2 10  1  6  0  0  0
  4  3  1  6  0  0  0
  4  5  1  0  0  0  0
  4 14  1  0  0  0  0
  5  6  1  0  0  0  0
  5 13  1  6  0  0  0
  6  7  1  0  0  0  0
  6 15  1  1  0  0  0
  7  8  1  0  0  0  0
  7 11  1  1  0  0  0
  8 14  1  0  0  0  0
  8 16  1  1  0  0  0
  9 11  1  0  0  0  0
 17 16  1  6  0  0  0
 17 18  1  0  0  0  0
 17 24  1  0  0  0  0
 18 19  1  0  0  0  0
 18 25  1  6  0  0  0
 19 20  1  0  0  0  0
 19 26  1  1  0  0  0
 20 21  1  0  0  0  0
 20 23  1  6  0  0  0
 21 22  1  1  0  0  0
 21 24  1  0  0  0  0
 22 27  1  0  0  0  0
 28 12  1  1  0  0  0
 28 29  1  0  0  0  0
 28 33  1  0  0  0  0
 29 30  1  0  0  0  0
 29 36  1  6  0  0  0
 30 31  1  0  0  0  0
 30 37  1  6  0  0  0
 31 32  1  0  0  0  0
 31 34  1  6  0  0  0
 32 33  1  0  0  0  0
 33 35  1  1  0  0  0
M  END
>  <CHROM.1>
-158.05816494,53.05760864,-131.94575708,-169.80473800,-61.47395321,68.83784281
20.87185434,-1.22551826,52.47760751,-1.65706027,-0.78339626,1.04541606

>  <Name>
2oe5_lig

>  <RI>
0

>  <Rbt.Current_Directory>
/home/itssahil/PROJECTS/Mol_Feturizer/New_Systems/rnas/2oe5

>  <Rbt.Executable>
rbdock ($Id: //depot/dev/client3/rdock/2013.1/src/exe/rbdock.cxx#4 $)

>  <Rbt.Library>
libRbt.so (2013.1, Build901 2013/11/27)

>  <Rbt.Parameter_File>
/export/apps/rDock/src/rDock_2013.1_src/data/scripts/dock_solv.prm

>  <Rbt.Receptor>
prm/pocket_docking_2.prm

>  <SCORE>
-10.7881

>  <SCORE.INTER>
-9.3866

>  <SCORE.INTER.CONST>
1

>  <SCORE.INTER.POLAR>
-0.979796

>  <SCORE.INTER.ROT>
6

>  <SCORE.INTER.SOLV>
8.26228

>  <SCORE.INTER.VDW>
-13.3458

>  <SCORE.INTER.norm>
-0.253692

>  <SCORE.INTRA>
-2.41889

>  <SCORE.INTRA.DIHEDRAL>
-6.61757

>  <SCORE.INTRA.DIHEDRAL.0>
16.2083

>  <SCORE.INTRA.POLAR>
0

>  <SCORE.INTRA.POLAR.0>
0

>  <SCORE.INTRA.REPUL>
0

>  <SCORE.INTRA.REPUL.0>
0

>  <SCORE.INTRA.SOLV>
0.168118

>  <SCORE.INTRA.SOLV.lig_0>
-89.8095

>  <SCORE.INTRA.VDW>
0.805837

>  <SCORE.INTRA.VDW.0>
-3.19502

>  <SCORE.INTRA.norm>
-0.0653754

>  <SCORE.RESTR>
1.01741

>  <SCORE.RESTR.CAVITY>
1.01741

>  <SCORE.RESTR.norm>
0.0274975

>  <SCORE.SYSTEM>
0

>  <SCORE.SYSTEM.CONST>
0

>  <SCORE.SYSTEM.DIHEDRAL>
0

>  <SCORE.SYSTEM.SOLV>
0

>  <SCORE.SYSTEM.norm>
0

>  <SCORE.heavy>
37

>  <SCORE.norm>
-0.29157

>  <RMSD>
9.981

$$$$
2oe5_lig
 OpenBabel11021811463D
libRbt.so/2013.1/901 2013/11/27
 37 40  0  0  0  0  0  0  0  0999 V2000
   20.7612   -1.1138   49.8778 C   0  0  1  0  0  0  0  0  0  0  0  0
   22.2086   -0.5740   49.9112 C   0  0  1  0  0  0  0  0  0  0  0  0
   22.7282   -0.5724   51.3969 C   0  0  0  0  0  0  0  0  0  0  0  0
   21.7468    0.3356   52.1714 C   0  0  1  0  0  0  0  0  0  0  0  0
   20.2600   -0.2331   52.1222 C   0  0  1  0  0  0  0  0  0  0  0  0
   19.2579    0.6618   52.9015 C   0  0  1  0  0  0  0  0  0  0  0  0
   19.7571    0.7217   54.3732 C   0  0  1  0  0  0  0  0  0  0  0  0
   21.2432    1.2457   54.3724 C   0  0  2  0  0  0  0  0  0  0  0  0
   18.9905    1.6629   56.6947 C   0  0  0  0  0  0  0  0  0  0  0  0
   23.0874   -1.4309   49.0825 N   0  0  0  0  0  0  0  0  0  0  0  0
   18.8620    1.6196   55.1962 N   0  0  0  0  0  0  0  0  0  0  0  0
   20.6857   -2.4775   50.3246 O   0  0  0  0  0  0  0  0  0  0  0  0
   19.8524   -0.3200   50.7184 O   0  0  0  0  0  0  0  0  0  0  0  0
   22.1479    0.4036   53.5660 O   0  0  0  0  0  0  0  0  0  0  0  0
   19.2537    1.9553   52.2893 O   0  0  0  0  0  0  0  0  0  0  0  0
   21.7536    1.2539   55.6909 O   0  0  0  0  0  0  0  0  0  0  0  0
   22.9472    2.0122   55.7480 C   0  0  2  0  0  0  0  0  0  0  0  0
   23.6340    1.9123   57.1096 C   0  0  1  0  0  0  0  0  0  0  0  0
   22.7500    2.5252   58.2302 C   0  0  2  0  0  0  0  0  0  0  0  0
   22.4513    4.0023   57.8368 C   0  0  1  0  0  0  0  0  0  0  0  0
   21.7106    3.9997   56.4592 C   0  0  1  0  0  0  0  0  0  0  0  0
   21.4147    5.3930   55.9507 C   0  0  0  0  0  0  0  0  0  0  0  0
   21.5934    4.6091   58.9230 N   0  0  0  0  0  0  0  0  0  0  0  0
   22.6140    3.4075   55.4654 O   0  0  0  0  0  0  0  0  0  0  0  0
   23.8905    0.5169   57.3642 O   0  0  0  0  0  0  0  0  0  0  0  0
   23.5013    2.4957   59.4573 O   0  0  0  0  0  0  0  0  0  0  0  0
   20.5323    6.0715   56.7775 O   0  0  0  0  0  0  0  0  0  0  0  0
   19.5051   -3.1645   49.9086 C   0  0  1  0  0  0  0  0  0  0  0  0
   19.6508   -3.6175   48.4118 C   0  0  1  0  0  0  0  0  0  0  0  0
   18.3471   -4.3816   47.9818 C   0  0  2  0  0  0  0  0  0  0  0  0
   18.1654   -5.6185   48.8745 C   0  0  1  0  0  0  0  0  0  0  0  0
   18.0049   -5.1610   50.3755 C   0  0  0  0  0  0  0  0  0  0  0  0
   19.3080   -4.3791   50.8056 C   0  0  2  0  0  0  0  0  0  0  0  0
   16.9672   -6.3262   48.4546 N   0  0  0  0  0  0  0  0  0  0  0  0
   19.1873   -3.9104   52.2112 N   0  0  0  0  0  0  0  0  0  0  0  0
   19.8240   -2.4476   47.5615 O   0  0  0  0  0  0  0  0  0  0  0  0
   18.4805   -4.8043   46.6507 O   0  0  0  0  0  0  0  0  0  0  0  0
  1  2  1  0  0  0  0
  1 12  1  1  0  0  0
  1 13  1  0  0  0  0
  2  3  1  0  0  0  0
  2 10  1  6  0  0  0
  4  3  1  6  0  0  0
  4  5  1  0  0  0  0
  4 14  1  0  0  0  0
  5  6  1  0  0  0  0
  5 13  1  6  0  0  0
  6  7  1  0  0  0  0
  6 15  1  6  0  0  0
  7  8  1  0  0  0  0
  7 11  1  1  0  0  0
  8 14  1  0  0  0  0
  8 16  1  1  0  0  0
  9 11  1  0  0  0  0
 17 16  1  1  0  0  0
 17 18  1  0  0  0  0
 17 24  1  0  0  0  0
 18 19  1  0  0  0  0
 18 25  1  1  0  0  0
 19 20  1  0  0  0  0
 19 26  1  1  0  0  0
 20 21  1  0  0  0  0
 20 23  1  1  0  0  0
 21 22  1  6  0  0  0
 21 24  1  0  0  0  0
 22 27  1  0  0  0  0
 28 12  1  1  0  0  0
 28 29  1  0  0  0  0
 28 33  1  0  0  0  0
 29 30  1  0  0  0  0
 29 36  1  6  0  0  0
 30 31  1  0  0  0  0
 30 37  1  6  0  0  0
 31 32  1  0  0  0  0
 31 34  1  6  0  0  0
 32 33  1  0  0  0  0
 33 35  1  1  0  0  0
M  END
>  <CHROM.1>
-160.13221052,169.62810377,-165.93038189,-172.92479835,-64.36939915,78.80749845
20.74302648,-0.06259664,53.03203404,-1.88157341,0.57114035,1.02372017

>  <Name>
2oe5_lig

>  <RI>
0

>  <Rbt.Current_Directory>
/home/itssahil/PROJECTS/Mol_Feturizer/New_Systems/rnas/2oe5

>  <Rbt.Executable>
rbdock ($Id: //depot/dev/client3/rdock/2013.1/src/exe/rbdock.cxx#4 $)

>  <Rbt.Library>
libRbt.so (2013.1, Build901 2013/11/27)

>  <Rbt.Parameter_File>
/export/apps/rDock/src/rDock_2013.1_src/data/scripts/dock_solv.prm

>  <Rbt.Receptor>
prm/pocket_docking_4.prm

>  <SCORE>
-20.3681

>  <SCORE.INTER>
-14.7976

>  <SCORE.INTER.CONST>
1

>  <SCORE.INTER.POLAR>
-2.0781

>  <SCORE.INTER.ROT>
6

>  <SCORE.INTER.SOLV>
14.2919

>  <SCORE.INTER.VDW>
-15.302

>  <SCORE.INTER.norm>
-0.399935

>  <SCORE.INTRA>
-5.57053

>  <SCORE.INTRA.DIHEDRAL>
-11.4185

>  <SCORE.INTRA.DIHEDRAL.0>
16.2083

>  <SCORE.INTRA.POLAR>
0

>  <SCORE.INTRA.POLAR.0>
0

>  <SCORE.INTRA.REPUL>
0

>  <SCORE.INTRA.REPUL.0>
0

>  <SCORE.INTRA.SOLV>
-0.721071

>  <SCORE.INTRA.SOLV.lig_0>
-89.8095

>  <SCORE.INTRA.VDW>
0.499247

>  <SCORE.INTRA.VDW.0>
-3.19502

>  <SCORE.INTRA.norm>
-0.150555

>  <SCORE.RESTR>
0

>  <SCORE.RESTR.CAVITY>
0

>  <SCORE.RESTR.norm>
0

>  <SCORE.SYSTEM>
0

>  <SCORE.SYSTEM.CONST>
0

>  <SCORE.SYSTEM.DIHEDRAL>
0

>  <SCORE.SYSTEM.SOLV>
0

>  <SCORE.SYSTEM.norm>
0

>  <SCORE.heavy>
37

>  <SCORE.norm>
-0.55049

>  <RMSD>
9.985

$$$$
2oe5_lig
 OpenBabel11021811463D
libRbt.so/2013.1/901 2013/11/27
 37 40  0  0  0  0  0  0  0  0999 V2000
   19.7863   -2.3711   49.8524 C   0  0  1  0  0  0  0  0  0  0  0  0
   20.8710   -3.0327   50.7317 C   0  0  1  0  0  0  0  0  0  0  0  0
   20.4590   -2.9089   52.2457 C   0  0  0  0  0  0  0  0  0  0  0  0
   20.3346   -1.3920   52.5120 C   0  0  1  0  0  0  0  0  0  0  0  0
   19.2163   -0.7262   51.5942 C   0  0  1  0  0  0  0  0  0  0  0  0
   19.0699    0.7985   51.8514 C   0  0  1  0  0  0  0  0  0  0  0  0
   18.6987    0.9689   53.3521 C   0  0  1  0  0  0  0  0  0  0  0  0
   19.8051    0.2589   54.2209 C   0  0  2  0  0  0  0  0  0  0  0  0
   19.7983    3.3254   53.6687 C   0  0  0  0  0  0  0  0  0  0  0  0
   21.0094   -4.4631   50.3738 N   0  0  0  0  0  0  0  0  0  0  0  0
   18.5861    2.4348   53.7030 N   0  0  0  0  0  0  0  0  0  0  0  0
   18.5179   -3.0355   49.9726 O   0  0  0  0  0  0  0  0  0  0  0  0
   19.5806   -0.9557   50.1945 O   0  0  0  0  0  0  0  0  0  0  0  0
   19.9570   -1.1730   53.8976 O   0  0  0  0  0  0  0  0  0  0  0  0
   20.3208    1.4202   51.5401 O   0  0  0  0  0  0  0  0  0  0  0  0
   19.4681    0.3385   55.5918 O   0  0  0  0  0  0  0  0  0  0  0  0
   20.4526    1.0728   56.2950 C   0  0  2  0  0  0  0  0  0  0  0  0
   21.6523    0.2100   56.6847 C   0  0  1  0  0  0  0  0  0  0  0  0
   21.2394   -0.9078   57.6813 C   0  0  2  0  0  0  0  0  0  0  0  0
   20.5933   -0.2174   58.9189 C   0  0  1  0  0  0  0  0  0  0  0  0
   19.3534    0.6004   58.4290 C   0  0  1  0  0  0  0  0  0  0  0  0
   18.6738    1.3596   59.5466 C   0  0  0  0  0  0  0  0  0  0  0  0
   20.1904   -1.2971   59.8967 N   0  0  0  0  0  0  0  0  0  0  0  0
   19.8336    1.6282   57.4976 O   0  0  0  0  0  0  0  0  0  0  0  0
   22.1907   -0.3561   55.4734 O   0  0  0  0  0  0  0  0  0  0  0  0
   22.4306   -1.6065   58.0862 O   0  0  0  0  0  0  0  0  0  0  0  0
   17.5296    2.0111   59.1117 O   0  0  0  0  0  0  0  0  0  0  0  0
   18.3427   -4.1287   49.0710 C   0  0  1  0  0  0  0  0  0  0  0  0
   17.5518   -5.2849   49.7815 C   0  0  1  0  0  0  0  0  0  0  0  0
   17.3603   -6.4690   48.7668 C   0  0  2  0  0  0  0  0  0  0  0  0
   16.5598   -5.9734   47.5530 C   0  0  1  0  0  0  0  0  0  0  0  0
   17.3620   -4.8222   46.8323 C   0  0  0  0  0  0  0  0  0  0  0  0
   17.5694   -3.6367   47.8550 C   0  0  2  0  0  0  0  0  0  0  0  0
   16.3734   -7.0822   46.6315 N   0  0  0  0  0  0  0  0  0  0  0  0
   18.3428   -2.5376   47.2196 N   0  0  0  0  0  0  0  0  0  0  0  0
   18.3070   -5.7576   50.9337 O   0  0  0  0  0  0  0  0  0  0  0  0
   16.6380   -7.4967   49.3917 O   0  0  0  0  0  0  0  0  0  0  0  0
  1  2  1  0  0  0  0
  1 12  1  1  0  0  0
  1 13  1  0  0  0  0
  2  3  1  0  0  0  0
  2 10  1  6  0  0  0
  4  3  1  6  0  0  0
  4  5  1  0  0  0  0
  4 14  1  0  0  0  0
  5  6  1  0  0  0  0
  5 13  1  6  0  0  0
  6  7  1  0  0  0  0
  6 15  1  1  0  0  0
  7  8  1  0  0  0  0
  7 11  1  1  0  0  0
  8 14  1  0  0  0  0
  8 16  1  1  0  0  0
  9 11  1  0  0  0  0
 17 16  1  1  0  0  0
 17 18  1  0  0  0  0
 17 24  1  0  0  0  0
 18 19  1  0  0  0  0
 18 25  1  6  0  0  0
 19 20  1  0  0  0  0
 19 26  1  1  0  0  0
 20 21  1  0  0  0  0
 20 23  1  1  0  0  0
 21 22  1  1  0  0  0
 21 24  1  0  0  0  0
 22 27  1  0  0  0  0
 28 12  1  1  0  0  0
 28 29  1  0  0  0  0
 28 33  1  0  0  0  0
 29 30  1  0  0  0  0
 29 36  1  1  0  0  0
 30 31  1  0  0  0  0
 30 37  1  1  0  0  0
 31 32  1  0  0  0  0
 31 34  1  6  0  0  0
 32 33  1  0  0  0  0
 33 35  1  6  0  0  0
M  END
>  <CHROM.1>
-87.59132576,-66.13181026,-117.74578257,-83.20144980,-176.23575531,142.81155423
19.30767330,-1.62830027,52.93743908,-3.13139802,1.36326755,2.56471656

>  <Name>
2oe5_lig

>  <RI>
0

>  <Rbt.Current_Directory>
/home/itssahil/PROJECTS/Mol_Feturizer/New_Systems/rnas/2oe5

>  <Rbt.Executable>
rbdock ($Id: //depot/dev/client3/rdock/2013.1/src/exe/rbdock.cxx#4 $)

>  <Rbt.Library>
libRbt.so (2013.1, Build901 2013/11/27)

>  <Rbt.Parameter_File>
/export/apps/rDock/src/rDock_2013.1_src/data/scripts/dock_solv.prm

>  <Rbt.Receptor>
prm/pocket_docking_8.prm

>  <SCORE>
-20.6402

>  <SCORE.INTER>
-22.7281

>  <SCORE.INTER.CONST>
1

>  <SCORE.INTER.POLAR>
-2.14418

>  <SCORE.INTER.ROT>
6

>  <SCORE.INTER.SOLV>
23.5871

>  <SCORE.INTER.VDW>
-23.4672

>  <SCORE.INTER.norm>
-0.614273

>  <SCORE.INTRA>
2.08787

>  <SCORE.INTRA.DIHEDRAL>
1.45804

>  <SCORE.INTRA.DIHEDRAL.0>
16.2083

>  <SCORE.INTRA.POLAR>
0

>  <SCORE.INTRA.POLAR.0>
0

>  <SCORE.INTRA.REPUL>
0

>  <SCORE.INTRA.REPUL.0>
0

>  <SCORE.INTRA.SOLV>
0.764213

>  <SCORE.INTRA.SOLV.lig_0>
-89.8095

>  <SCORE.INTRA.VDW>
0.976746

>  <SCORE.INTRA.VDW.0>
-3.19502

>  <SCORE.INTRA.norm>
0.056429

>  <SCORE.RESTR>
0

>  <SCORE.RESTR.CAVITY>
0

>  <SCORE.RESTR.norm>
0

>  <SCORE.SYSTEM>
0

>  <SCORE.SYSTEM.CONST>
0

>  <SCORE.SYSTEM.DIHEDRAL>
0

>  <SCORE.SYSTEM.SOLV>
0

>  <SCORE.SYSTEM.norm>
0

>  <SCORE.heavy>
37

>  <SCORE.norm>
-0.557844

>  <RMSD>
9.987

$$$$
2oe5_lig
 OpenBabel11021811463D
libRbt.so/2013.1/901 2013/11/27
 37 40  0  0  0  0  0  0  0  0999 V2000
   19.8459   -1.9957   49.9824 C   0  0  1  0  0  0  0  0  0  0  0  0
   21.2289   -2.5737   50.3572 C   0  0  1  0  0  0  0  0  0  0  0  0
   21.2752   -2.8466   51.9065 C   0  0  0  0  0  0  0  0  0  0  0  0
   21.0143   -1.4759   52.5702 C   0  0  1  0  0  0  0  0  0  0  0  0
   19.5874   -0.8933   52.1692 C   0  0  1  0  0  0  0  0  0  0  0  0
   19.3019    0.4819   52.8321 C   0  0  1  0  0  0  0  0  0  0  0  0
   19.3758    0.2650   54.3703 C   0  0  1  0  0  0  0  0  0  0  0  0
   20.7833   -0.3526   54.7175 C   0  0  2  0  0  0  0  0  0  0  0  0
   18.2832    2.6423   54.5033 C   0  0  0  0  0  0  0  0  0  0  0  0
   21.4628   -3.8404   49.6263 N   0  0  0  0  0  0  0  0  0  0  0  0
   19.1589    1.5725   55.0970 N   0  0  0  0  0  0  0  0  0  0  0  0
   18.7837   -2.9253   50.2520 O   0  0  0  0  0  0  0  0  0  0  0  0
   19.5459   -0.7546   50.7120 O   0  0  0  0  0  0  0  0  0  0  0  0
   21.0406   -1.6247   54.0151 O   0  0  0  0  0  0  0  0  0  0  0  0
   20.2966    1.4052   52.3778 O   0  0  0  0  0  0  0  0  0  0  0  0
   20.8640   -0.6230   56.1030 O   0  0  0  0  0  0  0  0  0  0  0  0
   22.0782   -0.1209   56.6289 C   0  0  2  0  0  0  0  0  0  0  0  0
   22.2599   -0.4701   58.1055 C   0  0  1  0  0  0  0  0  0  0  0  0
   21.1682    0.2054   58.9802 C   0  0  2  0  0  0  0  0  0  0  0  0
   21.2515    1.7407   58.7313 C   0  0  1  0  0  0  0  0  0  0  0  0
   21.0085    2.0016   57.2084 C   0  0  1  0  0  0  0  0  0  0  0  0
   21.1186    3.4643   56.8400 C   0  0  0  0  0  0  0  0  0  0  0  0
   20.1944    2.4080   59.5806 N   0  0  0  0  0  0  0  0  0  0  0  0
   22.0803    1.3317   56.4621 O   0  0  0  0  0  0  0  0  0  0  0  0
   22.1953   -1.9053   58.2226 O   0  0  0  0  0  0  0  0  0  0  0  0
   21.4648   -0.0761   60.3599 O   0  0  0  0  0  0  0  0  0  0  0  0
   20.8856    3.6792   55.4901 O   0  0  0  0  0  0  0  0  0  0  0  0
   18.6350   -3.9457   49.2645 C   0  0  1  0  0  0  0  0  0  0  0  0
   17.7245   -5.0982   49.8209 C   0  0  1  0  0  0  0  0  0  0  0  0
   17.5650   -6.2009   48.7132 C   0  0  2  0  0  0  0  0  0  0  0  0
   16.9045   -5.5823   47.4720 C   0  0  1  0  0  0  0  0  0  0  0  0
   17.8269   -4.4347   46.9060 C   0  0  0  0  0  0  0  0  0  0  0  0
   18.0015   -3.3321   48.0232 C   0  0  2  0  0  0  0  0  0  0  0  0
   16.7456   -6.6162   46.4626 N   0  0  0  0  0  0  0  0  0  0  0  0
   18.8849   -2.2402   47.5358 N   0  0  0  0  0  0  0  0  0  0  0  0
   18.3467   -5.6874   50.9987 O   0  0  0  0  0  0  0  0  0  0  0  0
   16.7371   -7.2238   49.1996 O   0  0  0  0  0  0  0  0  0  0  0  0
  1  2  1  0  0  0  0
  1 12  1  1  0  0  0
  1 13  1  0  0  0  0
  2  3  1  0  0  0  0
  2 10  1  6  0  0  0
  4  3  1  6  0  0  0
  4  5  1  0  0  0  0
  4 14  1  0  0  0  0
  5  6  1  0  0  0  0
  5 13  1  6  0  0  0
  6  7  1  0  0  0  0
  6 15  1  6  0  0  0
  7  8  1  0  0  0  0
  7 11  1  1  0  0  0
  8 14  1  0  0  0  0
  8 16  1  1  0  0  0
  9 11  1  0  0  0  0
 17 16  1  1  0  0  0
 17 18  1  0  0  0  0
 17 24  1  0  0  0  0
 18 19  1  0  0  0  0
 18 25  1  6  0  0  0
 19 20  1  0  0  0  0
 19 26  1  1  0  0  0
 20 21  1  0  0  0  0
 20 23  1  1  0  0  0
 21 22  1  1  0  0  0
 21 24  1  0  0  0  0
 22 27  1  0  0  0  0
 28 12  1  1  0  0  0
 28 29  1  0  0  0  0
 28 33  1  0  0  0  0
 29 30  1  0  0  0  0
 29 36  1  1  0  0  0
 30 31  1  0  0  0  0
 30 37  1  1  0  0  0
 31 32  1  0  0  0  0
 31 34  1  6  0  0  0
 32 33  1  0  0  0  0
 33 35  1  6  0  0  0
M  END
>  <CHROM.1>
-79.13261164,30.66013668,-132.08681363,-176.11312049,-179.31685800,165.44623231
19.87389670,-1.37737469,53.09002105,2.66633007,1.26536106,3.04787227

>  <Name>
2oe5_lig

>  <RI>
0

>  <Rbt.Current_Directory>
/home/itssahil/PROJECTS/Mol_Feturizer/New_Systems/rnas/2oe5

>  <Rbt.Executable>
rbdock ($Id: //depot/dev/client3/rdock/2013.1/src/exe/rbdock.cxx#4 $)

>  <Rbt.Library>
libRbt.so (2013.1, Build901 2013/11/27)

>  <Rbt.Parameter_File>
/export/apps/rDock/src/rDock_2013.1_src/data/scripts/dock_solv.prm

>  <Rbt.Receptor>
prm/pocket_docking_2.prm

>  <SCORE>
-10.2815

>  <SCORE.INTER>
-13.4166

>  <SCORE.INTER.CONST>
1

>  <SCORE.INTER.POLAR>
-1.18617

>  <SCORE.INTER.ROT>
6

>  <SCORE.INTER.SOLV>
13.5814

>  <SCORE.INTER.VDW>
-17.1176

>  <SCORE.INTER.norm>
-0.36261

>  <SCORE.INTRA>
1.09676

>  <SCORE.INTRA.DIHEDRAL>
-6.36974

>  <SCORE.INTRA.DIHEDRAL.0>
16.2083

>  <SCORE.INTRA.POLAR>
0

>  <SCORE.INTRA.POLAR.0>
0

>  <SCORE.INTRA.REPUL>
0

>  <SCORE.INTRA.REPUL.0>
0

>  <SCORE.INTRA.SOLV>
3.41452

>  <SCORE.INTRA.SOLV.lig_0>
-89.8095

>  <SCORE.INTRA.VDW>
2.57437

>  <SCORE.INTRA.VDW.0>
-3.19502

>  <SCORE.INTRA.norm>
0.0296422

>  <SCORE.RESTR>
2.03827

>  <SCORE.RESTR.CAVITY>
2.03827

>  <SCORE.RESTR.norm>
0.0550884

>  <SCORE.SYSTEM>
0

>  <SCORE.SYSTEM.CONST>
0

>  <SCORE.SYSTEM.DIHEDRAL>
0

>  <SCORE.SYSTEM.SOLV>
0

>  <SCORE.SYSTEM.norm>
0

>  <SCORE.heavy>
37

>  <SCORE.norm>
-0.277879

>  <RMSD>
9.991

$$$$
2oe5_lig
 OpenBabel11021811463D
libRbt.so/2013.1/901 2013/11/27
 37 40  0  0  0  0  0  0  0  0999 V2000
   21.9745   -2.4545   49.5287 C   0  0  1  0  0  0  0  0  0  0  0  0
   23.1441   -2.8119   50.4731 C   0  0  1  0  0  0  0  0  0  0  0  0
   22.6337   -2.7941   51.9618 C   0  0  0  0  0  0  0  0  0  0  0  0
   22.1094   -1.3597   52.1962 C   0  0  1  0  0  0  0  0  0  0  0  0
   20.9083   -1.0070   51.2117 C   0  0  1  0  0  0  0  0  0  0  0  0
   20.3614    0.4292   51.4359 C   0  0  1  0  0  0  0  0  0  0  0  0
   19.8789    0.5026   52.9126 C   0  0  1  0  0  0  0  0  0  0  0  0
   21.0825    0.1039   53.8484 C   0  0  2  0  0  0  0  0  0  0  0  0
   18.8250    2.2101   54.5968 C   0  0  0  0  0  0  0  0  0  0  0  0
   23.6645   -4.1594   50.1464 N   0  0  0  0  0  0  0  0  0  0  0  0
   19.3747    1.8910   53.2330 N   0  0  0  0  0  0  0  0  0  0  0  0
   20.9149   -3.4229   49.5950 O   0  0  0  0  0  0  0  0  0  0  0  0
   21.3938   -1.1389   49.8365 O   0  0  0  0  0  0  0  0  0  0  0  0
   21.6144   -1.2414   53.5570 O   0  0  0  0  0  0  0  0  0  0  0  0
   21.4252    1.3513   51.1786 O   0  0  0  0  0  0  0  0  0  0  0  0
   20.6634    0.0980   55.1988 O   0  0  0  0  0  0  0  0  0  0  0  0
   21.7866    0.1344   56.0590 C   0  0  2  0  0  0  0  0  0  0  0  0
   21.5924   -0.7298   57.3044 C   0  0  1  0  0  0  0  0  0  0  0  0
   20.4316   -0.1916   58.1853 C   0  0  2  0  0  0  0  0  0  0  0  0
   20.7649    1.2857   58.5490 C   0  0  1  0  0  0  0  0  0  0  0  0
   20.8986    2.0971   57.2186 C   0  0  1  0  0  0  0  0  0  0  0  0
   21.2748    3.5436   57.4501 C   0  0  0  0  0  0  0  0  0  0  0  0
   19.6421    1.8181   59.4091 N   0  0  0  0  0  0  0  0  0  0  0  0
   22.0127    1.5240   56.4538 O   0  0  0  0  0  0  0  0  0  0  0  0
   21.3191   -2.0737   56.8609 O   0  0  0  0  0  0  0  0  0  0  0  0
   20.3787   -0.9835   59.3858 O   0  0  0  0  0  0  0  0  0  0  0  0
   21.0386    4.3275   56.3310 O   0  0  0  0  0  0  0  0  0  0  0  0
   20.1472   -3.5325   48.3962 C   0  0  1  0  0  0  0  0  0  0  0  0
   21.0738   -3.9754   47.2078 C   0  0  1  0  0  0  0  0  0  0  0  0
   20.2052   -4.1019   45.9047 C   0  0  2  0  0  0  0  0  0  0  0  0
   19.1132   -5.1601   46.1228 C   0  0  1  0  0  0  0  0  0  0  0  0
   18.1750   -4.7070   47.3072 C   0  0  0  0  0  0  0  0  0  0  0  0
   19.0487   -4.5640   48.6151 C   0  0  2  0  0  0  0  0  0  0  0  0
   18.3292   -5.2809   44.9047 N   0  0  0  0  0  0  0  0  0  0  0  0
   18.2034   -4.1159   49.7529 N   0  0  0  0  0  0  0  0  0  0  0  0
   22.1113   -2.9750   46.9977 O   0  0  0  0  0  0  0  0  0  0  0  0
   21.0256   -4.5153   44.8444 O   0  0  0  0  0  0  0  0  0  0  0  0
  1  2  1  0  0  0  0
  1 12  1  1  0  0  0
  1 13  1  0  0  0  0
  2  3  1  0  0  0  0
  2 10  1  6  0  0  0
  4  3  1  6  0  0  0
  4  5  1  0  0  0  0
  4 14  1  0  0  0  0
  5  6  1  0  0  0  0
  5 13  1  6  0  0  0
  6  7  1  0  0  0  0
  6 15  1  1  0  0  0
  7  8  1  0  0  0  0
  7 11  1  1  0  0  0
  8 14  1  0  0  0  0
  8 16  1  1  0  0  0
  9 11  1  0  0  0  0
 17 16  1  6  0  0  0
 17 18  1  0  0  0  0
 17 24  1  0  0  0  0
 18 19  1  0  0  0  0
 18 25  1  6  0  0  0
 19 20  1  0  0  0  0
 19 26  1  1  0  0  0
 20 21  1  0  0  0  0
 20 23  1  1  0  0  0
 21 22  1  1  0  0  0
 21 24  1  0  0  0  0
 22 27  1  0  0  0  0
 28 12  1  1  0  0  0
 28 29  1  0  0  0  0
 28 33  1  0  0  0  0
 29 30  1  0  0  0  0
 29 36  1  6  0  0  0
 30 31  1  0  0  0  0
 30 37  1  6  0  0  0
 31 32  1  0  0  0  0
 31 34  1  6  0  0  0
 32 33  1  0  0  0  0
 33 35  1  1  0  0  0
M  END
>  <CHROM.1>
-152.31753805,178.73782339,-162.81452828,-142.33329632,-163.62517004,60.77287153
20.78548249,-1.21046008,52.30585167,1.83848406,1.40546540,-2.32628135

>  <Name>
2oe5_lig

>  <RI>
0

>  <Rbt.Current_Directory>
/home/itssahil/PROJECTS/Mol_Feturizer/New_Systems/rnas/2oe5

>  <Rbt.Executable>
rbdock ($Id: //depot/dev/client3/rdock/2013.1/src/exe/rbdock.cxx#4 $)

>  <Rbt.Library>
libRbt.so (2013.1, Build901 2013/11/27)

>  <Rbt.Parameter_File>
/export/apps/rDock/src/rDock_2013.1_src/data/scripts/dock_solv.prm

>  <Rbt.Receptor>
prm/pocket_docking_2.prm

>  <SCORE>
-9.40813

>  <SCORE.INTER>
-8.63476

>  <SCORE.INTER.CONST>
1

>  <SCORE.INTER.POLAR>
-0.979796

>  <SCORE.INTER.ROT>
6

>  <SCORE.INTER.SOLV>
10.3888

>  <SCORE.INTER.VDW>
-13.5535

>  <SCORE.INTER.norm>
-0.233372

>  <SCORE.INTRA>
-1.97873

>  <SCORE.INTRA.DIHEDRAL>
-5.73857

>  <SCORE.INTRA.DIHEDRAL.0>
16.2083

>  <SCORE.INTRA.POLAR>
0

>  <SCORE.INTRA.POLAR.0>
0

>  <SCORE.INTRA.REPUL>
0

>  <SCORE.INTRA.REPUL.0>
0

>  <SCORE.INTRA.SOLV>
-2.10015

>  <SCORE.INTRA.SOLV.lig_0>
-89.8095

>  <SCORE.INTRA.VDW>
1.94063

>  <SCORE.INTRA.VDW.0>
-3.19502

>  <SCORE.INTRA.norm>
-0.0534793

>  <SCORE.RESTR>
1.20536

>  <SCORE.RESTR.CAVITY>
1.20536

>  <SCORE.RESTR.norm>
0.0325772

>  <SCORE.SYSTEM>
0

>  <SCORE.SYSTEM.CONST>
0

>  <SCORE.SYSTEM.DIHEDRAL>
0

>  <SCORE.SYSTEM.SOLV>
0

>  <SCORE.SYSTEM.norm>
0

>  <SCORE.heavy>
37

>  <SCORE.norm>
-0.254274

>  <RMSD>
10.004

$$$$
2oe5_lig
 OpenBabel11021811463D
libRbt.so/2013.1/901 2013/11/27
 37 40  0  0  0  0  0  0  0  0999 V2000
   19.8412   -2.1377   49.7846 C   0  0  1  0  0  0  0  0  0  0  0  0
   21.1601   -2.6419   50.4120 C   0  0  1  0  0  0  0  0  0  0  0  0
   21.0206   -2.6478   51.9797 C   0  0  0  0  0  0  0  0  0  0  0  0
   20.7099   -1.1847   52.3671 C   0  0  1  0  0  0  0  0  0  0  0  0
   19.3506   -0.6805   51.7081 C   0  0  1  0  0  0  0  0  0  0  0  0
   19.0156    0.7869   52.0911 C   0  0  1  0  0  0  0  0  0  0  0  0
   18.9058    0.8344   53.6417 C   0  0  1  0  0  0  0  0  0  0  0  0
   20.2515    0.2865   54.2517 C   0  0  2  0  0  0  0  0  0  0  0  0
   19.6472    3.3343   53.8940 C   0  0  0  0  0  0  0  0  0  0  0  0
   21.4538   -4.0140   49.9380 N   0  0  0  0  0  0  0  0  0  0  0  0
   18.6303    2.2459   54.1067 N   0  0  0  0  0  0  0  0  0  0  0  0
   18.7377   -3.0094   50.0801 O   0  0  0  0  0  0  0  0  0  0  0  0
   19.4816   -0.7912   50.2539 O   0  0  0  0  0  0  0  0  0  0  0  0
   20.5650   -1.0860   53.8093 O   0  0  0  0  0  0  0  0  0  0  0  0
   20.0736    1.6210   51.6081 O   0  0  0  0  0  0  0  0  0  0  0  0
   20.1653    0.2553   55.6627 O   0  0  0  0  0  0  0  0  0  0  0  0
   21.3686    0.7305   56.2363 C   0  0  2  0  0  0  0  0  0  0  0  0
   22.1929   -0.3904   56.8684 C   0  0  1  0  0  0  0  0  0  0  0  0
   21.4396   -1.0347   58.0645 C   0  0  2  0  0  0  0  0  0  0  0  0
   21.1218    0.0991   59.0841 C   0  0  1  0  0  0  0  0  0  0  0  0
   20.2408    1.1710   58.3621 C   0  0  1  0  0  0  0  0  0  0  0  0
   19.9125    2.3522   59.2478 C   0  0  0  0  0  0  0  0  0  0  0  0
   20.3908   -0.5183   60.2539 N   0  0  0  0  0  0  0  0  0  0  0  0
   21.0269    1.7243   57.2529 O   0  0  0  0  0  0  0  0  0  0  0  0
   22.4553   -1.3673   55.8415 O   0  0  0  0  0  0  0  0  0  0  0  0
   22.3149   -2.0004   58.6748 O   0  0  0  0  0  0  0  0  0  0  0  0
   19.4164    3.4242   58.5217 O   0  0  0  0  0  0  0  0  0  0  0  0
   18.5370   -4.0452   49.1180 C   0  0  1  0  0  0  0  0  0  0  0  0
   17.5879   -5.1474   49.7108 C   0  0  1  0  0  0  0  0  0  0  0  0
   17.3717   -6.2678   48.6307 C   0  0  2  0  0  0  0  0  0  0  0  0
   16.7218   -5.6515   47.3827 C   0  0  1  0  0  0  0  0  0  0  0  0
   17.6825   -4.5549   46.7803 C   0  0  0  0  0  0  0  0  0  0  0  0
   17.9139   -3.4351   47.8698 C   0  0  2  0  0  0  0  0  0  0  0  0
   16.5101   -6.7009   46.3993 N   0  0  0  0  0  0  0  0  0  0  0  0
   18.8342   -2.3908   47.3477 N   0  0  0  0  0  0  0  0  0  0  0  0
   18.2000   -5.7342   50.8951 O   0  0  0  0  0  0  0  0  0  0  0  0
   16.5095   -7.2453   49.1496 O   0  0  0  0  0  0  0  0  0  0  0  0
  1  2  1  0  0  0  0
  1 12  1  1  0  0  0
  1 13  1  0  0  0  0
  2  3  1  0  0  0  0
  2 10  1  6  0  0  0
  4  3  1  1  0  0  0
  4  5  1  0  0  0  0
  4 14  1  0  0  0  0
  5  6  1  0  0  0  0
  5 13  1  6  0  0  0
  6  7  1  0  0  0  0
  6 15  1  1  0  0  0
  7  8  1  0  0  0  0
  7 11  1  6  0  0  0
  8 14  1  0  0  0  0
  8 16  1  1  0  0  0
  9 11  1  0  0  0  0
 17 16  1  1  0  0  0
 17 18  1  0  0  0  0
 17 24  1  0  0  0  0
 18 19  1  0  0  0  0
 18 25  1  6  0  0  0
 19 20  1  0  0  0  0
 19 26  1  1  0  0  0
 20 21  1  0  0  0  0
 20 23  1  1  0  0  0
 21 22  1  1  0  0  0
 21 24  1  0  0  0  0
 22 27  1  0  0  0  0
 28 12  1  1  0  0  0
 28 29  1  0  0  0  0
 28 33  1  0  0  0  0
 29 30  1  0  0  0  0
 29 36  1  1  0  0  0
 30 31  1  0  0  0  0
 30 37  1  1  0  0  0
 31 32  1  0  0  0  0
 31 34  1  6  0  0  0
 32 33  1  0  0  0  0
 33 35  1  6  0  0  0
M  END
>  <CHROM.1>
-90.25025764,-64.78831522,-137.30762909,-107.76940826,165.61880402,164.84350281
19.65343681,-1.48411302,52.94584498,2.62691672,1.28363839,3.11762906

>  <Name>
2oe5_lig

>  <RI>
0

>  <Rbt.Current_Directory>
/home/itssahil/PROJECTS/Mol_Feturizer/New_Systems/rnas/2oe5

>  <Rbt.Executable>
rbdock ($Id: //depot/dev/client3/rdock/2013.1/src/exe/rbdock.cxx#4 $)

>  <Rbt.Library>
libRbt.so (2013.1, Build901 2013/11/27)

>  <Rbt.Parameter_File>
/export/apps/rDock/src/rDock_2013.1_src/data/scripts/dock_solv.prm

>  <Rbt.Receptor>
prm/pocket_docking_2.prm

>  <SCORE>
-9.33718

>  <SCORE.INTER>
-15.4328

>  <SCORE.INTER.CONST>
1

>  <SCORE.INTER.POLAR>
-1.37794

>  <SCORE.INTER.ROT>
6

>  <SCORE.INTER.SOLV>
19.0475

>  <SCORE.INTER.VDW>
-19.6445

>  <SCORE.INTER.norm>
-0.417102

>  <SCORE.INTRA>
3.00635

>  <SCORE.INTRA.DIHEDRAL>
1.55723

>  <SCORE.INTRA.DIHEDRAL.0>
16.2083

>  <SCORE.INTRA.POLAR>
0

>  <SCORE.INTRA.POLAR.0>
0

>  <SCORE.INTRA.REPUL>
0

>  <SCORE.INTRA.REPUL.0>
0

>  <SCORE.INTRA.SOLV>
0.811636

>  <SCORE.INTRA.SOLV.lig_0>
-89.8095

>  <SCORE.INTRA.VDW>
1.82192

>  <SCORE.INTRA.VDW.0>
-3.19502

>  <SCORE.INTRA.norm>
0.0812527

>  <SCORE.RESTR>
3.08925

>  <SCORE.RESTR.CAVITY>
3.08925

>  <SCORE.RESTR.norm>
0.0834932

>  <SCORE.SYSTEM>
0

>  <SCORE.SYSTEM.CONST>
0

>  <SCORE.SYSTEM.DIHEDRAL>
0

>  <SCORE.SYSTEM.SOLV>
0

>  <SCORE.SYSTEM.norm>
0

>  <SCORE.heavy>
37

>  <SCORE.norm>
-0.252356

>  <RMSD>
10.007

$$$$
2oe5_lig
 OpenBabel11021811463D
libRbt.so/2013.1/901 2013/11/27
 37 40  0  0  0  0  0  0  0  0999 V2000
   22.9122   -1.4022   54.0034 C   0  0  1  0  0  0  0  0  0  0  0  0
   23.3165   -1.3574   55.4940 C   0  0  1  0  0  0  0  0  0  0  0  0
   22.0189   -1.2936   56.3824 C   0  0  0  0  0  0  0  0  0  0  0  0
   21.2822   -0.0105   55.9369 C   0  0  1  0  0  0  0  0  0  0  0  0
   20.8777   -0.0720   54.3978 C   0  0  1  0  0  0  0  0  0  0  0  0
   20.1290    1.2061   53.9309 C   0  0  1  0  0  0  0  0  0  0  0  0
   18.8537    1.3289   54.8125 C   0  0  1  0  0  0  0  0  0  0  0  0
   19.2951    1.3412   56.3252 C   0  0  2  0  0  0  0  0  0  0  0  0
   18.6015    3.9359   54.8658 C   0  0  0  0  0  0  0  0  0  0  0  0
   24.0944   -2.5682   55.8439 N   0  0  0  0  0  0  0  0  0  0  0  0
   18.0872    2.5822   54.4573 N   0  0  0  0  0  0  0  0  0  0  0  0
   22.1575   -2.5833   53.6864 O   0  0  0  0  0  0  0  0  0  0  0  0
   22.1021   -0.2390   53.6120 O   0  0  0  0  0  0  0  0  0  0  0  0
   20.0607    0.1394   56.7090 O   0  0  0  0  0  0  0  0  0  0  0  0
   21.0074    2.3217   54.1098 O   0  0  0  0  0  0  0  0  0  0  0  0
   18.1556    1.3884   57.1609 O   0  0  0  0  0  0  0  0  0  0  0  0
   18.5318    1.7336   58.4809 C   0  0  2  0  0  0  0  0  0  0  0  0
   17.5152    1.2573   59.5177 C   0  0  1  0  0  0  0  0  0  0  0  0
   16.1447    1.9629   59.3250 C   0  0  2  0  0  0  0  0  0  0  0  0
   16.3909    3.4982   59.4148 C   0  0  1  0  0  0  0  0  0  0  0  0
   17.4036    3.8961   58.2912 C   0  0  1  0  0  0  0  0  0  0  0  0
   17.7586    5.3660   58.3165 C   0  0  0  0  0  0  0  0  0  0  0  0
   15.0621    4.1943   59.2313 N   0  0  0  0  0  0  0  0  0  0  0  0
   18.6628    3.1881   58.5512 O   0  0  0  0  0  0  0  0  0  0  0  0
   17.3822   -0.1703   59.3703 O   0  0  0  0  0  0  0  0  0  0  0  0
   15.2763    1.5504   60.3958 O   0  0  0  0  0  0  0  0  0  0  0  0
   18.7725    5.6713   57.4212 O   0  0  0  0  0  0  0  0  0  0  0  0
   22.1030   -2.8855   52.2920 C   0  0  1  0  0  0  0  0  0  0  0  0
   23.4277   -3.6041   51.8495 C   0  0  1  0  0  0  0  0  0  0  0  0
   23.3384   -3.9379   50.3169 C   0  0  2  0  0  0  0  0  0  0  0  0
   22.1437   -4.8712   50.0690 C   0  0  1  0  0  0  0  0  0  0  0  0
   20.8128   -4.1428   50.5005 C   0  0  0  0  0  0  0  0  0  0  0  0
   20.9063   -3.7922   52.0376 C   0  0  2  0  0  0  0  0  0  0  0  0
   22.0835   -5.1873   48.6515 N   0  0  0  0  0  0  0  0  0  0  0  0
   19.6771   -3.0829   52.4800 N   0  0  0  0  0  0  0  0  0  0  0  0
   24.5635   -2.7227   52.0834 O   0  0  0  0  0  0  0  0  0  0  0  0
   24.5123   -4.5966   49.9214 O   0  0  0  0  0  0  0  0  0  0  0  0
  1  2  1  0  0  0  0
  1 12  1  1  0  0  0
  1 13  1  0  0  0  0
  2  3  1  0  0  0  0
  2 10  1  1  0  0  0
  4  3  1  1  0  0  0
  4  5  1  0  0  0  0
  4 14  1  0  0  0  0
  5  6  1  0  0  0  0
  5 13  1  6  0  0  0
  6  7  1  0  0  0  0
  6 15  1  1  0  0  0
  7  8  1  0  0  0  0
  7 11  1  6  0  0  0
  8 14  1  0  0  0  0
  8 16  1  1  0  0  0
  9 11  1  0  0  0  0
 17 16  1  6  0  0  0
 17 18  1  0  0  0  0
 17 24  1  0  0  0  0
 18 19  1  0  0  0  0
 18 25  1  6  0  0  0
 19 20  1  0  0  0  0
 19 26  1  1  0  0  0
 20 21  1  0  0  0  0
 20 23  1  6  0  0  0
 21 22  1  1  0  0  0
 21 24  1  0  0  0  0
 22 27  1  0  0  0  0
 28 12  1  1  0  0  0
 28 29  1  0  0  0  0
 28 33  1  0  0  0  0
 29 30  1  0  0  0  0
 29 36  1  6  0  0  0
 30 31  1  0  0  0  0
 30 37  1  1  0  0  0
 31 32  1  0  0  0  0
 31 34  1  6  0  0  0
 32 33  1  0  0  0  0
 33 35  1  6  0  0  0
M  END
>  <CHROM.1>
-162.09472758,-73.25765340,-165.43545401,-156.41288493,172.85152529,80.34275484
20.14351239,-0.01881919,55.16751395,-0.42580169,0.99737086,-0.25925113

>  <Name>
2oe5_lig

>  <RI>
0

>  <Rbt.Current_Directory>
/home/itssahil/PROJECTS/Mol_Feturizer/New_Systems/rnas/2oe5

>  <Rbt.Executable>
rbdock ($Id: //depot/dev/client3/rdock/2013.1/src/exe/rbdock.cxx#4 $)

>  <Rbt.Library>
libRbt.so (2013.1, Build901 2013/11/27)

>  <Rbt.Parameter_File>
/export/apps/rDock/src/rDock_2013.1_src/data/scripts/dock_solv.prm

>  <Rbt.Receptor>
prm/pocket_docking_8.prm

>  <SCORE>
-22.5459

>  <SCORE.INTER>
-18.2059

>  <SCORE.INTER.CONST>
1

>  <SCORE.INTER.POLAR>
-2.35042

>  <SCORE.INTER.ROT>
6

>  <SCORE.INTER.SOLV>
21.0332

>  <SCORE.INTER.VDW>
-18.9136

>  <SCORE.INTER.norm>
-0.492052

>  <SCORE.INTRA>
-4.33998

>  <SCORE.INTRA.DIHEDRAL>
-9.07834

>  <SCORE.INTRA.DIHEDRAL.0>
16.2083

>  <SCORE.INTRA.POLAR>
0

>  <SCORE.INTRA.POLAR.0>
0

>  <SCORE.INTRA.REPUL>
0

>  <SCORE.INTRA.REPUL.0>
0

>  <SCORE.INTRA.SOLV>
-1.5289

>  <SCORE.INTRA.SOLV.lig_0>
-89.8095

>  <SCORE.INTRA.VDW>
0.963636

>  <SCORE.INTRA.VDW.0>
-3.19502

>  <SCORE.INTRA.norm>
-0.117297

>  <SCORE.RESTR>
0

>  <SCORE.RESTR.CAVITY>
0

>  <SCORE.RESTR.norm>
0

>  <SCORE.SYSTEM>
0

>  <SCORE.SYSTEM.CONST>
0

>  <SCORE.SYSTEM.DIHEDRAL>
0

>  <SCORE.SYSTEM.SOLV>
0

>  <SCORE.SYSTEM.norm>
0

>  <SCORE.heavy>
37

>  <SCORE.norm>
-0.609349

>  <RMSD>
10.007

$$$$
2oe5_lig
 OpenBabel11021811463D
libRbt.so/2013.1/901 2013/11/27
 37 40  0  0  0  0  0  0  0  0999 V2000
   22.8741   -2.1004   52.8108 C   0  0  1  0  0  0  0  0  0  0  0  0
   23.3195   -2.4563   54.2469 C   0  0  1  0  0  0  0  0  0  0  0  0
   22.1914   -2.0346   55.2601 C   0  0  0  0  0  0  0  0  0  0  0  0
   22.0139   -0.5124   55.0627 C   0  0  1  0  0  0  0  0  0  0  0  0
   21.5598   -0.1638   53.5766 C   0  0  1  0  0  0  0  0  0  0  0  0
   21.3684    1.3620   53.3586 C   0  0  1  0  0  0  0  0  0  0  0  0
   20.2841    1.8296   54.3707 C   0  0  1  0  0  0  0  0  0  0  0  0
   20.7514    1.4261   55.8205 C   0  0  2  0  0  0  0  0  0  0  0  0
   19.1383    3.8881   53.2251 C   0  0  0  0  0  0  0  0  0  0  0  0
   23.5601   -3.9136   54.3555 N   0  0  0  0  0  0  0  0  0  0  0  0
   20.0709    3.3219   54.2613 N   0  0  0  0  0  0  0  0  0  0  0  0
   21.6979   -2.8261   52.4174 O   0  0  0  0  0  0  0  0  0  0  0  0
   22.5834   -0.6669   52.6582 O   0  0  0  0  0  0  0  0  0  0  0  0
   20.9855   -0.0238   55.9650 O   0  0  0  0  0  0  0  0  0  0  0  0
   22.6264    2.0022   53.5948 O   0  0  0  0  0  0  0  0  0  0  0  0
   19.7593    1.7795   56.7640 O   0  0  0  0  0  0  0  0  0  0  0  0
   20.2722    1.6652   58.0781 C   0  0  2  0  0  0  0  0  0  0  0  0
   19.5053    0.6408   58.9136 C   0  0  1  0  0  0  0  0  0  0  0  0
   18.0309    1.0812   59.1266 C   0  0  2  0  0  0  0  0  0  0  0  0
   18.0536    2.4837   59.8037 C   0  0  1  0  0  0  0  0  0  0  0  0
   18.8154    3.4694   58.8580 C   0  0  1  0  0  0  0  0  0  0  0  0
   18.9446    4.8587   59.4416 C   0  0  0  0  0  0  0  0  0  0  0  0
   16.6227    2.9203   60.0181 N   0  0  0  0  0  0  0  0  0  0  0  0
   20.1915    2.9794   58.7140 O   0  0  0  0  0  0  0  0  0  0  0  0
   19.5685   -0.6201   58.2181 O   0  0  0  0  0  0  0  0  0  0  0  0
   17.4044    0.1308   60.0071 O   0  0  0  0  0  0  0  0  0  0  0  0
   19.6548    4.8582   60.6324 O   0  0  0  0  0  0  0  0  0  0  0  0
   21.1618   -2.4304   51.1546 C   0  0  1  0  0  0  0  0  0  0  0  0
   22.2065   -2.7183   50.0176 C   0  0  1  0  0  0  0  0  0  0  0  0
   21.5896   -2.2877   48.6383 C   0  0  2  0  0  0  0  0  0  0  0  0
   20.3128   -3.1010   48.3768 C   0  0  1  0  0  0  0  0  0  0  0  0
   19.2594   -2.7998   49.5116 C   0  0  0  0  0  0  0  0  0  0  0  0
   19.8831   -3.2174   50.9012 C   0  0  2  0  0  0  0  0  0  0  0  0
   19.7628   -2.7068   47.0903 N   0  0  0  0  0  0  0  0  0  0  0  0
   18.9275   -2.9283   52.0026 N   0  0  0  0  0  0  0  0  0  0  0  0
   23.4193   -1.9496   50.2619 O   0  0  0  0  0  0  0  0  0  0  0  0
   22.5125   -2.5604   47.6175 O   0  0  0  0  0  0  0  0  0  0  0  0
  1  2  1  0  0  0  0
  1 12  1  1  0  0  0
  1 13  1  0  0  0  0
  2  3  1  0  0  0  0
  2 10  1  6  0  0  0
  4  3  1  6  0  0  0
  4  5  1  0  0  0  0
  4 14  1  0  0  0  0
  5  6  1  0  0  0  0
  5 13  1  6  0  0  0
  6  7  1  0  0  0  0
  6 15  1  1  0  0  0
  7  8  1  0  0  0  0
  7 11  1  1  0  0  0
  8 14  1  0  0  0  0
  8 16  1  1  0  0  0
  9 11  1  0  0  0  0
 17 16  1  6  0  0  0
 17 18  1  0  0  0  0
 17 24  1  0  0  0  0
 18 19  1  0  0  0  0
 18 25  1  6  0  0  0
 19 20  1  0  0  0  0
 19 26  1  1  0  0  0
 20 21  1  0  0  0  0
 20 23  1  6  0  0  0
 21 22  1  1  0  0  0
 21 24  1  0  0  0  0
 22 27  1  0  0  0  0
 28 12  1  1  0  0  0
 28 29  1  0  0  0  0
 28 33  1  0  0  0  0
 29 30  1  0  0  0  0
 29 36  1  1  0  0  0
 30 31  1  0  0  0  0
 30 37  1  6  0  0  0
 31 32  1  0  0  0  0
 31 34  1  6  0  0  0
 32 33  1  0  0  0  0
 33 35  1  1  0  0  0
M  END
>  <CHROM.1>
173.66777970,84.31118855,-168.54890177,-118.79547827,60.94113147,62.75564592
20.57297696,-0.00637300,54.49529815,-0.80002682,-1.21929313,1.79130856

>  <Name>
2oe5_lig

>  <RI>
0

>  <Rbt.Current_Directory>
/home/itssahil/PROJECTS/Mol_Feturizer/New_Systems/rnas/2oe5

>  <Rbt.Executable>
rbdock ($Id: //depot/dev/client3/rdock/2013.1/src/exe/rbdock.cxx#4 $)

>  <Rbt.Library>
libRbt.so (2013.1, Build901 2013/11/27)

>  <Rbt.Parameter_File>
/export/apps/rDock/src/rDock_2013.1_src/data/scripts/dock_solv.prm

>  <Rbt.Receptor>
prm/pocket_docking_7.prm

>  <SCORE>
-16.6136

>  <SCORE.INTER>
-13.4914

>  <SCORE.INTER.CONST>
1

>  <SCORE.INTER.POLAR>
-2.01747

>  <SCORE.INTER.ROT>
6

>  <SCORE.INTER.SOLV>
19.4307

>  <SCORE.INTER.VDW>
-16.3463

>  <SCORE.INTER.norm>
-0.364633

>  <SCORE.INTRA>
-3.12223

>  <SCORE.INTRA.DIHEDRAL>
-7.64788

>  <SCORE.INTRA.DIHEDRAL.0>
16.2083

>  <SCORE.INTRA.POLAR>
0

>  <SCORE.INTRA.POLAR.0>
0

>  <SCORE.INTRA.REPUL>
0

>  <SCORE.INTRA.REPUL.0>
0

>  <SCORE.INTRA.SOLV>
-2.4009

>  <SCORE.INTRA.SOLV.lig_0>
-89.8095

>  <SCORE.INTRA.VDW>
1.90216

>  <SCORE.INTRA.VDW.0>
-3.19502

>  <SCORE.INTRA.norm>
-0.0843846

>  <SCORE.RESTR>
0

>  <SCORE.RESTR.CAVITY>
0

>  <SCORE.RESTR.norm>
0

>  <SCORE.SYSTEM>
0

>  <SCORE.SYSTEM.CONST>
0

>  <SCORE.SYSTEM.DIHEDRAL>
0

>  <SCORE.SYSTEM.SOLV>
0

>  <SCORE.SYSTEM.norm>
0

>  <SCORE.heavy>
37

>  <SCORE.norm>
-0.449018

>  <RMSD>
10.013

$$$$
2oe5_lig
 OpenBabel11021811463D
libRbt.so/2013.1/901 2013/11/27
 37 40  0  0  0  0  0  0  0  0999 V2000
   19.8375   -1.3553   51.8839 C   0  0  1  0  0  0  0  0  0  0  0  0
   20.5074   -0.3144   50.9591 C   0  0  1  0  0  0  0  0  0  0  0  0
   21.7794    0.2742   51.6752 C   0  0  0  0  0  0  0  0  0  0  0  0
   21.2551    0.9058   52.9842 C   0  0  1  0  0  0  0  0  0  0  0  0
   20.5638   -0.1799   53.9223 C   0  0  1  0  0  0  0  0  0  0  0  0
   20.0358    0.4334   55.2479 C   0  0  1  0  0  0  0  0  0  0  0  0
   21.2596    1.0622   55.9728 C   0  0  1  0  0  0  0  0  0  0  0  0
   21.9388    2.0950   54.9954 C   0  0  2  0  0  0  0  0  0  0  0  0
   20.7038    0.9378   58.5298 C   0  0  0  0  0  0  0  0  0  0  0  0
   20.9104   -0.9541   49.6856 N   0  0  0  0  0  0  0  0  0  0  0  0
   20.8243    1.7305   57.2567 N   0  0  0  0  0  0  0  0  0  0  0  0
   20.6985   -2.4758   52.1445 O   0  0  0  0  0  0  0  0  0  0  0  0
   19.4524   -0.7798   53.1813 O   0  0  0  0  0  0  0  0  0  0  0  0
   22.3653    1.4840   53.7215 O   0  0  0  0  0  0  0  0  0  0  0  0
   19.0514    1.4181   54.9167 O   0  0  0  0  0  0  0  0  0  0  0  0
   23.0950    2.6422   55.5977 O   0  0  0  0  0  0  0  0  0  0  0  0
   23.6174    3.6841   54.7949 C   0  0  2  0  0  0  0  0  0  0  0  0
   24.9986    4.1410   55.2631 C   0  0  1  0  0  0  0  0  0  0  0  0
   24.9314    4.7644   56.6844 C   0  0  2  0  0  0  0  0  0  0  0  0
   23.9158    5.9441   56.6315 C   0  0  1  0  0  0  0  0  0  0  0  0
   22.5282    5.3734   56.1896 C   0  0  1  0  0  0  0  0  0  0  0  0
   21.4705    6.4458   56.0532 C   0  0  0  0  0  0  0  0  0  0  0  0
   23.8452    6.5598   58.0099 N   0  0  0  0  0  0  0  0  0  0  0  0
   22.6837    4.8082   54.8439 O   0  0  0  0  0  0  0  0  0  0  0  0
   25.8641    2.9885   55.2491 O   0  0  0  0  0  0  0  0  0  0  0  0
   26.2388    5.2682   57.0127 O   0  0  0  0  0  0  0  0  0  0  0  0
   21.8339    7.4206   55.1364 O   0  0  0  0  0  0  0  0  0  0  0  0
   20.6908   -3.4699   51.1196 C   0  0  1  0  0  0  0  0  0  0  0  0
   22.0558   -4.2468   51.1194 C   0  0  1  0  0  0  0  0  0  0  0  0
   22.0180   -5.3423   49.9939 C   0  0  2  0  0  0  0  0  0  0  0  0
   20.8716   -6.3242   50.2790 C   0  0  1  0  0  0  0  0  0  0  0  0
   19.5001   -5.5451   50.2646 C   0  0  0  0  0  0  0  0  0  0  0  0
   19.5413   -4.4328   51.3851 C   0  0  2  0  0  0  0  0  0  0  0  0
   20.8593   -7.3425   49.2417 N   0  0  0  0  0  0  0  0  0  0  0  0
   18.2720   -3.6590   51.3899 N   0  0  0  0  0  0  0  0  0  0  0  0
   23.1461   -3.3194   50.8501 O   0  0  0  0  0  0  0  0  0  0  0  0
   23.2287   -6.0511   50.0024 O   0  0  0  0  0  0  0  0  0  0  0  0
  1  2  1  0  0  0  0
  1 12  1  1  0  0  0
  1 13  1  0  0  0  0
  2  3  1  0  0  0  0
  2 10  1  6  0  0  0
  4  3  1  6  0  0  0
  4  5  1  0  0  0  0
  4 14  1  0  0  0  0
  5  6  1  0  0  0  0
  5 13  1  6  0  0  0
  6  7  1  0  0  0  0
  6 15  1  6  0  0  0
  7  8  1  0  0  0  0
  7 11  1  1  0  0  0
  8 14  1  0  0  0  0
  8 16  1  1  0  0  0
  9 11  1  0  0  0  0
 17 16  1  1  0  0  0
 17 18  1  0  0  0  0
 17 24  1  0  0  0  0
 18 19  1  0  0  0  0
 18 25  1  1  0  0  0
 19 20  1  0  0  0  0
 19 26  1  6  0  0  0
 20 21  1  0  0  0  0
 20 23  1  1  0  0  0
 21 22  1  6  0  0  0
 21 24  1  0  0  0  0
 22 27  1  0  0  0  0
 28 12  1  1  0  0  0
 28 29  1  0  0  0  0
 28 33  1  0  0  0  0
 29 30  1  0  0  0  0
 29 36  1  6  0  0  0
 30 31  1  0  0  0  0
 30 37  1  1  0  0  0
 31 32  1  0  0  0  0
 31 34  1  6  0  0  0
 32 33  1  0  0  0  0
 33 35  1  6  0  0  0
M  END
>  <CHROM.1>
-82.43442441,85.82400574,-172.99425263,-169.68583697,58.44638096,153.41207372
21.82206550,0.43727086,53.65091759,1.79658596,-0.20379511,-2.55540559

>  <Name>
2oe5_lig

>  <RI>
0

>  <Rbt.Current_Directory>
/home/itssahil/PROJECTS/Mol_Feturizer/New_Systems/rnas/2oe5

>  <Rbt.Executable>
rbdock ($Id: //depot/dev/client3/rdock/2013.1/src/exe/rbdock.cxx#4 $)

>  <Rbt.Library>
libRbt.so (2013.1, Build901 2013/11/27)

>  <Rbt.Parameter_File>
/export/apps/rDock/src/rDock_2013.1_src/data/scripts/dock_solv.prm

>  <Rbt.Receptor>
prm/pocket_docking_7.prm

>  <SCORE>
-15.622

>  <SCORE.INTER>
-12.0216

>  <SCORE.INTER.CONST>
1

>  <SCORE.INTER.POLAR>
-1.33155

>  <SCORE.INTER.ROT>
6

>  <SCORE.INTER.SOLV>
14.2092

>  <SCORE.INTER.VDW>
-15.9123

>  <SCORE.INTER.norm>
-0.324909

>  <SCORE.INTRA>
-3.60042

>  <SCORE.INTRA.DIHEDRAL>
-9.73994

>  <SCORE.INTRA.DIHEDRAL.0>
16.2083

>  <SCORE.INTRA.POLAR>
0

>  <SCORE.INTRA.POLAR.0>
0

>  <SCORE.INTRA.REPUL>
0

>  <SCORE.INTRA.REPUL.0>
0

>  <SCORE.INTRA.SOLV>
0.893696

>  <SCORE.INTRA.SOLV.lig_0>
-89.8095

>  <SCORE.INTRA.VDW>
0.822706

>  <SCORE.INTRA.VDW.0>
-3.19502

>  <SCORE.INTRA.norm>
-0.0973085

>  <SCORE.RESTR>
0

>  <SCORE.RESTR.CAVITY>
0

>  <SCORE.RESTR.norm>
0

>  <SCORE.SYSTEM>
0

>  <SCORE.SYSTEM.CONST>
0

>  <SCORE.SYSTEM.DIHEDRAL>
0

>  <SCORE.SYSTEM.SOLV>
0

>  <SCORE.SYSTEM.norm>
0

>  <SCORE.heavy>
37

>  <SCORE.norm>
-0.422217

>  <RMSD>
10.017

$$$$
2oe5_lig
 OpenBabel11021811463D
libRbt.so/2013.1/901 2013/11/27
 37 40  0  0  0  0  0  0  0  0999 V2000
   19.6754   -2.3588   49.4188 C   0  0  1  0  0  0  0  0  0  0  0  0
   20.8967   -3.1330   49.9632 C   0  0  1  0  0  0  0  0  0  0  0  0
   20.7871   -3.2410   51.5296 C   0  0  0  0  0  0  0  0  0  0  0  0
   20.7452   -1.7822   52.0371 C   0  0  1  0  0  0  0  0  0  0  0  0
   19.4835   -0.9984   51.4625 C   0  0  1  0  0  0  0  0  0  0  0  0
   19.4184    0.4692   51.9668 C   0  0  1  0  0  0  0  0  0  0  0  0
   19.3471    0.4098   53.5192 C   0  0  1  0  0  0  0  0  0  0  0  0
   20.5868   -0.4106   54.0421 C   0  0  2  0  0  0  0  0  0  0  0  0
   19.0019    2.9908   53.2330 C   0  0  0  0  0  0  0  0  0  0  0  0
   20.9363   -4.4925   49.3769 N   0  0  0  0  0  0  0  0  0  0  0  0
   19.3322    1.8056   54.0990 N   0  0  0  0  0  0  0  0  0  0  0  0
   18.4417   -3.0467   49.6824 O   0  0  0  0  0  0  0  0  0  0  0  0
   19.5664   -1.0125   50.0006 O   0  0  0  0  0  0  0  0  0  0  0  0
   20.6463   -1.7765   53.4866 O   0  0  0  0  0  0  0  0  0  0  0  0
   20.5972    1.1433   51.5149 O   0  0  0  0  0  0  0  0  0  0  0  0
   20.5223   -0.5400   55.4486 O   0  0  0  0  0  0  0  0  0  0  0  0
   21.4459    0.3390   56.0629 C   0  0  2  0  0  0  0  0  0  0  0  0
   21.8310   -0.1146   57.4706 C   0  0  1  0  0  0  0  0  0  0  0  0
   20.6041   -0.0903   58.4231 C   0  0  2  0  0  0  0  0  0  0  0  0
   20.0329    1.3586   58.4152 C   0  0  1  0  0  0  0  0  0  0  0  0
   19.6261    1.7143   56.9474 C   0  0  1  0  0  0  0  0  0  0  0  0
   19.1030    3.1267   56.8105 C   0  0  0  0  0  0  0  0  0  0  0  0
   18.8396    1.3937   59.3420 N   0  0  0  0  0  0  0  0  0  0  0  0
   20.8391    1.6679   56.1222 O   0  0  0  0  0  0  0  0  0  0  0  0
   22.3712   -1.4467   57.3640 O   0  0  0  0  0  0  0  0  0  0  0  0
   21.0609   -0.4212   59.7471 O   0  0  0  0  0  0  0  0  0  0  0  0
   17.9169    3.3112   57.5046 O   0  0  0  0  0  0  0  0  0  0  0  0
   18.2206   -4.1887   48.8543 C   0  0  1  0  0  0  0  0  0  0  0  0
   17.4367   -5.2870   49.6582 C   0  0  1  0  0  0  0  0  0  0  0  0
   17.1941   -6.5262   48.7233 C   0  0  2  0  0  0  0  0  0  0  0  0
   16.3612   -6.0906   47.5083 C   0  0  1  0  0  0  0  0  0  0  0  0
   17.1559   -4.9980   46.6942 C   0  0  0  0  0  0  0  0  0  0  0  0
   17.4147   -3.7573   47.6365 C   0  0  2  0  0  0  0  0  0  0  0  0
   16.1279   -7.2490   46.6617 N   0  0  0  0  0  0  0  0  0  0  0  0
   18.1826   -2.7110   46.9115 N   0  0  0  0  0  0  0  0  0  0  0  0
   18.2227   -5.7027   50.8118 O   0  0  0  0  0  0  0  0  0  0  0  0
   16.4778   -7.5025   49.4319 O   0  0  0  0  0  0  0  0  0  0  0  0
  1  2  1  0  0  0  0
  1 12  1  1  0  0  0
  1 13  1  0  0  0  0
  2  3  1  0  0  0  0
  2 10  1  6  0  0  0
  4  3  1  6  0  0  0
  4  5  1  0  0  0  0
  4 14  1  0  0  0  0
  5  6  1  0  0  0  0
  5 13  1  6  0  0  0
  6  7  1  0  0  0  0
  6 15  1  1  0  0  0
  7  8  1  0  0  0  0
  7 11  1  1  0  0  0
  8 14  1  0  0  0  0
  8 16  1  1  0  0  0
  9 11  1  0  0  0  0
 17 16  1  1  0  0  0
 17 18  1  0  0  0  0
 17 24  1  0  0  0  0
 18 19  1  0  0  0  0
 18 25  1  6  0  0  0
 19 20  1  0  0  0  0
 19 26  1  1  0  0  0
 20 21  1  0  0  0  0
 20 23  1  1  0  0  0
 21 22  1  1  0  0  0
 21 24  1  0  0  0  0
 22 27  1  0  0  0  0
 28 12  1  1  0  0  0
 28 29  1  0  0  0  0
 28 33  1  0  0  0  0
 29 30  1  0  0  0  0
 29 36  1  1  0  0  0
 30 31  1  0  0  0  0
 30 37  1  1  0  0  0
 31 32  1  0  0  0  0
 31 34  1  6  0  0  0
 32 33  1  0  0  0  0
 33 35  1  6  0  0  0
M  END
>  <CHROM.1>
-74.42204771,17.02312497,-104.18018763,-157.28190411,-64.93117243,146.80493494
19.37452808,-1.57486756,52.69756828,2.70668355,1.32491819,2.97164280

>  <Name>
2oe5_lig

>  <RI>
0

>  <Rbt.Current_Directory>
/home/itssahil/PROJECTS/Mol_Feturizer/New_Systems/rnas/2oe5

>  <Rbt.Executable>
rbdock ($Id: //depot/dev/client3/rdock/2013.1/src/exe/rbdock.cxx#4 $)

>  <Rbt.Library>
libRbt.so (2013.1, Build901 2013/11/27)

>  <Rbt.Parameter_File>
/export/apps/rDock/src/rDock_2013.1_src/data/scripts/dock_solv.prm

>  <Rbt.Receptor>
prm/pocket_docking_3.prm

>  <SCORE>
-17.845

>  <SCORE.INTER>
-22.0946

>  <SCORE.INTER.CONST>
1

>  <SCORE.INTER.POLAR>
-1.89848

>  <SCORE.INTER.ROT>
6

>  <SCORE.INTER.SOLV>
15.0438

>  <SCORE.INTER.VDW>
-21.0161

>  <SCORE.INTER.norm>
-0.597151

>  <SCORE.INTRA>
3.66337

>  <SCORE.INTRA.DIHEDRAL>
-1.63368

>  <SCORE.INTRA.DIHEDRAL.0>
16.2083

>  <SCORE.INTRA.POLAR>
0

>  <SCORE.INTRA.POLAR.0>
0

>  <SCORE.INTRA.REPUL>
0

>  <SCORE.INTRA.REPUL.0>
0

>  <SCORE.INTRA.SOLV>
3.7019

>  <SCORE.INTRA.SOLV.lig_0>
-89.8095

>  <SCORE.INTRA.VDW>
2.62926

>  <SCORE.INTRA.VDW.0>
-3.19502

>  <SCORE.INTRA.norm>
0.09901

>  <SCORE.RESTR>
0.586228

>  <SCORE.RESTR.CAVITY>
0.586228

>  <SCORE.RESTR.norm>
0.015844

>  <SCORE.SYSTEM>
0

>  <SCORE.SYSTEM.CONST>
0

>  <SCORE.SYSTEM.DIHEDRAL>
0

>  <SCORE.SYSTEM.SOLV>
0

>  <SCORE.SYSTEM.norm>
0

>  <SCORE.heavy>
37

>  <SCORE.norm>
-0.482297

>  <RMSD>
10.018

$$$$
2oe5_lig
 OpenBabel11021811463D
libRbt.so/2013.1/901 2013/11/27
 37 40  0  0  0  0  0  0  0  0999 V2000
   19.6990   -2.6199   49.3497 C   0  0  1  0  0  0  0  0  0  0  0  0
   20.8564   -3.4248   49.9823 C   0  0  1  0  0  0  0  0  0  0  0  0
   20.7335   -3.3663   51.5503 C   0  0  0  0  0  0  0  0  0  0  0  0
   20.8002   -1.8648   51.9090 C   0  0  1  0  0  0  0  0  0  0  0  0
   19.6034   -1.0505   51.2450 C   0  0  1  0  0  0  0  0  0  0  0  0
   19.6477    0.4611   51.5992 C   0  0  1  0  0  0  0  0  0  0  0  0
   19.5667    0.5635   53.1489 C   0  0  1  0  0  0  0  0  0  0  0  0
   20.7390   -0.2906   53.7649 C   0  0  2  0  0  0  0  0  0  0  0  0
   18.6058    2.6009   54.4863 C   0  0  0  0  0  0  0  0  0  0  0  0
   20.7951   -4.8354   49.5353 N   0  0  0  0  0  0  0  0  0  0  0  0
   19.6553    2.0077   53.5861 N   0  0  0  0  0  0  0  0  0  0  0  0
   18.4159   -3.1836   49.6671 O   0  0  0  0  0  0  0  0  0  0  0  0
   19.6901   -1.2177   49.7928 O   0  0  0  0  0  0  0  0  0  0  0  0
   20.6970   -1.7061   53.3494 O   0  0  0  0  0  0  0  0  0  0  0  0
   20.8757    0.9961   51.0953 O   0  0  0  0  0  0  0  0  0  0  0  0
   20.6600   -0.2729   55.1765 O   0  0  0  0  0  0  0  0  0  0  0  0
   21.9510   -0.1209   55.7361 C   0  0  2  0  0  0  0  0  0  0  0  0
   21.9942   -0.5153   57.2119 C   0  0  1  0  0  0  0  0  0  0  0  0
   21.1037    0.4247   58.0702 C   0  0  2  0  0  0  0  0  0  0  0  0
   21.6047    1.8818   57.8430 C   0  0  1  0  0  0  0  0  0  0  0  0
   21.4799    2.2081   56.3185 C   0  0  1  0  0  0  0  0  0  0  0  0
   21.9901    3.5889   55.9714 C   0  0  0  0  0  0  0  0  0  0  0  0
   20.7460    2.8047   58.6766 N   0  0  0  0  0  0  0  0  0  0  0  0
   22.3494    1.2781   55.5881 O   0  0  0  0  0  0  0  0  0  0  0  0
   21.5415   -1.8804   57.3091 O   0  0  0  0  0  0  0  0  0  0  0  0
   21.2783    0.0648   59.4526 O   0  0  0  0  0  0  0  0  0  0  0  0
   21.2105    4.5878   56.5345 O   0  0  0  0  0  0  0  0  0  0  0  0
   17.8945   -4.0532   48.6618 C   0  0  1  0  0  0  0  0  0  0  0  0
   18.4283   -3.6177   47.2503 C   0  0  1  0  0  0  0  0  0  0  0  0
   17.8525   -4.5960   46.1641 C   0  0  2  0  0  0  0  0  0  0  0  0
   18.3221   -6.0265   46.4688 C   0  0  1  0  0  0  0  0  0  0  0  0
   17.7732   -6.4676   47.8803 C   0  0  0  0  0  0  0  0  0  0  0  0
   18.3382   -5.4763   48.9723 C   0  0  2  0  0  0  0  0  0  0  0  0
   17.7986   -6.9180   45.4469 N   0  0  0  0  0  0  0  0  0  0  0  0
   17.8251   -5.8454   50.3179 N   0  0  0  0  0  0  0  0  0  0  0  0
   17.9859   -2.2613   46.9575 O   0  0  0  0  0  0  0  0  0  0  0  0
   18.3418   -4.2217   44.9037 O   0  0  0  0  0  0  0  0  0  0  0  0
  1  2  1  0  0  0  0
  1 12  1  1  0  0  0
  1 13  1  0  0  0  0
  2  3  1  0  0  0  0
  2 10  1  6  0  0  0
  4  3  1  1  0  0  0
  4  5  1  0  0  0  0
  4 14  1  0  0  0  0
  5  6  1  0  0  0  0
  5 13  1  6  0  0  0
  6  7  1  0  0  0  0
  6 15  1  1  0  0  0
  7  8  1  0  0  0  0
  7 11  1  6  0  0  0
  8 14  1  0  0  0  0
  8 16  1  1  0  0  0
  9 11  1  0  0  0  0
 17 16  1  1  0  0  0
 17 18  1  0  0  0  0
 17 24  1  0  0  0  0
 18 19  1  0  0  0  0
 18 25  1  6  0  0  0
 19 20  1  0  0  0  0
 19 26  1  1  0  0  0
 20 21  1  0  0  0  0
 20 23  1  1  0  0  0
 21 22  1  1  0  0  0
 21 24  1  0  0  0  0
 22 27  1  0  0  0  0
 28 12  1  1  0  0  0
 28 29  1  0  0  0  0
 28 33  1  0  0  0  0
 29 30  1  0  0  0  0
 29 36  1  6  0  0  0
 30 31  1  0  0  0  0
 30 37  1  6  0  0  0
 31 32  1  0  0  0  0
 31 34  1  6  0  0  0
 32 33  1  0  0  0  0
 33 35  1  1  0  0  0
M  END
>  <CHROM.1>
-96.19761017,126.62110601,-138.14656853,-162.53998620,-66.13770637,-29.08132640
19.97837956,-1.37037511,52.22140221,2.58785432,1.28203251,3.12469470

>  <Name>
2oe5_lig

>  <RI>
0

>  <Rbt.Current_Directory>
/home/itssahil/PROJECTS/Mol_Feturizer/New_Systems/rnas/2oe5

>  <Rbt.Executable>
rbdock ($Id: //depot/dev/client3/rdock/2013.1/src/exe/rbdock.cxx#4 $)

>  <Rbt.Library>
libRbt.so (2013.1, Build901 2013/11/27)

>  <Rbt.Parameter_File>
/export/apps/rDock/src/rDock_2013.1_src/data/scripts/dock_solv.prm

>  <Rbt.Receptor>
prm/pocket_docking_3.prm

>  <SCORE>
-10.6466

>  <SCORE.INTER>
-15.6826

>  <SCORE.INTER.CONST>
1

>  <SCORE.INTER.POLAR>
-1.93796

>  <SCORE.INTER.ROT>
6

>  <SCORE.INTER.SOLV>
10.9356

>  <SCORE.INTER.VDW>
-15.2404

>  <SCORE.INTER.norm>
-0.423855

>  <SCORE.INTRA>
5.0235

>  <SCORE.INTRA.DIHEDRAL>
0.702515

>  <SCORE.INTRA.DIHEDRAL.0>
16.2083

>  <SCORE.INTRA.POLAR>
0

>  <SCORE.INTRA.POLAR.0>
0

>  <SCORE.INTRA.REPUL>
0

>  <SCORE.INTRA.REPUL.0>
0

>  <SCORE.INTRA.SOLV>
4.22144

>  <SCORE.INTRA.SOLV.lig_0>
-89.8095

>  <SCORE.INTRA.VDW>
2.56152

>  <SCORE.INTRA.VDW.0>
-3.19502

>  <SCORE.INTRA.norm>
0.13577

>  <SCORE.RESTR>
0.0125744

>  <SCORE.RESTR.CAVITY>
0.0125744

>  <SCORE.RESTR.norm>
0.000339849

>  <SCORE.SYSTEM>
0

>  <SCORE.SYSTEM.CONST>
0

>  <SCORE.SYSTEM.DIHEDRAL>
0

>  <SCORE.SYSTEM.SOLV>
0

>  <SCORE.SYSTEM.norm>
0

>  <SCORE.heavy>
37

>  <SCORE.norm>
-0.287745

>  <RMSD>
10.020

$$$$
2oe5_lig
 OpenBabel11021811463D
libRbt.so/2013.1/901 2013/11/27
 37 40  0  0  0  0  0  0  0  0999 V2000
   19.7495   -2.4230   49.6024 C   0  0  1  0  0  0  0  0  0  0  0  0
   20.9247   -3.1225   50.3213 C   0  0  1  0  0  0  0  0  0  0  0  0
   20.7016   -3.0454   51.8774 C   0  0  0  0  0  0  0  0  0  0  0  0
   20.6293   -1.5371   52.2049 C   0  0  1  0  0  0  0  0  0  0  0  0
   19.4161   -0.8319   51.4521 C   0  0  1  0  0  0  0  0  0  0  0  0
   19.3210    0.6846   51.7736 C   0  0  1  0  0  0  0  0  0  0  0  0
   19.1372    0.8085   53.3130 C   0  0  1  0  0  0  0  0  0  0  0  0
   20.3322    0.0607   54.0174 C   0  0  2  0  0  0  0  0  0  0  0  0
   18.4155    2.6750   55.0036 C   0  0  0  0  0  0  0  0  0  0  0  0
   21.0007   -4.5414   49.9038 N   0  0  0  0  0  0  0  0  0  0  0  0
   19.0865    2.2628   53.7215 N   0  0  0  0  0  0  0  0  0  0  0  0
   18.4969   -3.0803   49.8552 O   0  0  0  0  0  0  0  0  0  0  0  0
   19.6045   -1.0180   50.0119 O   0  0  0  0  0  0  0  0  0  0  0  0
   20.4258   -1.3609   53.6326 O   0  0  0  0  0  0  0  0  0  0  0  0
   20.5324    1.3057   51.3320 O   0  0  0  0  0  0  0  0  0  0  0  0
   20.1654    0.0978   55.4209 O   0  0  0  0  0  0  0  0  0  0  0  0
   21.4268    0.1267   56.0621 C   0  0  2  0  0  0  0  0  0  0  0  0
   21.4734   -0.7781   57.2928 C   0  0  1  0  0  0  0  0  0  0  0  0
   20.4879   -0.2864   58.3883 C   0  0  2  0  0  0  0  0  0  0  0  0
   20.8663    1.1844   58.7335 C   0  0  1  0  0  0  0  0  0  0  0  0
   20.7452    2.0381   57.4286 C   0  0  1  0  0  0  0  0  0  0  0  0
   21.1417    3.4829   57.6350 C   0  0  0  0  0  0  0  0  0  0  0  0
   19.9143    1.6717   59.8015 N   0  0  0  0  0  0  0  0  0  0  0  0
   21.7063    1.5072   56.4545 O   0  0  0  0  0  0  0  0  0  0  0  0
   21.1380   -2.1123   56.8627 O   0  0  0  0  0  0  0  0  0  0  0  0
   20.6643   -1.1153   59.5514 O   0  0  0  0  0  0  0  0  0  0  0  0
   22.4718    3.6089   58.0062 O   0  0  0  0  0  0  0  0  0  0  0  0
   18.2353   -4.1905   48.9963 C   0  0  1  0  0  0  0  0  0  0  0  0
   17.4528   -5.3016   49.7837 C   0  0  1  0  0  0  0  0  0  0  0  0
   17.1654   -6.5051   48.8155 C   0  0  2  0  0  0  0  0  0  0  0  0
   16.3101   -6.0159   47.6370 C   0  0  1  0  0  0  0  0  0  0  0  0
   17.1031   -4.9104   46.8388 C   0  0  0  0  0  0  0  0  0  0  0  0
   17.4069   -3.7058   47.8141 C   0  0  2  0  0  0  0  0  0  0  0  0
   16.0357   -7.1418   46.7594 N   0  0  0  0  0  0  0  0  0  0  0  0
   18.1746   -2.6492   47.1042 N   0  0  0  0  0  0  0  0  0  0  0  0
   18.2600   -5.7681   50.9028 O   0  0  0  0  0  0  0  0  0  0  0  0
   16.4502   -7.4922   49.5100 O   0  0  0  0  0  0  0  0  0  0  0  0
  1  2  1  0  0  0  0
  1 12  1  1  0  0  0
  1 13  1  0  0  0  0
  2  3  1  0  0  0  0
  2 10  1  6  0  0  0
  4  3  1  1  0  0  0
  4  5  1  0  0  0  0
  4 14  1  0  0  0  0
  5  6  1  0  0  0  0
  5 13  1  6  0  0  0
  6  7  1  0  0  0  0
  6 15  1  1  0  0  0
  7  8  1  0  0  0  0
  7 11  1  6  0  0  0
  8 14  1  0  0  0  0
  8 16  1  1  0  0  0
  9 11  1  0  0  0  0
 17 16  1  1  0  0  0
 17 18  1  0  0  0  0
 17 24  1  0  0  0  0
 18 19  1  0  0  0  0
 18 25  1  6  0  0  0
 19 20  1  0  0  0  0
 19 26  1  1  0  0  0
 20 21  1  0  0  0  0
 20 23  1  1  0  0  0
 21 22  1  1  0  0  0
 21 24  1  0  0  0  0
 22 27  1  0  0  0  0
 28 12  1  1  0  0  0
 28 29  1  0  0  0  0
 28 33  1  0  0  0  0
 29 30  1  0  0  0  0
 29 36  1  1  0  0  0
 30 31  1  0  0  0  0
 30 37  1  1  0  0  0
 31 32  1  0  0  0  0
 31 34  1  6  0  0  0
 32 33  1  0  0  0  0
 33 35  1  6  0  0  0
M  END
>  <CHROM.1>
-84.16794315,156.62874946,-148.33077661,-138.39588496,62.61344173,145.47666460
19.54782095,-1.53088265,52.85844093,-2.97648777,1.28446773,2.34568411

>  <Name>
2oe5_lig

>  <RI>
0

>  <Rbt.Current_Directory>
/home/itssahil/PROJECTS/Mol_Feturizer/New_Systems/rnas/2oe5

>  <Rbt.Executable>
rbdock ($Id: //depot/dev/client3/rdock/2013.1/src/exe/rbdock.cxx#4 $)

>  <Rbt.Library>
libRbt.so (2013.1, Build901 2013/11/27)

>  <Rbt.Parameter_File>
/export/apps/rDock/src/rDock_2013.1_src/data/scripts/dock_solv.prm

>  <Rbt.Receptor>
prm/pocket_docking_3.prm

>  <SCORE>
-18.2768

>  <SCORE.INTER>
-19.1663

>  <SCORE.INTER.CONST>
1

>  <SCORE.INTER.POLAR>
-1.91765

>  <SCORE.INTER.ROT>
6

>  <SCORE.INTER.SOLV>
16.8576

>  <SCORE.INTER.VDW>
-19.6046

>  <SCORE.INTER.norm>
-0.518008

>  <SCORE.INTRA>
0.235083

>  <SCORE.INTRA.DIHEDRAL>
0.767953

>  <SCORE.INTRA.DIHEDRAL.0>
16.2083

>  <SCORE.INTRA.POLAR>
0

>  <SCORE.INTRA.POLAR.0>
0

>  <SCORE.INTRA.REPUL>
0

>  <SCORE.INTRA.REPUL.0>
0

>  <SCORE.INTRA.SOLV>
1.05017

>  <SCORE.INTRA.SOLV.lig_0>
-89.8095

>  <SCORE.INTRA.VDW>
-0.673977

>  <SCORE.INTRA.VDW.0>
-3.19502

>  <SCORE.INTRA.norm>
0.00635359

>  <SCORE.RESTR>
0.65438

>  <SCORE.RESTR.CAVITY>
0.65438

>  <SCORE.RESTR.norm>
0.0176859

>  <SCORE.SYSTEM>
0

>  <SCORE.SYSTEM.CONST>
0

>  <SCORE.SYSTEM.DIHEDRAL>
0

>  <SCORE.SYSTEM.SOLV>
0

>  <SCORE.SYSTEM.norm>
0

>  <SCORE.heavy>
37

>  <SCORE.norm>
-0.493969

>  <RMSD>
10.025

$$$$
2oe5_lig
 OpenBabel11021811463D
libRbt.so/2013.1/901 2013/11/27
 37 40  0  0  0  0  0  0  0  0999 V2000
   19.7817   -2.4773   49.7462 C   0  0  1  0  0  0  0  0  0  0  0  0
   20.8642   -3.1867   50.5902 C   0  0  1  0  0  0  0  0  0  0  0  0
   20.5019   -3.0555   52.1162 C   0  0  0  0  0  0  0  0  0  0  0  0
   20.4461   -1.5364   52.3930 C   0  0  1  0  0  0  0  0  0  0  0  0
   19.3290   -0.8211   51.5116 C   0  0  1  0  0  0  0  0  0  0  0  0
   19.2513    0.7066   51.7802 C   0  0  1  0  0  0  0  0  0  0  0  0
   18.9311    0.8830   53.2918 C   0  0  1  0  0  0  0  0  0  0  0  0
   20.0331    0.1244   54.1245 C   0  0  2  0  0  0  0  0  0  0  0  0
   18.2963    2.7994   54.9613 C   0  0  0  0  0  0  0  0  0  0  0  0
   20.9347   -4.6194   50.2217 N   0  0  0  0  0  0  0  0  0  0  0  0
   18.8877    2.3501   53.6527 N   0  0  0  0  0  0  0  0  0  0  0  0
   18.4917   -3.0913   49.9005 O   0  0  0  0  0  0  0  0  0  0  0  0
   19.6428   -1.0568   50.1008 O   0  0  0  0  0  0  0  0  0  0  0  0
   20.1181   -1.3105   53.7902 O   0  0  0  0  0  0  0  0  0  0  0  0
   20.5165    1.2798   51.4351 O   0  0  0  0  0  0  0  0  0  0  0  0
   19.7397    0.2093   55.5050 O   0  0  0  0  0  0  0  0  0  0  0  0
   20.7610    0.9209   56.1785 C   0  0  2  0  0  0  0  0  0  0  0  0
   21.8779    0.0033   56.6744 C   0  0  1  0  0  0  0  0  0  0  0  0
   21.3520   -0.9936   57.7433 C   0  0  2  0  0  0  0  0  0  0  0  0
   20.7311   -0.1561   58.9004 C   0  0  1  0  0  0  0  0  0  0  0  0
   19.5731    0.7117   58.3070 C   0  0  1  0  0  0  0  0  0  0  0  0
   18.9273    1.6104   59.3380 C   0  0  0  0  0  0  0  0  0  0  0  0
   20.2186   -1.1175   59.9479 N   0  0  0  0  0  0  0  0  0  0  0  0
   20.1573    1.6194   57.3124 O   0  0  0  0  0  0  0  0  0  0  0  0
   22.4007   -0.7003   55.5301 O   0  0  0  0  0  0  0  0  0  0  0  0
   22.4731   -1.7464   58.2409 O   0  0  0  0  0  0  0  0  0  0  0  0
   19.8316    2.5086   59.8839 O   0  0  0  0  0  0  0  0  0  0  0  0
   18.2763   -4.2200   49.0530 C   0  0  1  0  0  0  0  0  0  0  0  0
   17.4837   -5.3293   49.8330 C   0  0  1  0  0  0  0  0  0  0  0  0
   17.2476   -6.5536   48.8770 C   0  0  2  0  0  0  0  0  0  0  0  0
   16.4261   -6.0980   47.6616 C   0  0  1  0  0  0  0  0  0  0  0  0
   17.2296   -4.9943   46.8714 C   0  0  0  0  0  0  0  0  0  0  0  0
   17.4818   -3.7686   47.8350 C   0  0  2  0  0  0  0  0  0  0  0  0
   16.1987   -7.2429   46.7952 N   0  0  0  0  0  0  0  0  0  0  0  0
   18.2577   -2.7126   47.1330 N   0  0  0  0  0  0  0  0  0  0  0  0
   18.2589   -5.7640   50.9870 O   0  0  0  0  0  0  0  0  0  0  0  0
   16.5237   -7.5396   49.5641 O   0  0  0  0  0  0  0  0  0  0  0  0
  1  2  1  0  0  0  0
  1 12  1  1  0  0  0
  1 13  1  0  0  0  0
  2  3  1  0  0  0  0
  2 10  1  6  0  0  0
  4  3  1  1  0  0  0
  4  5  1  0  0  0  0
  4 14  1  0  0  0  0
  5  6  1  0  0  0  0
  5 13  1  6  0  0  0
  6  7  1  0  0  0  0
  6 15  1  1  0  0  0
  7  8  1  0  0  0  0
  7 11  1  1  0  0  0
  8 14  1  0  0  0  0
  8 16  1  1  0  0  0
  9 11  1  0  0  0  0
 17 16  1  1  0  0  0
 17 18  1  0  0  0  0
 17 24  1  0  0  0  0
 18 19  1  0  0  0  0
 18 25  1  6  0  0  0
 19 20  1  0  0  0  0
 19 26  1  1  0  0  0
 20 21  1  0  0  0  0
 20 23  1  1  0  0  0
 21 22  1  1  0  0  0
 21 24  1  0  0  0  0
 22 27  1  0  0  0  0
 28 12  1  1  0  0  0
 28 29  1  0  0  0  0
 28 33  1  0  0  0  0
 29 30  1  0  0  0  0
 29 36  1  1  0  0  0
 30 31  1  0  0  0  0
 30 37  1  1  0  0  0
 31 32  1  0  0  0  0
 31 34  1  6  0  0  0
 32 33  1  0  0  0  0
 33 35  1  6  0  0  0
M  END
>  <CHROM.1>
-84.14952664,165.97792588,-116.68045396,-89.86059690,60.72634320,141.22682148
19.40651061,-1.71309404,52.96543327,2.92562096,1.32631458,2.79375740

>  <Name>
2oe5_lig

>  <RI>
0

>  <Rbt.Current_Directory>
/home/itssahil/PROJECTS/Mol_Feturizer/New_Systems/rnas/2oe5

>  <Rbt.Executable>
rbdock ($Id: //depot/dev/client3/rdock/2013.1/src/exe/rbdock.cxx#4 $)

>  <Rbt.Library>
libRbt.so (2013.1, Build901 2013/11/27)

>  <Rbt.Parameter_File>
/export/apps/rDock/src/rDock_2013.1_src/data/scripts/dock_solv.prm

>  <Rbt.Receptor>
prm/pocket_docking_4.prm

>  <SCORE>
-19.7474

>  <SCORE.INTER>
-21.5216

>  <SCORE.INTER.CONST>
1

>  <SCORE.INTER.POLAR>
-2.05188

>  <SCORE.INTER.ROT>
6

>  <SCORE.INTER.SOLV>
22.1241

>  <SCORE.INTER.VDW>
-22.4829

>  <SCORE.INTER.norm>
-0.581666

>  <SCORE.INTRA>
1.77422

>  <SCORE.INTRA.DIHEDRAL>
2.38162

>  <SCORE.INTRA.DIHEDRAL.0>
16.2083

>  <SCORE.INTRA.POLAR>
0

>  <SCORE.INTRA.POLAR.0>
0

>  <SCORE.INTRA.REPUL>
0

>  <SCORE.INTRA.REPUL.0>
0

>  <SCORE.INTRA.SOLV>
1.4151

>  <SCORE.INTRA.SOLV.lig_0>
-89.8095

>  <SCORE.INTRA.VDW>
-0.124139

>  <SCORE.INTRA.VDW.0>
-3.19502

>  <SCORE.INTRA.norm>
0.0479518

>  <SCORE.RESTR>
0

>  <SCORE.RESTR.CAVITY>
0

>  <SCORE.RESTR.norm>
0

>  <SCORE.SYSTEM>
0

>  <SCORE.SYSTEM.CONST>
0

>  <SCORE.SYSTEM.DIHEDRAL>
0

>  <SCORE.SYSTEM.SOLV>
0

>  <SCORE.SYSTEM.norm>
0

>  <SCORE.heavy>
37

>  <SCORE.norm>
-0.533714

>  <RMSD>
10.028

$$$$
2oe5_lig
 OpenBabel11021811463D
libRbt.so/2013.1/901 2013/11/27
 37 40  0  0  0  0  0  0  0  0999 V2000
   20.4120   -1.0784   50.2930 C   0  0  1  0  0  0  0  0  0  0  0  0
   21.7949   -0.4201   50.0890 C   0  0  1  0  0  0  0  0  0  0  0  0
   22.4492   -0.1405   51.4929 C   0  0  0  0  0  0  0  0  0  0  0  0
   21.4593    0.7924   52.2258 C   0  0  1  0  0  0  0  0  0  0  0  0
   20.0388    0.1000   52.4229 C   0  0  1  0  0  0  0  0  0  0  0  0
   19.0301    1.0190   53.1648 C   0  0  1  0  0  0  0  0  0  0  0  0
   19.6571    1.3521   54.5485 C   0  0  1  0  0  0  0  0  0  0  0  0
   21.0768    1.9927   54.3089 C   0  0  2  0  0  0  0  0  0  0  0  0
   18.7264    2.2540   56.8251 C   0  0  0  0  0  0  0  0  0  0  0  0
   22.6730   -1.3199   49.3063 N   0  0  0  0  0  0  0  0  0  0  0  0
   18.7583    2.2900   55.3213 N   0  0  0  0  0  0  0  0  0  0  0  0
   20.5154   -2.3560   50.9426 O   0  0  0  0  0  0  0  0  0  0  0  0
   19.5116   -0.2413   51.1001 O   0  0  0  0  0  0  0  0  0  0  0  0
   21.9811    1.1131   53.5432 O   0  0  0  0  0  0  0  0  0  0  0  0
   18.8392    2.1948   52.3716 O   0  0  0  0  0  0  0  0  0  0  0  0
   21.7056    2.2517   55.5485 O   0  0  0  0  0  0  0  0  0  0  0  0
   22.9767    2.8376   55.3385 C   0  0  2  0  0  0  0  0  0  0  0  0
   23.8233    2.8595   56.6106 C   0  0  1  0  0  0  0  0  0  0  0  0
   23.1754    3.7571   57.7004 C   0  0  2  0  0  0  0  0  0  0  0  0
   23.0019    5.1807   57.0931 C   0  0  1  0  0  0  0  0  0  0  0  0
   22.0880    5.0635   55.8292 C   0  0  1  0  0  0  0  0  0  0  0  0
   21.8920    6.3868   55.1235 C   0  0  0  0  0  0  0  0  0  0  0  0
   22.3744    6.0633   58.1473 N   0  0  0  0  0  0  0  0  0  0  0  0
   22.7744    4.2035   54.8577 O   0  0  0  0  0  0  0  0  0  0  0  0
   23.9463    1.4997   57.0727 O   0  0  0  0  0  0  0  0  0  0  0  0
   24.0757    3.8176   58.8215 O   0  0  0  0  0  0  0  0  0  0  0  0
   21.2639    7.3201   55.9341 O   0  0  0  0  0  0  0  0  0  0  0  0
   20.6599   -3.4578   50.0461 C   0  0  1  0  0  0  0  0  0  0  0  0
   21.7988   -4.4129   50.5537 C   0  0  1  0  0  0  0  0  0  0  0  0
   21.9296   -5.6225   49.5596 C   0  0  2  0  0  0  0  0  0  0  0  0
   20.6001   -6.3907   49.5165 C   0  0  1  0  0  0  0  0  0  0  0  0
   19.4602   -5.4343   48.9930 C   0  0  0  0  0  0  0  0  0  0  0  0
   19.3371   -4.2093   49.9823 C   0  0  2  0  0  0  0  0  0  0  0  0
   20.7402   -7.5172   48.6085 N   0  0  0  0  0  0  0  0  0  0  0  0
   18.2855   -3.2701   49.5110 N   0  0  0  0  0  0  0  0  0  0  0  0
   23.0616   -3.6883   50.5967 O   0  0  0  0  0  0  0  0  0  0  0  0
   22.9335   -6.4880   50.0193 O   0  0  0  0  0  0  0  0  0  0  0  0
  1  2  1  0  0  0  0
  1 12  1  1  0  0  0
  1 13  1  0  0  0  0
  2  3  1  0  0  0  0
  2 10  1  6  0  0  0
  4  3  1  1  0  0  0
  4  5  1  0  0  0  0
  4 14  1  0  0  0  0
  5  6  1  0  0  0  0
  5 13  1  6  0  0  0
  6  7  1  0  0  0  0
  6 15  1  6  0  0  0
  7  8  1  0  0  0  0
  7 11  1  6  0  0  0
  8 14  1  0  0  0  0
  8 16  1  1  0  0  0
  9 11  1  0  0  0  0
 17 16  1  1  0  0  0
 17 18  1  0  0  0  0
 17 24  1  0  0  0  0
 18 19  1  0  0  0  0
 18 25  1  1  0  0  0
 19 20  1  0  0  0  0
 19 26  1  1  0  0  0
 20 21  1  0  0  0  0
 20 23  1  1  0  0  0
 21 22  1  6  0  0  0
 21 24  1  0  0  0  0
 22 27  1  0  0  0  0
 28 12  1  1  0  0  0
 28 29  1  0  0  0  0
 28 33  1  0  0  0  0
 29 30  1  0  0  0  0
 29 36  1  6  0  0  0
 30 31  1  0  0  0  0
 30 37  1  1  0  0  0
 31 32  1  0  0  0  0
 31 34  1  6  0  0  0
 32 33  1  0  0  0  0
 33 35  1  6  0  0  0
M  END
>  <CHROM.1>
-90.13744892,149.93587955,-179.50766925,-167.52022006,-61.84490895,134.34847410
21.33691504,0.26394534,53.10489362,1.69825173,0.47034602,-2.55159905

>  <Name>
2oe5_lig

>  <RI>
0

>  <Rbt.Current_Directory>
/home/itssahil/PROJECTS/Mol_Feturizer/New_Systems/rnas/2oe5

>  <Rbt.Executable>
rbdock ($Id: //depot/dev/client3/rdock/2013.1/src/exe/rbdock.cxx#4 $)

>  <Rbt.Library>
libRbt.so (2013.1, Build901 2013/11/27)

>  <Rbt.Parameter_File>
/export/apps/rDock/src/rDock_2013.1_src/data/scripts/dock_solv.prm

>  <Rbt.Receptor>
prm/pocket_docking_8.prm

>  <SCORE>
-16.0708

>  <SCORE.INTER>
-14.3637

>  <SCORE.INTER.CONST>
1

>  <SCORE.INTER.POLAR>
-1.80262

>  <SCORE.INTER.ROT>
6

>  <SCORE.INTER.SOLV>
11.4049

>  <SCORE.INTER.VDW>
-14.9687

>  <SCORE.INTER.norm>
-0.388208

>  <SCORE.INTRA>
-1.70711

>  <SCORE.INTRA.DIHEDRAL>
-4.94439

>  <SCORE.INTRA.DIHEDRAL.0>
16.2083

>  <SCORE.INTRA.POLAR>
0

>  <SCORE.INTRA.POLAR.0>
0

>  <SCORE.INTRA.REPUL>
0

>  <SCORE.INTRA.REPUL.0>
0

>  <SCORE.INTRA.SOLV>
0.955887

>  <SCORE.INTRA.SOLV.lig_0>
-89.8095

>  <SCORE.INTRA.VDW>
0.287146

>  <SCORE.INTRA.VDW.0>
-3.19502

>  <SCORE.INTRA.norm>
-0.046138

>  <SCORE.RESTR>
0

>  <SCORE.RESTR.CAVITY>
0

>  <SCORE.RESTR.norm>
0

>  <SCORE.SYSTEM>
0

>  <SCORE.SYSTEM.CONST>
0

>  <SCORE.SYSTEM.DIHEDRAL>
0

>  <SCORE.SYSTEM.SOLV>
0

>  <SCORE.SYSTEM.norm>
0

>  <SCORE.heavy>
37

>  <SCORE.norm>
-0.434346

>  <RMSD>
10.028

$$$$
2oe5_lig
 OpenBabel11021811463D
libRbt.so/2013.1/901 2013/11/27
 37 40  0  0  0  0  0  0  0  0999 V2000
   21.4667   -2.8685   49.7938 C   0  0  1  0  0  0  0  0  0  0  0  0
   22.6848   -3.1700   50.6954 C   0  0  1  0  0  0  0  0  0  0  0  0
   22.2740   -2.9826   52.2032 C   0  0  0  0  0  0  0  0  0  0  0  0
   21.8088   -1.5137   52.3197 C   0  0  1  0  0  0  0  0  0  0  0  0
   20.5566   -1.2199   51.3806 C   0  0  1  0  0  0  0  0  0  0  0  0
   20.0680    0.2505   51.4882 C   0  0  1  0  0  0  0  0  0  0  0  0
   19.6861    0.4909   52.9765 C   0  0  1  0  0  0  0  0  0  0  0  0
   20.9363    0.1464   53.8718 C   0  0  2  0  0  0  0  0  0  0  0  0
   18.8304    2.4073   54.5444 C   0  0  0  0  0  0  0  0  0  0  0  0
   23.1426   -4.5617   50.4786 N   0  0  0  0  0  0  0  0  0  0  0  0
   19.2452    1.9220   53.1819 N   0  0  0  0  0  0  0  0  0  0  0  0
   20.3857   -3.7863   50.0262 O   0  0  0  0  0  0  0  0  0  0  0  0
   20.9465   -1.5084   49.9989 O   0  0  0  0  0  0  0  0  0  0  0  0
   21.4080   -1.2399   53.6890 O   0  0  0  0  0  0  0  0  0  0  0  0
   21.1394    1.1026   51.0708 O   0  0  0  0  0  0  0  0  0  0  0  0
   20.6068    0.2929   55.2390 O   0  0  0  0  0  0  0  0  0  0  0  0
   21.7735    0.2020   56.0350 C   0  0  2  0  0  0  0  0  0  0  0  0
   21.5893   -0.7317   57.2307 C   0  0  1  0  0  0  0  0  0  0  0  0
   20.5132   -0.1852   58.2087 C   0  0  2  0  0  0  0  0  0  0  0  0
   20.9597    1.2408   58.6481 C   0  0  1  0  0  0  0  0  0  0  0  0
   21.0758    2.1314   57.3677 C   0  0  1  0  0  0  0  0  0  0  0  0
   21.5560    3.5331   57.6708 C   0  0  0  0  0  0  0  0  0  0  0  0
   19.9200    1.7806   59.6029 N   0  0  0  0  0  0  0  0  0  0  0  0
   22.1090    1.5451   56.5057 O   0  0  0  0  0  0  0  0  0  0  0  0
   21.2070   -2.0231   56.7172 O   0  0  0  0  0  0  0  0  0  0  0  0
   20.4721   -1.0525   59.3564 O   0  0  0  0  0  0  0  0  0  0  0  0
   20.5702    4.3020   58.2706 O   0  0  0  0  0  0  0  0  0  0  0  0
   19.5586   -4.0163   48.8853 C   0  0  1  0  0  0  0  0  0  0  0  0
   20.3976   -4.6999   47.7470 C   0  0  1  0  0  0  0  0  0  0  0  0
   19.4640   -4.9545   46.5093 C   0  0  2  0  0  0  0  0  0  0  0  0
   18.3131   -5.8837   46.9237 C   0  0  1  0  0  0  0  0  0  0  0  0
   17.4630   -5.1898   48.0568 C   0  0  0  0  0  0  0  0  0  0  0  0
   18.4030   -4.9186   49.2967 C   0  0  2  0  0  0  0  0  0  0  0  0
   17.4681   -6.1264   45.7661 N   0  0  0  0  0  0  0  0  0  0  0  0
   17.6430   -4.2434   50.3814 N   0  0  0  0  0  0  0  0  0  0  0  0
   21.4907   -3.8224   47.3512 O   0  0  0  0  0  0  0  0  0  0  0  0
   20.2051   -5.5820   45.4967 O   0  0  0  0  0  0  0  0  0  0  0  0
  1  2  1  0  0  0  0
  1 12  1  1  0  0  0
  1 13  1  0  0  0  0
  2  3  1  0  0  0  0
  2 10  1  1  0  0  0
  4  3  1  1  0  0  0
  4  5  1  0  0  0  0
  4 14  1  0  0  0  0
  5  6  1  0  0  0  0
  5 13  1  6  0  0  0
  6  7  1  0  0  0  0
  6 15  1  1  0  0  0
  7  8  1  0  0  0  0
  7 11  1  6  0  0  0
  8 14  1  0  0  0  0
  8 16  1  1  0  0  0
  9 11  1  0  0  0  0
 17 16  1  1  0  0  0
 17 18  1  0  0  0  0
 17 24  1  0  0  0  0
 18 19  1  0  0  0  0
 18 25  1  6  0  0  0
 19 20  1  0  0  0  0
 19 26  1  1  0  0  0
 20 21  1  0  0  0  0
 20 23  1  1  0  0  0
 21 22  1  1  0  0  0
 21 24  1  0  0  0  0
 22 27  1  0  0  0  0
 28 12  1  1  0  0  0
 28 29  1  0  0  0  0
 28 33  1  0  0  0  0
 29 30  1  0  0  0  0
 29 36  1  6  0  0  0
 30 31  1  0  0  0  0
 30 37  1  6  0  0  0
 31 32  1  0  0  0  0
 31 34  1  6  0  0  0
 32 33  1  0  0  0  0
 33 35  1  1  0  0  0
M  END
>  <CHROM.1>
-150.76438119,-179.64610077,-170.37235467,-132.83096736,-73.95307089,63.69939343
20.48340973,-1.45133062,52.59994379,2.00774118,1.31961923,-2.56203309

>  <Name>
2oe5_lig

>  <RI>
0

>  <Rbt.Current_Directory>
/home/itssahil/PROJECTS/Mol_Feturizer/New_Systems/rnas/2oe5

>  <Rbt.Executable>
rbdock ($Id: //depot/dev/client3/rdock/2013.1/src/exe/rbdock.cxx#4 $)

>  <Rbt.Library>
libRbt.so (2013.1, Build901 2013/11/27)

>  <Rbt.Parameter_File>
/export/apps/rDock/src/rDock_2013.1_src/data/scripts/dock_solv.prm

>  <Rbt.Receptor>
prm/pocket_docking_2.prm

>  <SCORE>
-7.00008

>  <SCORE.INTER>
-6.78947

>  <SCORE.INTER.CONST>
1

>  <SCORE.INTER.POLAR>
-0.979796

>  <SCORE.INTER.ROT>
6

>  <SCORE.INTER.SOLV>
13.035

>  <SCORE.INTER.VDW>
-13.2053

>  <SCORE.INTER.norm>
-0.183499

>  <SCORE.INTRA>
-1.35113

>  <SCORE.INTRA.DIHEDRAL>
-5.09803

>  <SCORE.INTRA.DIHEDRAL.0>
16.2083

>  <SCORE.INTRA.POLAR>
0

>  <SCORE.INTRA.POLAR.0>
0

>  <SCORE.INTRA.REPUL>
0

>  <SCORE.INTRA.REPUL.0>
0

>  <SCORE.INTRA.SOLV>
-1.35429

>  <SCORE.INTRA.SOLV.lig_0>
-89.8095

>  <SCORE.INTRA.VDW>
1.87503

>  <SCORE.INTRA.VDW.0>
-3.19502

>  <SCORE.INTRA.norm>
-0.0365169

>  <SCORE.RESTR>
1.14052

>  <SCORE.RESTR.CAVITY>
1.14052

>  <SCORE.RESTR.norm>
0.0308249

>  <SCORE.SYSTEM>
0

>  <SCORE.SYSTEM.CONST>
0

>  <SCORE.SYSTEM.DIHEDRAL>
0

>  <SCORE.SYSTEM.SOLV>
0

>  <SCORE.SYSTEM.norm>
0

>  <SCORE.heavy>
37

>  <SCORE.norm>
-0.189191

>  <RMSD>
10.033

$$$$
2oe5_lig
 OpenBabel11021811463D
libRbt.so/2013.1/901 2013/11/27
 37 40  0  0  0  0  0  0  0  0999 V2000
   21.2635   -3.0587   49.8801 C   0  0  1  0  0  0  0  0  0  0  0  0
   22.6546   -3.3262   50.4972 C   0  0  1  0  0  0  0  0  0  0  0  0
   22.5181   -3.4266   52.0619 C   0  0  0  0  0  0  0  0  0  0  0  0
   21.9310   -2.0688   52.5082 C   0  0  1  0  0  0  0  0  0  0  0  0
   20.5003   -1.8077   51.8592 C   0  0  1  0  0  0  0  0  0  0  0  0
   19.8887   -0.4502   52.3011 C   0  0  1  0  0  0  0  0  0  0  0  0
   19.7710   -0.4919   53.8513 C   0  0  1  0  0  0  0  0  0  0  0  0
   21.1968   -0.7963   54.4493 C   0  0  2  0  0  0  0  0  0  0  0  0
   18.6904    1.8563   53.4256 C   0  0  0  0  0  0  0  0  0  0  0  0
   23.2074   -4.5942   49.9681 N   0  0  0  0  0  0  0  0  0  0  0  0
   19.2285    0.8188   54.3732 N   0  0  0  0  0  0  0  0  0  0  0  0
   20.3485   -4.1385   50.1287 O   0  0  0  0  0  0  0  0  0  0  0  0
   20.6509   -1.8281   50.4028 O   0  0  0  0  0  0  0  0  0  0  0  0
   21.7691   -2.0624   53.9520 O   0  0  0  0  0  0  0  0  0  0  0  0
   20.7663    0.5921   51.8632 O   0  0  0  0  0  0  0  0  0  0  0  0
   21.1175   -0.9046   55.8569 O   0  0  0  0  0  0  0  0  0  0  0  0
   22.0803   -0.0652   56.4664 C   0  0  2  0  0  0  0  0  0  0  0  0
   22.2348   -0.3482   57.9602 C   0  0  1  0  0  0  0  0  0  0  0  0
   20.9235   -0.0303   58.7300 C   0  0  2  0  0  0  0  0  0  0  0  0
   20.5678    1.4608   58.4546 C   0  0  1  0  0  0  0  0  0  0  0  0
   20.3850    1.6414   56.9118 C   0  0  1  0  0  0  0  0  0  0  0  0
   20.0861    3.0716   56.5209 C   0  0  0  0  0  0  0  0  0  0  0  0
   19.2939    1.7812   59.2020 N   0  0  0  0  0  0  0  0  0  0  0  0
   21.6650    1.3226   56.2681 O   0  0  0  0  0  0  0  0  0  0  0  0
   22.5895   -1.7379   58.1036 O   0  0  0  0  0  0  0  0  0  0  0  0
   21.1753   -0.2143   60.1349 O   0  0  0  0  0  0  0  0  0  0  0  0
   21.1034    3.9361   56.8954 O   0  0  0  0  0  0  0  0  0  0  0  0
   19.3820   -4.3352   49.0963 C   0  0  1  0  0  0  0  0  0  0  0  0
   19.9983   -5.2125   47.9485 C   0  0  1  0  0  0  0  0  0  0  0  0
   18.9134   -5.4259   46.8323 C   0  0  2  0  0  0  0  0  0  0  0  0
   17.7008   -6.1516   47.4347 C   0  0  1  0  0  0  0  0  0  0  0  0
   17.0744   -5.2629   48.5775 C   0  0  0  0  0  0  0  0  0  0  0  0
   18.1680   -5.0338   49.6937 C   0  0  2  0  0  0  0  0  0  0  0  0
   16.7133   -6.3595   46.3886 N   0  0  0  0  0  0  0  0  0  0  0  0
   17.6228   -4.1799   50.7816 N   0  0  0  0  0  0  0  0  0  0  0  0
   21.1492   -4.5285   47.3746 O   0  0  0  0  0  0  0  0  0  0  0  0
   19.4540   -6.2248   45.8135 O   0  0  0  0  0  0  0  0  0  0  0  0
  1  2  1  0  0  0  0
  1 12  1  1  0  0  0
  1 13  1  0  0  0  0
  2  3  1  0  0  0  0
  2 10  1  6  0  0  0
  4  3  1  6  0  0  0
  4  5  1  0  0  0  0
  4 14  1  0  0  0  0
  5  6  1  0  0  0  0
  5 13  1  6  0  0  0
  6  7  1  0  0  0  0
  6 15  1  1  0  0  0
  7  8  1  0  0  0  0
  7 11  1  1  0  0  0
  8 14  1  0  0  0  0
  8 16  1  1  0  0  0
  9 11  1  0  0  0  0
 17 16  1  1  0  0  0
 17 18  1  0  0  0  0
 17 24  1  0  0  0  0
 18 19  1  0  0  0  0
 18 25  1  6  0  0  0
 19 20  1  0  0  0  0
 19 26  1  1  0  0  0
 20 21  1  0  0  0  0
 20 23  1  1  0  0  0
 21 22  1  1  0  0  0
 21 24  1  0  0  0  0
 22 27  1  0  0  0  0
 28 12  1  1  0  0  0
 28 29  1  0  0  0  0
 28 33  1  0  0  0  0
 29 30  1  0  0  0  0
 29 36  1  6  0  0  0
 30 31  1  0  0  0  0
 30 37  1  6  0  0  0
 31 32  1  0  0  0  0
 31 34  1  6  0  0  0
 32 33  1  0  0  0  0
 33 35  1  1  0  0  0
M  END
>  <CHROM.1>
-148.46682826,9.34744189,-128.28212879,-168.40684710,60.16356544,83.59800452
20.39609725,-1.79464453,52.81221646,-1.74439590,-0.56249012,0.90256795

>  <Name>
2oe5_lig

>  <RI>
0

>  <Rbt.Current_Directory>
/home/itssahil/PROJECTS/Mol_Feturizer/New_Systems/rnas/2oe5

>  <Rbt.Executable>
rbdock ($Id: //depot/dev/client3/rdock/2013.1/src/exe/rbdock.cxx#4 $)

>  <Rbt.Library>
libRbt.so (2013.1, Build901 2013/11/27)

>  <Rbt.Parameter_File>
/export/apps/rDock/src/rDock_2013.1_src/data/scripts/dock_solv.prm

>  <Rbt.Receptor>
prm/pocket_docking_2.prm

>  <SCORE>
-6.07027

>  <SCORE.INTER>
-8.57127

>  <SCORE.INTER.CONST>
1

>  <SCORE.INTER.POLAR>
-0.949668

>  <SCORE.INTER.ROT>
6

>  <SCORE.INTER.SOLV>
12.782

>  <SCORE.INTER.VDW>
-14.4093

>  <SCORE.INTER.norm>
-0.231656

>  <SCORE.INTRA>
1.98061

>  <SCORE.INTRA.DIHEDRAL>
-1.27144

>  <SCORE.INTRA.DIHEDRAL.0>
16.2083

>  <SCORE.INTRA.POLAR>
0

>  <SCORE.INTRA.POLAR.0>
0

>  <SCORE.INTRA.REPUL>
0

>  <SCORE.INTRA.REPUL.0>
0

>  <SCORE.INTRA.SOLV>
0.620677

>  <SCORE.INTRA.SOLV.lig_0>
-89.8095

>  <SCORE.INTRA.VDW>
2.30599

>  <SCORE.INTRA.VDW.0>
-3.19502

>  <SCORE.INTRA.norm>
0.0535299

>  <SCORE.RESTR>
0.520386

>  <SCORE.RESTR.CAVITY>
0.520386

>  <SCORE.RESTR.norm>
0.0140645

>  <SCORE.SYSTEM>
0

>  <SCORE.SYSTEM.CONST>
0

>  <SCORE.SYSTEM.DIHEDRAL>
0

>  <SCORE.SYSTEM.SOLV>
0

>  <SCORE.SYSTEM.norm>
0

>  <SCORE.heavy>
37

>  <SCORE.norm>
-0.164061

>  <RMSD>
10.034

$$$$
2oe5_lig
 OpenBabel11021811463D
libRbt.so/2013.1/901 2013/11/27
 37 40  0  0  0  0  0  0  0  0999 V2000
   22.9444   -1.8926   52.2656 C   0  0  1  0  0  0  0  0  0  0  0  0
   23.2449   -2.4244   53.6849 C   0  0  1  0  0  0  0  0  0  0  0  0
   22.0237   -2.1099   54.6267 C   0  0  0  0  0  0  0  0  0  0  0  0
   21.8714   -0.5726   54.5977 C   0  0  1  0  0  0  0  0  0  0  0  0
   21.5671   -0.0420   53.1272 C   0  0  1  0  0  0  0  0  0  0  0  0
   21.4031    1.5017   53.0771 C   0  0  1  0  0  0  0  0  0  0  0  0
   20.2257    1.8611   54.0275 C   0  0  1  0  0  0  0  0  0  0  0  0
   20.5464    1.2802   55.4568 C   0  0  2  0  0  0  0  0  0  0  0  0
   19.0975    4.0419   53.1143 C   0  0  0  0  0  0  0  0  0  0  0  0
   23.4688   -3.8877   53.6400 N   0  0  0  0  0  0  0  0  0  0  0  0
   20.0291    3.3589   54.0784 N   0  0  0  0  0  0  0  0  0  0  0  0
   21.8103   -2.5483   51.6748 O   0  0  0  0  0  0  0  0  0  0  0  0
   22.6747   -0.4469   52.2592 O   0  0  0  0  0  0  0  0  0  0  0  0
   20.7605   -0.1799   55.4477 O   0  0  0  0  0  0  0  0  0  0  0  0
   22.6336    2.0901   53.5103 O   0  0  0  0  0  0  0  0  0  0  0  0
   19.4673    1.5331   56.3347 O   0  0  0  0  0  0  0  0  0  0  0  0
   19.9107    1.4930   57.6781 C   0  0  2  0  0  0  0  0  0  0  0  0
   18.7811    1.7656   58.6707 C   0  0  1  0  0  0  0  0  0  0  0  0
   18.2246    3.2064   58.5055 C   0  0  2  0  0  0  0  0  0  0  0  0
   19.4148    4.1933   58.6939 C   0  0  1  0  0  0  0  0  0  0  0  0
   20.4942    3.8679   57.6098 C   0  0  1  0  0  0  0  0  0  0  0  0
   21.7264    4.7364   57.7310 C   0  0  0  0  0  0  0  0  0  0  0  0
   18.8829    5.5993   58.5378 N   0  0  0  0  0  0  0  0  0  0  0  0
   20.9621    2.4959   57.8405 O   0  0  0  0  0  0  0  0  0  0  0  0
   17.7498    0.7871   58.4329 O   0  0  0  0  0  0  0  0  0  0  0  0
   17.2467    3.4279   59.5379 O   0  0  0  0  0  0  0  0  0  0  0  0
   22.5734    4.5916   56.6427 O   0  0  0  0  0  0  0  0  0  0  0  0
   21.8415   -2.5982   50.2482 C   0  0  1  0  0  0  0  0  0  0  0  0
   22.4148   -3.9818   49.7751 C   0  0  1  0  0  0  0  0  0  0  0  0
   22.4267   -4.0178   48.2044 C   0  0  2  0  0  0  0  0  0  0  0  0
   20.9916   -3.8539   47.6817 C   0  0  1  0  0  0  0  0  0  0  0  0
   20.4224   -2.4578   48.1456 C   0  0  0  0  0  0  0  0  0  0  0  0
   20.4238   -2.4130   49.7243 C   0  0  2  0  0  0  0  0  0  0  0  0
   21.0140   -3.9078   46.2292 N   0  0  0  0  0  0  0  0  0  0  0  0
   19.9136   -1.1013   50.2029 N   0  0  0  0  0  0  0  0  0  0  0  0
   23.7757   -4.1418   50.2691 O   0  0  0  0  0  0  0  0  0  0  0  0
   22.9210   -5.2594   47.7774 O   0  0  0  0  0  0  0  0  0  0  0  0
  1  2  1  0  0  0  0
  1 12  1  1  0  0  0
  1 13  1  0  0  0  0
  2  3  1  0  0  0  0
  2 10  1  6  0  0  0
  4  3  1  6  0  0  0
  4  5  1  0  0  0  0
  4 14  1  0  0  0  0
  5  6  1  0  0  0  0
  5 13  1  6  0  0  0
  6  7  1  0  0  0  0
  6 15  1  1  0  0  0
  7  8  1  0  0  0  0
  7 11  1  1  0  0  0
  8 14  1  0  0  0  0
  8 16  1  1  0  0  0
  9 11  1  0  0  0  0
 17 16  1  6  0  0  0
 17 18  1  0  0  0  0
 17 24  1  0  0  0  0
 18 19  1  0  0  0  0
 18 25  1  6  0  0  0
 19 20  1  0  0  0  0
 19 26  1  1  0  0  0
 20 21  1  0  0  0  0
 20 23  1  6  0  0  0
 21 22  1  1  0  0  0
 21 24  1  0  0  0  0
 22 27  1  0  0  0  0
 28 12  1  1  0  0  0
 28 29  1  0  0  0  0
 28 33  1  0  0  0  0
 29 30  1  0  0  0  0
 29 36  1  6  0  0  0
 30 31  1  0  0  0  0
 30 37  1  1  0  0  0
 31 32  1  0  0  0  0
 31 34  1  6  0  0  0
 32 33  1  0  0  0  0
 33 35  1  6  0  0  0
M  END
>  <CHROM.1>
-152.18476613,90.34978197,-157.89960420,179.79741397,-170.13996073,96.59756050
20.97291403,0.12847778,53.79061553,-1.11457547,-1.04555314,1.29712978

>  <Name>
2oe5_lig

>  <RI>
0

>  <Rbt.Current_Directory>
/home/itssahil/PROJECTS/Mol_Feturizer/New_Systems/rnas/2oe5

>  <Rbt.Executable>
rbdock ($Id: //depot/dev/client3/rdock/2013.1/src/exe/rbdock.cxx#4 $)

>  <Rbt.Library>
libRbt.so (2013.1, Build901 2013/11/27)

>  <Rbt.Parameter_File>
/export/apps/rDock/src/rDock_2013.1_src/data/scripts/dock_solv.prm

>  <Rbt.Receptor>
prm/pocket_docking_4.prm

>  <SCORE>
-14.7592

>  <SCORE.INTER>
-11.5094

>  <SCORE.INTER.CONST>
1

>  <SCORE.INTER.POLAR>
-1.94888

>  <SCORE.INTER.ROT>
6

>  <SCORE.INTER.SOLV>
12.0163

>  <SCORE.INTER.VDW>
-12.7821

>  <SCORE.INTER.norm>
-0.311064

>  <SCORE.INTRA>
-3.24983

>  <SCORE.INTRA.DIHEDRAL>
-5.06391

>  <SCORE.INTRA.DIHEDRAL.0>
16.2083

>  <SCORE.INTRA.POLAR>
0

>  <SCORE.INTRA.POLAR.0>
0

>  <SCORE.INTRA.REPUL>
0

>  <SCORE.INTRA.REPUL.0>
0

>  <SCORE.INTRA.SOLV>
-0.250625

>  <SCORE.INTRA.SOLV.lig_0>
-89.8095

>  <SCORE.INTRA.VDW>
-0.592566

>  <SCORE.INTRA.VDW.0>
-3.19502

>  <SCORE.INTRA.norm>
-0.0878333

>  <SCORE.RESTR>
0

>  <SCORE.RESTR.CAVITY>
0

>  <SCORE.RESTR.norm>
0

>  <SCORE.SYSTEM>
0

>  <SCORE.SYSTEM.CONST>
0

>  <SCORE.SYSTEM.DIHEDRAL>
0

>  <SCORE.SYSTEM.SOLV>
0

>  <SCORE.SYSTEM.norm>
0

>  <SCORE.heavy>
37

>  <SCORE.norm>
-0.398897

>  <RMSD>
10.045

$$$$
2oe5_lig
 OpenBabel11021811463D
libRbt.so/2013.1/901 2013/11/27
 37 40  0  0  0  0  0  0  0  0999 V2000
   19.7533   -2.4810   49.7859 C   0  0  1  0  0  0  0  0  0  0  0  0
   20.9439   -3.1124   50.5416 C   0  0  1  0  0  0  0  0  0  0  0  0
   20.7017   -2.9851   52.0915 C   0  0  0  0  0  0  0  0  0  0  0  0
   20.5749   -1.4690   52.3614 C   0  0  1  0  0  0  0  0  0  0  0  0
   19.3465   -0.8343   51.5712 C   0  0  1  0  0  0  0  0  0  0  0  0
   19.1967    0.6890   51.8345 C   0  0  1  0  0  0  0  0  0  0  0  0
   18.9924    0.8638   53.3663 C   0  0  1  0  0  0  0  0  0  0  0  0
   20.2045    0.1843   54.1095 C   0  0  2  0  0  0  0  0  0  0  0  0
   18.3404    2.7590   55.0533 C   0  0  0  0  0  0  0  0  0  0  0  0
   21.0724   -4.5425   50.1786 N   0  0  0  0  0  0  0  0  0  0  0  0
   18.8881    2.3298   53.7192 N   0  0  0  0  0  0  0  0  0  0  0  0
   18.5211   -3.1709   50.0515 O   0  0  0  0  0  0  0  0  0  0  0  0
   19.5564   -1.0675   50.1408 O   0  0  0  0  0  0  0  0  0  0  0  0
   20.3504   -1.2467   53.7794 O   0  0  0  0  0  0  0  0  0  0  0  0
   20.3909    1.3343   51.3811 O   0  0  0  0  0  0  0  0  0  0  0  0
   20.0217    0.2679   55.5090 O   0  0  0  0  0  0  0  0  0  0  0  0
   21.1576    0.8550   56.1158 C   0  0  2  0  0  0  0  0  0  0  0  0
   22.0907   -0.1870   56.7315 C   0  0  1  0  0  0  0  0  0  0  0  0
   21.3958   -0.9436   57.8967 C   0  0  2  0  0  0  0  0  0  0  0  0
   20.9414    0.1189   58.9408 C   0  0  1  0  0  0  0  0  0  0  0  0
   19.9585    1.1086   58.2331 C   0  0  1  0  0  0  0  0  0  0  0  0
   19.4904    2.2211   59.1446 C   0  0  0  0  0  0  0  0  0  0  0  0
   20.2661   -0.6078   60.0810 N   0  0  0  0  0  0  0  0  0  0  0  0
   20.6948    1.7760   57.1528 O   0  0  0  0  0  0  0  0  0  0  0  0
   22.4730   -1.0995   55.6832 O   0  0  0  0  0  0  0  0  0  0  0  0
   22.3629   -1.8252   58.4956 O   0  0  0  0  0  0  0  0  0  0  0  0
   18.7277    1.7426   60.1992 O   0  0  0  0  0  0  0  0  0  0  0  0
   18.2372   -4.2327   49.1401 C   0  0  1  0  0  0  0  0  0  0  0  0
   17.4712   -5.3843   49.8844 C   0  0  1  0  0  0  0  0  0  0  0  0
   17.1588   -6.5334   48.8595 C   0  0  2  0  0  0  0  0  0  0  0  0
   16.2770   -5.9804   47.7297 C   0  0  1  0  0  0  0  0  0  0  0  0
   17.0532   -4.8337   46.9741 C   0  0  0  0  0  0  0  0  0  0  0  0
   17.3822   -3.6841   48.0058 C   0  0  2  0  0  0  0  0  0  0  0  0
   15.9799   -7.0568   46.7990 N   0  0  0  0  0  0  0  0  0  0  0  0
   18.1351   -2.5910   47.3363 N   0  0  0  0  0  0  0  0  0  0  0  0
   18.3036   -5.9114   50.9572 O   0  0  0  0  0  0  0  0  0  0  0  0
   16.4582   -7.5562   49.5161 O   0  0  0  0  0  0  0  0  0  0  0  0
  1  2  1  0  0  0  0
  1 12  1  1  0  0  0
  1 13  1  0  0  0  0
  2  3  1  0  0  0  0
  2 10  1  6  0  0  0
  4  3  1  1  0  0  0
  4  5  1  0  0  0  0
  4 14  1  0  0  0  0
  5  6  1  0  0  0  0
  5 13  1  6  0  0  0
  6  7  1  0  0  0  0
  6 15  1  1  0  0  0
  7  8  1  0  0  0  0
  7 11  1  6  0  0  0
  8 14  1  0  0  0  0
  8 16  1  1  0  0  0
  9 11  1  0  0  0  0
 17 16  1  1  0  0  0
 17 18  1  0  0  0  0
 17 24  1  0  0  0  0
 18 19  1  0  0  0  0
 18 25  1  6  0  0  0
 19 20  1  0  0  0  0
 19 26  1  1  0  0  0
 20 21  1  0  0  0  0
 20 23  1  1  0  0  0
 21 22  1  1  0  0  0
 21 24  1  0  0  0  0
 22 27  1  0  0  0  0
 28 12  1  1  0  0  0
 28 29  1  0  0  0  0
 28 33  1  0  0  0  0
 29 30  1  0  0  0  0
 29 36  1  1  0  0  0
 30 31  1  0  0  0  0
 30 37  1  1  0  0  0
 31 32  1  0  0  0  0
 31 34  1  6  0  0  0
 32 33  1  0  0  0  0
 33 35  1  6  0  0  0
M  END
>  <CHROM.1>
-90.55922425,164.07104869,-126.33900050,-99.84026481,-64.94731875,146.89010656
19.44101610,-1.68486595,53.00855474,2.85625018,1.30769087,2.86907578

>  <Name>
2oe5_lig

>  <RI>
0

>  <Rbt.Current_Directory>
/home/itssahil/PROJECTS/Mol_Feturizer/New_Systems/rnas/2oe5

>  <Rbt.Executable>
rbdock ($Id: //depot/dev/client3/rdock/2013.1/src/exe/rbdock.cxx#4 $)

>  <Rbt.Library>
libRbt.so (2013.1, Build901 2013/11/27)

>  <Rbt.Parameter_File>
/export/apps/rDock/src/rDock_2013.1_src/data/scripts/dock_solv.prm

>  <Rbt.Receptor>
prm/pocket_docking_8.prm

>  <SCORE>
-18.1247

>  <SCORE.INTER>
-20.5214

>  <SCORE.INTER.CONST>
1

>  <SCORE.INTER.POLAR>
-1.92796

>  <SCORE.INTER.ROT>
6

>  <SCORE.INTER.SOLV>
20.9752

>  <SCORE.INTER.VDW>
-21.8461

>  <SCORE.INTER.norm>
-0.554631

>  <SCORE.INTRA>
2.39668

>  <SCORE.INTRA.DIHEDRAL>
4.33466

>  <SCORE.INTRA.DIHEDRAL.0>
16.2083

>  <SCORE.INTRA.POLAR>
0

>  <SCORE.INTRA.POLAR.0>
0

>  <SCORE.INTRA.REPUL>
0

>  <SCORE.INTRA.REPUL.0>
0

>  <SCORE.INTRA.SOLV>
1.40297

>  <SCORE.INTRA.SOLV.lig_0>
-89.8095

>  <SCORE.INTRA.VDW>
-0.472132

>  <SCORE.INTRA.VDW.0>
-3.19502

>  <SCORE.INTRA.norm>
0.0647752

>  <SCORE.RESTR>
0

>  <SCORE.RESTR.CAVITY>
0

>  <SCORE.RESTR.norm>
0

>  <SCORE.SYSTEM>
0

>  <SCORE.SYSTEM.CONST>
0

>  <SCORE.SYSTEM.DIHEDRAL>
0

>  <SCORE.SYSTEM.SOLV>
0

>  <SCORE.SYSTEM.norm>
0

>  <SCORE.heavy>
37

>  <SCORE.norm>
-0.489856

>  <RMSD>
10.056

$$$$
2oe5_lig
 OpenBabel11021811463D
libRbt.so/2013.1/901 2013/11/27
 37 40  0  0  0  0  0  0  0  0999 V2000
   22.9136   -2.1709   51.6217 C   0  0  1  0  0  0  0  0  0  0  0  0
   23.8541   -2.7391   52.7080 C   0  0  1  0  0  0  0  0  0  0  0  0
   23.0770   -2.8268   54.0738 C   0  0  0  0  0  0  0  0  0  0  0  0
   22.6317   -1.3800   54.3835 C   0  0  1  0  0  0  0  0  0  0  0  0
   21.6675   -0.8091   53.2518 C   0  0  1  0  0  0  0  0  0  0  0  0
   21.2021    0.6428   53.5477 C   0  0  1  0  0  0  0  0  0  0  0  0
   20.4589    0.6085   54.9134 C   0  0  1  0  0  0  0  0  0  0  0  0
   21.4311   -0.0029   55.9924 C   0  0  2  0  0  0  0  0  0  0  0  0
   18.7686    2.5997   54.7112 C   0  0  0  0  0  0  0  0  0  0  0  0
   24.3196   -4.0899   52.3180 N   0  0  0  0  0  0  0  0  0  0  0  0
   20.0137    1.9988   55.3051 N   0  0  0  0  0  0  0  0  0  0  0  0
   21.7880   -3.0314   51.3816 O   0  0  0  0  0  0  0  0  0  0  0  0
   22.3900   -0.8438   51.9786 O   0  0  0  0  0  0  0  0  0  0  0  0
   21.9015   -1.3564   55.6392 O   0  0  0  0  0  0  0  0  0  0  0  0
   22.3640    1.4769   53.5963 O   0  0  0  0  0  0  0  0  0  0  0  0
   20.7675   -0.1087   57.2364 O   0  0  0  0  0  0  0  0  0  0  0  0
   20.9649    1.0684   57.9970 C   0  0  2  0  0  0  0  0  0  0  0  0
   21.3663    0.7664   59.4404 C   0  0  1  0  0  0  0  0  0  0  0  0
   20.2303    0.0223   60.1946 C   0  0  2  0  0  0  0  0  0  0  0  0
   18.9555    0.9140   60.1201 C   0  0  1  0  0  0  0  0  0  0  0  0
   18.5980    1.1285   58.6127 C   0  0  1  0  0  0  0  0  0  0  0  0
   17.3984    2.0287   58.4176 C   0  0  0  0  0  0  0  0  0  0  0  0
   17.8442    0.1997   60.8542 N   0  0  0  0  0  0  0  0  0  0  0  0
   19.7196    1.8344   57.9818 O   0  0  0  0  0  0  0  0  0  0  0  0
   22.5642   -0.0341   59.3986 O   0  0  0  0  0  0  0  0  0  0  0  0
   20.6323   -0.1303   61.5680 O   0  0  0  0  0  0  0  0  0  0  0  0
   16.2636    1.5232   59.0336 O   0  0  0  0  0  0  0  0  0  0  0  0
   20.9651   -2.6261   50.2874 C   0  0  1  0  0  0  0  0  0  0  0  0
   21.7225   -2.8661   48.9326 C   0  0  1  0  0  0  0  0  0  0  0  0
   20.7932   -2.4257   47.7448 C   0  0  2  0  0  0  0  0  0  0  0  0
   19.5076   -3.2662   47.7671 C   0  0  1  0  0  0  0  0  0  0  0  0
   18.7409   -3.0132   49.1222 C   0  0  0  0  0  0  0  0  0  0  0  0
   19.6789   -3.4406   50.3187 C   0  0  2  0  0  0  0  0  0  0  0  0
   18.6656   -2.8624   46.6531 N   0  0  0  0  0  0  0  0  0  0  0  0
   18.9997   -3.1965   51.6184 N   0  0  0  0  0  0  0  0  0  0  0  0
   22.9429   -2.0713   48.9073 O   0  0  0  0  0  0  0  0  0  0  0  0
   21.4590   -2.6557   46.5315 O   0  0  0  0  0  0  0  0  0  0  0  0
  1  2  1  0  0  0  0
  1 12  1  1  0  0  0
  1 13  1  0  0  0  0
  2  3  1  0  0  0  0
  2 10  1  6  0  0  0
  4  3  1  6  0  0  0
  4  5  1  0  0  0  0
  4 14  1  0  0  0  0
  5  6  1  0  0  0  0
  5 13  1  6  0  0  0
  6  7  1  0  0  0  0
  6 15  1  1  0  0  0
  7  8  1  0  0  0  0
  7 11  1  1  0  0  0
  8 14  1  0  0  0  0
  8 16  1  1  0  0  0
  9 11  1  0  0  0  0
 17 16  1  6  0  0  0
 17 18  1  0  0  0  0
 17 24  1  0  0  0  0
 18 19  1  0  0  0  0
 18 25  1  6  0  0  0
 19 20  1  0  0  0  0
 19 26  1  1  0  0  0
 20 21  1  0  0  0  0
 20 23  1  1  0  0  0
 21 22  1  1  0  0  0
 21 24  1  0  0  0  0
 22 27  1  0  0  0  0
 28 12  1  1  0  0  0
 28 29  1  0  0  0  0
 28 33  1  0  0  0  0
 29 30  1  0  0  0  0
 29 36  1  1  0  0  0
 30 31  1  0  0  0  0
 30 37  1  6  0  0  0
 31 32  1  0  0  0  0
 31 34  1  6  0  0  0
 32 33  1  0  0  0  0
 33 35  1  1  0  0  0
M  END
>  <CHROM.1>
-173.58110004,80.21536579,-90.86856433,-132.93273586,-59.31125908,70.86563792
20.75033792,-0.81584325,54.20137577,-1.42011453,-0.35552527,1.27850957

>  <Name>
2oe5_lig

>  <RI>
0

>  <Rbt.Current_Directory>
/home/itssahil/PROJECTS/Mol_Feturizer/New_Systems/rnas/2oe5

>  <Rbt.Executable>
rbdock ($Id: //depot/dev/client3/rdock/2013.1/src/exe/rbdock.cxx#4 $)

>  <Rbt.Library>
libRbt.so (2013.1, Build901 2013/11/27)

>  <Rbt.Parameter_File>
/export/apps/rDock/src/rDock_2013.1_src/data/scripts/dock_solv.prm

>  <Rbt.Receptor>
prm/pocket_docking_7.prm

>  <SCORE>
-17.3005

>  <SCORE.INTER>
-15.02

>  <SCORE.INTER.CONST>
1

>  <SCORE.INTER.POLAR>
-1.89449

>  <SCORE.INTER.ROT>
6

>  <SCORE.INTER.SOLV>
19.4589

>  <SCORE.INTER.VDW>
-17.7846

>  <SCORE.INTER.norm>
-0.405945

>  <SCORE.INTRA>
-2.28049

>  <SCORE.INTRA.DIHEDRAL>
-4.90686

>  <SCORE.INTRA.DIHEDRAL.0>
16.2083

>  <SCORE.INTRA.POLAR>
0

>  <SCORE.INTRA.POLAR.0>
0

>  <SCORE.INTRA.REPUL>
0

>  <SCORE.INTRA.REPUL.0>
0

>  <SCORE.INTRA.SOLV>
-0.537952

>  <SCORE.INTRA.SOLV.lig_0>
-89.8095

>  <SCORE.INTRA.VDW>
0.441917

>  <SCORE.INTRA.VDW.0>
-3.19502

>  <SCORE.INTRA.norm>
-0.0616348

>  <SCORE.RESTR>
0

>  <SCORE.RESTR.CAVITY>
0

>  <SCORE.RESTR.norm>
0

>  <SCORE.SYSTEM>
0

>  <SCORE.SYSTEM.CONST>
0

>  <SCORE.SYSTEM.DIHEDRAL>
0

>  <SCORE.SYSTEM.SOLV>
0

>  <SCORE.SYSTEM.norm>
0

>  <SCORE.heavy>
37

>  <SCORE.norm>
-0.46758

>  <RMSD>
10.057

$$$$
2oe5_lig
 OpenBabel11021811463D
libRbt.so/2013.1/901 2013/11/27
 37 40  0  0  0  0  0  0  0  0999 V2000
   21.9547   -1.8701   51.9369 C   0  0  1  0  0  0  0  0  0  0  0  0
   22.8249   -2.0274   53.2039 C   0  0  1  0  0  0  0  0  0  0  0  0
   21.9096   -1.9182   54.4796 C   0  0  0  0  0  0  0  0  0  0  0  0
   21.2513   -0.5231   54.3911 C   0  0  1  0  0  0  0  0  0  0  0  0
   20.3628   -0.3771   53.0775 C   0  0  1  0  0  0  0  0  0  0  0  0
   19.6856    1.0166   52.9728 C   0  0  1  0  0  0  0  0  0  0  0  0
   18.7970    1.1824   54.2383 C   0  0  1  0  0  0  0  0  0  0  0  0
   19.7047    0.9866   55.5114 C   0  0  2  0  0  0  0  0  0  0  0  0
   18.9629    3.7946   54.3463 C   0  0  0  0  0  0  0  0  0  0  0  0
   23.5005   -3.3454   53.1932 N   0  0  0  0  0  0  0  0  0  0  0  0
   18.1362    2.5418   54.2428 N   0  0  0  0  0  0  0  0  0  0  0  0
   20.9834   -2.9224   51.8178 O   0  0  0  0  0  0  0  0  0  0  0  0
   21.2289   -0.5912   51.9164 O   0  0  0  0  0  0  0  0  0  0  0  0
   20.3811   -0.3248   55.5374 O   0  0  0  0  0  0  0  0  0  0  0  0
   20.7186    2.0055   52.9162 O   0  0  0  0  0  0  0  0  0  0  0  0
   18.9178    1.0678   56.6833 O   0  0  0  0  0  0  0  0  0  0  0  0
   19.7495    1.1369   57.8264 C   0  0  2  0  0  0  0  0  0  0  0  0
   18.9503    1.1048   59.1286 C   0  0  1  0  0  0  0  0  0  0  0  0
   18.0367    2.3545   59.2572 C   0  0  2  0  0  0  0  0  0  0  0  0
   18.9489    3.6137   59.1659 C   0  0  1  0  0  0  0  0  0  0  0  0
   19.6866    3.5823   57.7870 C   0  0  1  0  0  0  0  0  0  0  0  0
   20.6456    4.7382   57.6094 C   0  0  0  0  0  0  0  0  0  0  0  0
   18.0693    4.8360   59.2929 N   0  0  0  0  0  0  0  0  0  0  0  0
   20.5222    2.3760   57.7528 O   0  0  0  0  0  0  0  0  0  0  0  0
   18.1669   -0.1051   59.1266 O   0  0  0  0  0  0  0  0  0  0  0  0
   17.4018    2.3119   60.5480 O   0  0  0  0  0  0  0  0  0  0  0  0
   21.2454    4.7285   56.3593 O   0  0  0  0  0  0  0  0  0  0  0  0
   20.7654   -3.3682   50.4790 C   0  0  1  0  0  0  0  0  0  0  0  0
   20.5296   -4.9209   50.4653 C   0  0  1  0  0  0  0  0  0  0  0  0
   20.2793   -5.3849   48.9853 C   0  0  2  0  0  0  0  0  0  0  0  0
   19.0340   -4.6743   48.4339 C   0  0  1  0  0  0  0  0  0  0  0  0
   19.2779   -3.1159   48.4349 C   0  0  0  0  0  0  0  0  0  0  0  0
   19.5452   -2.6491   49.9199 C   0  0  2  0  0  0  0  0  0  0  0  0
   18.8026   -5.1260   47.0718 N   0  0  0  0  0  0  0  0  0  0  0  0
   19.8023   -1.1855   49.9615 N   0  0  0  0  0  0  0  0  0  0  0  0
   21.7080   -5.5990   50.9881 O   0  0  0  0  0  0  0  0  0  0  0  0
   20.0498   -6.7689   48.9707 O   0  0  0  0  0  0  0  0  0  0  0  0
  1  2  1  0  0  0  0
  1 12  1  1  0  0  0
  1 13  1  0  0  0  0
  2  3  1  0  0  0  0
  2 10  1  6  0  0  0
  4  3  1  1  0  0  0
  4  5  1  0  0  0  0
  4 14  1  0  0  0  0
  5  6  1  0  0  0  0
  5 13  1  6  0  0  0
  6  7  1  0  0  0  0
  6 15  1  1  0  0  0
  7  8  1  0  0  0  0
  7 11  1  1  0  0  0
  8 14  1  0  0  0  0
  8 16  1  1  0  0  0
  9 11  1  0  0  0  0
 17 16  1  6  0  0  0
 17 18  1  0  0  0  0
 17 24  1  0  0  0  0
 18 19  1  0  0  0  0
 18 25  1  6  0  0  0
 19 20  1  0  0  0  0
 19 26  1  1  0  0  0
 20 21  1  0  0  0  0
 20 23  1  6  0  0  0
 21 22  1  1  0  0  0
 21 24  1  0  0  0  0
 22 27  1  0  0  0  0
 28 12  1  1  0  0  0
 28 29  1  0  0  0  0
 28 33  1  0  0  0  0
 29 30  1  0  0  0  0
 29 36  1  6  0  0  0
 30 31  1  0  0  0  0
 30 37  1  1  0  0  0
 31 32  1  0  0  0  0
 31 34  1  6  0  0  0
 32 33  1  0  0  0  0
 33 35  1  6  0  0  0
M  END
>  <CHROM.1>
-142.35100804,-64.58815601,-169.40456610,-175.06304495,-177.28779337,143.19706835
20.01721651,-0.34510900,54.03645840,0.76373858,1.41082329,-1.47560445

>  <Name>
2oe5_lig

>  <RI>
0

>  <Rbt.Current_Directory>
/home/itssahil/PROJECTS/Mol_Feturizer/New_Systems/rnas/2oe5

>  <Rbt.Executable>
rbdock ($Id: //depot/dev/client3/rdock/2013.1/src/exe/rbdock.cxx#4 $)

>  <Rbt.Library>
libRbt.so (2013.1, Build901 2013/11/27)

>  <Rbt.Parameter_File>
/export/apps/rDock/src/rDock_2013.1_src/data/scripts/dock_solv.prm

>  <Rbt.Receptor>
prm/pocket_docking_6.prm

>  <SCORE>
-13.6539

>  <SCORE.INTER>
-12.5216

>  <SCORE.INTER.CONST>
1

>  <SCORE.INTER.POLAR>
-1.90164

>  <SCORE.INTER.ROT>
6

>  <SCORE.INTER.SOLV>
13.0664

>  <SCORE.INTER.VDW>
-13.9644

>  <SCORE.INTER.norm>
-0.338423

>  <SCORE.INTRA>
-1.13228

>  <SCORE.INTRA.DIHEDRAL>
-5.62069

>  <SCORE.INTRA.DIHEDRAL.0>
16.2083

>  <SCORE.INTRA.POLAR>
0

>  <SCORE.INTRA.POLAR.0>
0

>  <SCORE.INTRA.REPUL>
0

>  <SCORE.INTRA.REPUL.0>
0

>  <SCORE.INTRA.SOLV>
0.59758

>  <SCORE.INTRA.SOLV.lig_0>
-89.8095

>  <SCORE.INTRA.VDW>
1.37927

>  <SCORE.INTRA.VDW.0>
-3.19502

>  <SCORE.INTRA.norm>
-0.0306022

>  <SCORE.RESTR>
0

>  <SCORE.RESTR.CAVITY>
0

>  <SCORE.RESTR.norm>
0

>  <SCORE.SYSTEM>
0

>  <SCORE.SYSTEM.CONST>
0

>  <SCORE.SYSTEM.DIHEDRAL>
0

>  <SCORE.SYSTEM.SOLV>
0

>  <SCORE.SYSTEM.norm>
0

>  <SCORE.heavy>
37

>  <SCORE.norm>
-0.369025

>  <RMSD>
10.061

$$$$
2oe5_lig
 OpenBabel11021811463D
libRbt.so/2013.1/901 2013/11/27
 37 40  0  0  0  0  0  0  0  0999 V2000
   19.8176   -4.1135   48.6475 C   0  0  1  0  0  0  0  0  0  0  0  0
   19.4693   -4.9474   49.9008 C   0  0  1  0  0  0  0  0  0  0  0  0
   18.7795   -4.0183   50.9676 C   0  0  0  0  0  0  0  0  0  0  0  0
   19.8117   -2.9092   51.2709 C   0  0  1  0  0  0  0  0  0  0  0  0
   20.1625   -2.0636   49.9678 C   0  0  1  0  0  0  0  0  0  0  0  0
   21.1938   -0.9377   50.2525 C   0  0  1  0  0  0  0  0  0  0  0  0
   20.5655   -0.0137   51.3342 C   0  0  1  0  0  0  0  0  0  0  0  0
   20.1933   -0.8962   52.5856 C   0  0  2  0  0  0  0  0  0  0  0  0
   22.1241    1.9788   50.6534 C   0  0  0  0  0  0  0  0  0  0  0  0
   18.5477   -6.0479   49.5361 N   0  0  0  0  0  0  0  0  0  0  0  0
   21.5300    1.0876   51.7102 N   0  0  0  0  0  0  0  0  0  0  0  0
   18.6433   -3.5841   48.0106 O   0  0  0  0  0  0  0  0  0  0  0  0
   20.7015   -2.9809   48.9616 O   0  0  0  0  0  0  0  0  0  0  0  0
   19.2635   -1.9941   52.2571 O   0  0  0  0  0  0  0  0  0  0  0  0
   22.4007   -1.5522   50.7152 O   0  0  0  0  0  0  0  0  0  0  0  0
   19.5604   -0.0999   53.5677 O   0  0  0  0  0  0  0  0  0  0  0  0
   20.5290    0.5805   54.3435 C   0  0  2  0  0  0  0  0  0  0  0  0
   20.1658    0.6130   55.8276 C   0  0  1  0  0  0  0  0  0  0  0  0
   18.8614    1.4214   56.0684 C   0  0  2  0  0  0  0  0  0  0  0  0
   19.0830    2.8516   55.4928 C   0  0  1  0  0  0  0  0  0  0  0  0
   19.4019    2.7191   53.9674 C   0  0  1  0  0  0  0  0  0  0  0  0
   19.6880    4.0513   53.3110 C   0  0  0  0  0  0  0  0  0  0  0  0
   17.8196    3.6478   55.7249 N   0  0  0  0  0  0  0  0  0  0  0  0
   20.6427    1.9463   53.8340 O   0  0  0  0  0  0  0  0  0  0  0  0
   20.0118   -0.7515   56.2659 O   0  0  0  0  0  0  0  0  0  0  0  0
   18.6424    1.5019   57.4885 O   0  0  0  0  0  0  0  0  0  0  0  0
   20.6987    4.7441   53.9601 O   0  0  0  0  0  0  0  0  0  0  0  0
   18.5512   -3.8787   46.6165 C   0  0  1  0  0  0  0  0  0  0  0  0
   17.0965   -3.5825   46.1036 C   0  0  1  0  0  0  0  0  0  0  0  0
   17.0238   -3.9010   44.5668 C   0  0  2  0  0  0  0  0  0  0  0  0
   18.0223   -3.0079   43.8151 C   0  0  1  0  0  0  0  0  0  0  0  0
   19.4840   -3.3167   44.3212 C   0  0  0  0  0  0  0  0  0  0  0  0
   19.5557   -3.0120   45.8692 C   0  0  2  0  0  0  0  0  0  0  0  0
   17.9318   -3.2988   42.3937 N   0  0  0  0  0  0  0  0  0  0  0  0
   20.9150   -3.3122   46.3909 N   0  0  0  0  0  0  0  0  0  0  0  0
   16.1461   -4.4269   46.8143 O   0  0  0  0  0  0  0  0  0  0  0  0
   15.7308   -3.6202   44.1005 O   0  0  0  0  0  0  0  0  0  0  0  0
  1  2  1  0  0  0  0
  1 12  1  1  0  0  0
  1 13  1  0  0  0  0
  2  3  1  0  0  0  0
  2 10  1  6  0  0  0
  4  3  1  6  0  0  0
  4  5  1  0  0  0  0
  4 14  1  0  0  0  0
  5  6  1  0  0  0  0
  5 13  1  6  0  0  0
  6  7  1  0  0  0  0
  6 15  1  1  0  0  0
  7  8  1  0  0  0  0
  7 11  1  1  0  0  0
  8 14  1  0  0  0  0
  8 16  1  1  0  0  0
  9 11  1  0  0  0  0
 17 16  1  6  0  0  0
 17 18  1  0  0  0  0
 17 24  1  0  0  0  0
 18 19  1  0  0  0  0
 18 25  1  6  0  0  0
 19 20  1  0  0  0  0
 19 26  1  1  0  0  0
 20 21  1  0  0  0  0
 20 23  1  6  0  0  0
 21 22  1  1  0  0  0
 21 24  1  0  0  0  0
 22 27  1  0  0  0  0
 28 12  1  1  0  0  0
 28 29  1  0  0  0  0
 28 33  1  0  0  0  0
 29 30  1  0  0  0  0
 29 36  1  1  0  0  0
 30 31  1  0  0  0  0
 30 37  1  6  0  0  0
 31 32  1  0  0  0  0
 31 34  1  6  0  0  0
 32 33  1  0  0  0  0
 33 35  1  1  0  0  0
M  END
>  <CHROM.1>
-127.31105026,54.09822385,-82.60500726,-139.65670059,54.57702456,165.83901712
19.42803211,-1.19522788,50.51987877,2.38063558,-1.36722885,-1.32746357

>  <Name>
2oe5_lig

>  <RI>
0

>  <Rbt.Current_Directory>
/home/itssahil/PROJECTS/Mol_Feturizer/New_Systems/rnas/2oe5

>  <Rbt.Executable>
rbdock ($Id: //depot/dev/client3/rdock/2013.1/src/exe/rbdock.cxx#4 $)

>  <Rbt.Library>
libRbt.so (2013.1, Build901 2013/11/27)

>  <Rbt.Parameter_File>
/export/apps/rDock/src/rDock_2013.1_src/data/scripts/dock_solv.prm

>  <Rbt.Receptor>
prm/pocket_docking_7.prm

>  <SCORE>
-16.7888

>  <SCORE.INTER>
-19.8204

>  <SCORE.INTER.CONST>
1

>  <SCORE.INTER.POLAR>
-0.849248

>  <SCORE.INTER.ROT>
6

>  <SCORE.INTER.SOLV>
15.8878

>  <SCORE.INTER.VDW>
-23.2787

>  <SCORE.INTER.norm>
-0.535688

>  <SCORE.INTRA>
3.03162

>  <SCORE.INTRA.DIHEDRAL>
-0.505217

>  <SCORE.INTRA.DIHEDRAL.0>
16.2083

>  <SCORE.INTRA.POLAR>
0

>  <SCORE.INTRA.POLAR.0>
0

>  <SCORE.INTRA.REPUL>
0.0318364

>  <SCORE.INTRA.REPUL.0>
0

>  <SCORE.INTRA.SOLV>
1.64142

>  <SCORE.INTRA.SOLV.lig_0>
-89.8095

>  <SCORE.INTRA.VDW>
2.30433

>  <SCORE.INTRA.VDW.0>
-3.19502

>  <SCORE.INTRA.norm>
0.0819356

>  <SCORE.RESTR>
0

>  <SCORE.RESTR.CAVITY>
0

>  <SCORE.RESTR.norm>
0

>  <SCORE.SYSTEM>
0

>  <SCORE.SYSTEM.CONST>
0

>  <SCORE.SYSTEM.DIHEDRAL>
0

>  <SCORE.SYSTEM.SOLV>
0

>  <SCORE.SYSTEM.norm>
0

>  <SCORE.heavy>
37

>  <SCORE.norm>
-0.453752

>  <RMSD>
10.063

$$$$
2oe5_lig
 OpenBabel11021811463D
libRbt.so/2013.1/901 2013/11/27
 37 40  0  0  0  0  0  0  0  0999 V2000
   22.2172   -1.6850   51.8665 C   0  0  1  0  0  0  0  0  0  0  0  0
   22.9239   -1.9842   53.2076 C   0  0  1  0  0  0  0  0  0  0  0  0
   21.8661   -1.9445   54.3723 C   0  0  0  0  0  0  0  0  0  0  0  0
   21.2672   -0.5207   54.3312 C   0  0  1  0  0  0  0  0  0  0  0  0
   20.5476   -0.2281   52.9409 C   0  0  1  0  0  0  0  0  0  0  0  0
   19.9319    1.1965   52.8813 C   0  0  1  0  0  0  0  0  0  0  0  0
   18.9036    1.2923   54.0441 C   0  0  1  0  0  0  0  0  0  0  0  0
   19.6456    0.9527   55.3922 C   0  0  2  0  0  0  0  0  0  0  0  0
   19.1246    3.8694   54.4598 C   0  0  0  0  0  0  0  0  0  0  0  0
   23.5541   -3.3236   53.1595 N   0  0  0  0  0  0  0  0  0  0  0  0
   18.2900    2.6728   54.0915 N   0  0  0  0  0  0  0  0  0  0  0  0
   21.2346   -2.6822   51.5424 O   0  0  0  0  0  0  0  0  0  0  0  0
   21.5395   -0.3798   51.8744 O   0  0  0  0  0  0  0  0  0  0  0  0
   20.2725   -0.3833   55.3811 O   0  0  0  0  0  0  0  0  0  0  0  0
   20.9948    2.1428   53.0333 O   0  0  0  0  0  0  0  0  0  0  0  0
   18.7268    0.9679   56.4668 O   0  0  0  0  0  0  0  0  0  0  0  0
   18.9840    2.0723   57.3138 C   0  0  2  0  0  0  0  0  0  0  0  0
   19.9964    1.7403   58.4094 C   0  0  1  0  0  0  0  0  0  0  0  0
   19.4447    0.6534   59.3724 C   0  0  2  0  0  0  0  0  0  0  0  0
   18.1044    1.1851   59.9612 C   0  0  1  0  0  0  0  0  0  0  0  0
   17.1218    1.4511   58.7737 C   0  0  1  0  0  0  0  0  0  0  0  0
   15.7969    2.0229   59.2267 C   0  0  0  0  0  0  0  0  0  0  0  0
   17.5604    0.1354   60.9025 N   0  0  0  0  0  0  0  0  0  0  0  0
   17.7192    2.4850   57.9202 O   0  0  0  0  0  0  0  0  0  0  0  0
   21.2023    1.2878   57.7624 O   0  0  0  0  0  0  0  0  0  0  0  0
   20.3993    0.4721   60.4340 O   0  0  0  0  0  0  0  0  0  0  0  0
   15.9446    3.2637   59.8277 O   0  0  0  0  0  0  0  0  0  0  0  0
   20.5904   -2.4811   50.2842 C   0  0  1  0  0  0  0  0  0  0  0  0
   21.6053   -2.7501   49.1161 C   0  0  1  0  0  0  0  0  0  0  0  0
   20.8707   -2.5357   47.7439 C   0  0  2  0  0  0  0  0  0  0  0  0
   19.6964   -3.5203   47.6371 C   0  0  1  0  0  0  0  0  0  0  0  0
   18.6710   -3.2395   48.8024 C   0  0  0  0  0  0  0  0  0  0  0  0
   19.4112   -3.4392   50.1833 C   0  0  2  0  0  0  0  0  0  0  0  0
   19.0373   -3.3247   46.3563 N   0  0  0  0  0  0  0  0  0  0  0  0
   18.4825   -3.1616   51.3104 N   0  0  0  0  0  0  0  0  0  0  0  0
   22.7211   -1.8190   49.2137 O   0  0  0  0  0  0  0  0  0  0  0  0
   21.7688   -2.7931   46.6973 O   0  0  0  0  0  0  0  0  0  0  0  0
  1  2  1  0  0  0  0
  1 12  1  1  0  0  0
  1 13  1  0  0  0  0
  2  3  1  0  0  0  0
  2 10  1  6  0  0  0
  4  3  1  6  0  0  0
  4  5  1  0  0  0  0
  4 14  1  0  0  0  0
  5  6  1  0  0  0  0
  5 13  1  6  0  0  0
  6  7  1  0  0  0  0
  6 15  1  1  0  0  0
  7  8  1  0  0  0  0
  7 11  1  1  0  0  0
  8 14  1  0  0  0  0
  8 16  1  1  0  0  0
  9 11  1  0  0  0  0
 17 16  1  6  0  0  0
 17 18  1  0  0  0  0
 17 24  1  0  0  0  0
 18 19  1  0  0  0  0
 18 25  1  6  0  0  0
 19 20  1  0  0  0  0
 19 26  1  1  0  0  0
 20 21  1  0  0  0  0
 20 23  1  1  0  0  0
 21 22  1  1  0  0  0
 21 24  1  0  0  0  0
 22 27  1  0  0  0  0
 28 12  1  1  0  0  0
 28 29  1  0  0  0  0
 28 33  1  0  0  0  0
 29 30  1  0  0  0  0
 29 36  1  1  0  0  0
 30 31  1  0  0  0  0
 30 37  1  6  0  0  0
 31 32  1  0  0  0  0
 31 34  1  6  0  0  0
 32 33  1  0  0  0  0
 33 35  1  1  0  0  0
M  END
>  <CHROM.1>
-177.56998131,-67.27051504,-110.67074468,-88.74045114,62.93297055,69.93709821
19.90302619,-0.29594450,53.98727485,-1.29818389,-0.50701517,1.28221055

>  <Name>
2oe5_lig

>  <RI>
0

>  <Rbt.Current_Directory>
/home/itssahil/PROJECTS/Mol_Feturizer/New_Systems/rnas/2oe5

>  <Rbt.Executable>
rbdock ($Id: //depot/dev/client3/rdock/2013.1/src/exe/rbdock.cxx#4 $)

>  <Rbt.Library>
libRbt.so (2013.1, Build901 2013/11/27)

>  <Rbt.Parameter_File>
/export/apps/rDock/src/rDock_2013.1_src/data/scripts/dock_solv.prm

>  <Rbt.Receptor>
prm/pocket_docking_8.prm

>  <SCORE>
-22.5526

>  <SCORE.INTER>
-20.9716

>  <SCORE.INTER.CONST>
1

>  <SCORE.INTER.POLAR>
-2.61754

>  <SCORE.INTER.ROT>
6

>  <SCORE.INTER.SOLV>
18.6268

>  <SCORE.INTER.VDW>
-19.0649

>  <SCORE.INTER.norm>
-0.566799

>  <SCORE.INTRA>
-1.58107

>  <SCORE.INTRA.DIHEDRAL>
-5.45025

>  <SCORE.INTRA.DIHEDRAL.0>
16.2083

>  <SCORE.INTRA.POLAR>
0

>  <SCORE.INTRA.POLAR.0>
0

>  <SCORE.INTRA.REPUL>
0

>  <SCORE.INTRA.REPUL.0>
0

>  <SCORE.INTRA.SOLV>
-1.57017

>  <SCORE.INTRA.SOLV.lig_0>
-89.8095

>  <SCORE.INTRA.VDW>
1.92914

>  <SCORE.INTRA.VDW.0>
-3.19502

>  <SCORE.INTRA.norm>
-0.0427316

>  <SCORE.RESTR>
0

>  <SCORE.RESTR.CAVITY>
0

>  <SCORE.RESTR.norm>
0

>  <SCORE.SYSTEM>
0

>  <SCORE.SYSTEM.CONST>
0

>  <SCORE.SYSTEM.DIHEDRAL>
0

>  <SCORE.SYSTEM.SOLV>
0

>  <SCORE.SYSTEM.norm>
0

>  <SCORE.heavy>
37

>  <SCORE.norm>
-0.609531

>  <RMSD>
10.071

$$$$
2oe5_lig
 OpenBabel11021811463D
libRbt.so/2013.1/901 2013/11/27
 37 40  0  0  0  0  0  0  0  0999 V2000
   19.7344   -2.3329   49.7259 C   0  0  1  0  0  0  0  0  0  0  0  0
   20.8440   -3.0251   50.5486 C   0  0  1  0  0  0  0  0  0  0  0  0
   20.4694   -2.9692   52.0763 C   0  0  0  0  0  0  0  0  0  0  0  0
   20.3440   -1.4660   52.4109 C   0  0  1  0  0  0  0  0  0  0  0  0
   19.1998   -0.7681   51.5507 C   0  0  1  0  0  0  0  0  0  0  0  0
   19.0521    0.7431   51.8773 C   0  0  1  0  0  0  0  0  0  0  0  0
   18.7177    0.8464   53.3926 C   0  0  1  0  0  0  0  0  0  0  0  0
   19.8490    0.1064   54.2022 C   0  0  2  0  0  0  0  0  0  0  0  0
   19.7136    3.2669   53.5029 C   0  0  0  0  0  0  0  0  0  0  0  0
   20.9807   -4.4379   50.1259 N   0  0  0  0  0  0  0  0  0  0  0  0
   18.6065    2.2951   53.8092 N   0  0  0  0  0  0  0  0  0  0  0  0
   18.4727   -3.0096   49.8486 O   0  0  0  0  0  0  0  0  0  0  0  0
   19.5301   -0.9348   50.1339 O   0  0  0  0  0  0  0  0  0  0  0  0
   20.0000   -1.3093   53.8137 O   0  0  0  0  0  0  0  0  0  0  0  0
   20.2917    1.3853   51.5622 O   0  0  0  0  0  0  0  0  0  0  0  0
   19.5460    0.1248   55.5832 O   0  0  0  0  0  0  0  0  0  0  0  0
   20.4061    1.0219   56.2601 C   0  0  2  0  0  0  0  0  0  0  0  0
   20.7665    0.5340   57.6628 C   0  0  1  0  0  0  0  0  0  0  0  0
   19.5096    0.4653   58.5731 C   0  0  2  0  0  0  0  0  0  0  0  0
   18.8705    1.8854   58.5980 C   0  0  1  0  0  0  0  0  0  0  0  0
   18.4951    2.2768   57.1310 C   0  0  1  0  0  0  0  0  0  0  0  0
   17.9099    3.6677   57.0275 C   0  0  0  0  0  0  0  0  0  0  0  0
   17.6474    1.8300   59.4841 N   0  0  0  0  0  0  0  0  0  0  0  0
   19.7350    2.3181   56.3466 O   0  0  0  0  0  0  0  0  0  0  0  0
   21.3728   -0.7666   57.5267 O   0  0  0  0  0  0  0  0  0  0  0  0
   19.9384    0.1063   59.8991 O   0  0  0  0  0  0  0  0  0  0  0  0
   17.5096    3.9681   55.7344 O   0  0  0  0  0  0  0  0  0  0  0  0
   18.3300   -4.1410   48.9893 C   0  0  1  0  0  0  0  0  0  0  0  0
   17.5294   -5.2734   49.7265 C   0  0  1  0  0  0  0  0  0  0  0  0
   17.3741   -6.5005   48.7577 C   0  0  2  0  0  0  0  0  0  0  0  0
   16.6025   -6.0630   47.5036 C   0  0  1  0  0  0  0  0  0  0  0  0
   17.4147   -4.9358   46.7566 C   0  0  0  0  0  0  0  0  0  0  0  0
   17.5857   -3.7069   47.7338 C   0  0  2  0  0  0  0  0  0  0  0  0
   16.4492   -7.2107   46.6248 N   0  0  0  0  0  0  0  0  0  0  0  0
   18.3673   -2.6285   47.0735 N   0  0  0  0  0  0  0  0  0  0  0  0
   18.2572   -5.6910   50.9171 O   0  0  0  0  0  0  0  0  0  0  0  0
   16.6433   -7.5075   49.4059 O   0  0  0  0  0  0  0  0  0  0  0  0
  1  2  1  0  0  0  0
  1 12  1  1  0  0  0
  1 13  1  0  0  0  0
  2  3  1  0  0  0  0
  2 10  1  6  0  0  0
  4  3  1  6  0  0  0
  4  5  1  0  0  0  0
  4 14  1  0  0  0  0
  5  6  1  0  0  0  0
  5 13  1  6  0  0  0
  6  7  1  0  0  0  0
  6 15  1  1  0  0  0
  7  8  1  0  0  0  0
  7 11  1  1  0  0  0
  8 14  1  0  0  0  0
  8 16  1  1  0  0  0
  9 11  1  0  0  0  0
 17 16  1  1  0  0  0
 17 18  1  0  0  0  0
 17 24  1  0  0  0  0
 18 19  1  0  0  0  0
 18 25  1  6  0  0  0
 19 20  1  0  0  0  0
 19 26  1  1  0  0  0
 20 21  1  0  0  0  0
 20 23  1  1  0  0  0
 21 22  1  1  0  0  0
 21 24  1  0  0  0  0
 22 27  1  0  0  0  0
 28 12  1  1  0  0  0
 28 29  1  0  0  0  0
 28 33  1  0  0  0  0
 29 30  1  0  0  0  0
 29 36  1  1  0  0  0
 30 31  1  0  0  0  0
 30 37  1  1  0  0  0
 31 32  1  0  0  0  0
 31 34  1  6  0  0  0
 32 33  1  0  0  0  0
 33 35  1  6  0  0  0
M  END
>  <CHROM.1>
-82.12217447,-52.53991536,-107.58161336,-144.93789728,-176.41155949,143.31548809
18.98473879,-1.26646412,52.79924649,2.99909272,1.44422981,2.61909148

>  <Name>
2oe5_lig

>  <RI>
0

>  <Rbt.Current_Directory>
/home/itssahil/PROJECTS/Mol_Feturizer/New_Systems/rnas/2oe5

>  <Rbt.Executable>
rbdock ($Id: //depot/dev/client3/rdock/2013.1/src/exe/rbdock.cxx#4 $)

>  <Rbt.Library>
libRbt.so (2013.1, Build901 2013/11/27)

>  <Rbt.Parameter_File>
/export/apps/rDock/src/rDock_2013.1_src/data/scripts/dock_solv.prm

>  <Rbt.Receptor>
prm/pocket_docking_8.prm

>  <SCORE>
-20.5349

>  <SCORE.INTER>
-23.8255

>  <SCORE.INTER.CONST>
1

>  <SCORE.INTER.POLAR>
-1.91285

>  <SCORE.INTER.ROT>
6

>  <SCORE.INTER.SOLV>
16.7754

>  <SCORE.INTER.VDW>
-22.6993

>  <SCORE.INTER.norm>
-0.643933

>  <SCORE.INTRA>
3.29067

>  <SCORE.INTRA.DIHEDRAL>
1.89226

>  <SCORE.INTRA.DIHEDRAL.0>
16.2083

>  <SCORE.INTRA.POLAR>
0

>  <SCORE.INTRA.POLAR.0>
0

>  <SCORE.INTRA.REPUL>
0

>  <SCORE.INTRA.REPUL.0>
0

>  <SCORE.INTRA.SOLV>
2.54992

>  <SCORE.INTRA.SOLV.lig_0>
-89.8095

>  <SCORE.INTRA.VDW>
1.06958

>  <SCORE.INTRA.VDW.0>
-3.19502

>  <SCORE.INTRA.norm>
0.088937

>  <SCORE.RESTR>
0

>  <SCORE.RESTR.CAVITY>
0

>  <SCORE.RESTR.norm>
0

>  <SCORE.SYSTEM>
0

>  <SCORE.SYSTEM.CONST>
0

>  <SCORE.SYSTEM.DIHEDRAL>
0

>  <SCORE.SYSTEM.SOLV>
0

>  <SCORE.SYSTEM.norm>
0

>  <SCORE.heavy>
37

>  <SCORE.norm>
-0.554996

>  <RMSD>
10.077

$$$$
2oe5_lig
 OpenBabel11021811463D
libRbt.so/2013.1/901 2013/11/27
 37 40  0  0  0  0  0  0  0  0999 V2000
   21.4882   -1.5925   50.0751 C   0  0  1  0  0  0  0  0  0  0  0  0
   21.7179   -2.6466   51.1812 C   0  0  1  0  0  0  0  0  0  0  0  0
   20.7090   -2.3893   52.3615 C   0  0  0  0  0  0  0  0  0  0  0  0
   21.0090   -0.9542   52.8491 C   0  0  1  0  0  0  0  0  0  0  0  0
   20.7719    0.1178   51.6955 C   0  0  1  0  0  0  0  0  0  0  0  0
   21.0611    1.5690   52.1674 C   0  0  1  0  0  0  0  0  0  0  0  0
   20.1077    1.8529   53.3628 C   0  0  1  0  0  0  0  0  0  0  0  0
   20.3431    0.7459   54.4593 C   0  0  2  0  0  0  0  0  0  0  0  0
   19.7712    4.4485   53.2520 C   0  0  0  0  0  0  0  0  0  0  0  0
   21.5027   -4.0069   50.6364 N   0  0  0  0  0  0  0  0  0  0  0  0
   20.3594    3.2353   53.9198 N   0  0  0  0  0  0  0  0  0  0  0  0
   20.1746   -1.6929   49.5013 O   0  0  0  0  0  0  0  0  0  0  0  0
   21.6512   -0.2187   50.5740 O   0  0  0  0  0  0  0  0  0  0  0  0
   20.1218   -0.6216   53.9505 O   0  0  0  0  0  0  0  0  0  0  0  0
   22.4364    1.6401   52.5568 O   0  0  0  0  0  0  0  0  0  0  0  0
   19.4474    0.9347   55.5369 O   0  0  0  0  0  0  0  0  0  0  0  0
   20.0351    1.7650   56.5209 C   0  0  2  0  0  0  0  0  0  0  0  0
   20.7545    0.9618   57.6039 C   0  0  1  0  0  0  0  0  0  0  0  0
   19.7564    0.0828   58.4067 C   0  0  2  0  0  0  0  0  0  0  0  0
   18.6752    1.0297   59.0067 C   0  0  1  0  0  0  0  0  0  0  0  0
   17.9656    1.7698   57.8256 C   0  0  1  0  0  0  0  0  0  0  0  0
   16.9247    2.7609   58.2965 C   0  0  0  0  0  0  0  0  0  0  0  0
   17.7001    0.1839   59.7928 N   0  0  0  0  0  0  0  0  0  0  0  0
   18.9769    2.5718   57.1267 O   0  0  0  0  0  0  0  0  0  0  0  0
   21.7466    0.1453   56.9509 O   0  0  0  0  0  0  0  0  0  0  0  0
   20.4824   -0.5564   59.4722 O   0  0  0  0  0  0  0  0  0  0  0  0
   17.4735    3.7487   59.1001 O   0  0  0  0  0  0  0  0  0  0  0  0
   20.0233   -2.7656   48.5711 C   0  0  1  0  0  0  0  0  0  0  0  0
   18.5068   -2.9421   48.2023 C   0  0  1  0  0  0  0  0  0  0  0  0
   18.3675   -4.1175   47.1692 C   0  0  2  0  0  0  0  0  0  0  0  0
   19.1651   -3.7766   45.9014 C   0  0  1  0  0  0  0  0  0  0  0  0
   20.6900   -3.6137   46.2709 C   0  0  0  0  0  0  0  0  0  0  0  0
   20.8311   -2.4428   47.3214 C   0  0  2  0  0  0  0  0  0  0  0  0
   19.0129   -4.8625   44.9470 N   0  0  0  0  0  0  0  0  0  0  0  0
   22.2547   -2.2712   47.7135 N   0  0  0  0  0  0  0  0  0  0  0  0
   17.7463   -3.2650   49.4019 O   0  0  0  0  0  0  0  0  0  0  0  0
   17.0162   -4.2666   46.8228 O   0  0  0  0  0  0  0  0  0  0  0  0
  1  2  1  0  0  0  0
  1 12  1  1  0  0  0
  1 13  1  0  0  0  0
  2  3  1  0  0  0  0
  2 10  1  6  0  0  0
  4  3  1  6  0  0  0
  4  5  1  0  0  0  0
  4 14  1  0  0  0  0
  5  6  1  0  0  0  0
  5 13  1  6  0  0  0
  6  7  1  0  0  0  0
  6 15  1  1  0  0  0
  7  8  1  0  0  0  0
  7 11  1  1  0  0  0
  8 14  1  0  0  0  0
  8 16  1  1  0  0  0
  9 11  1  0  0  0  0
 17 16  1  6  0  0  0
 17 18  1  0  0  0  0
 17 24  1  0  0  0  0
 18 19  1  0  0  0  0
 18 25  1  6  0  0  0
 19 20  1  0  0  0  0
 19 26  1  1  0  0  0
 20 21  1  0  0  0  0
 20 23  1  6  0  0  0
 21 22  1  1  0  0  0
 21 24  1  0  0  0  0
 22 27  1  0  0  0  0
 28 12  1  1  0  0  0
 28 29  1  0  0  0  0
 28 33  1  0  0  0  0
 29 30  1  0  0  0  0
 29 36  1  1  0  0  0
 30 31  1  0  0  0  0
 30 37  1  6  0  0  0
 31 32  1  0  0  0  0
 31 34  1  6  0  0  0
 32 33  1  0  0  0  0
 33 35  1  1  0  0  0
M  END
>  <CHROM.1>
-77.46761935,80.63141910,-91.01929616,-92.68182122,60.16695462,170.04259577
19.90197131,-0.49518347,52.76682870,-1.49730677,0.82408698,1.06281355

>  <Name>
2oe5_lig

>  <RI>
0

>  <Rbt.Current_Directory>
/home/itssahil/PROJECTS/Mol_Feturizer/New_Systems/rnas/2oe5

>  <Rbt.Executable>
rbdock ($Id: //depot/dev/client3/rdock/2013.1/src/exe/rbdock.cxx#4 $)

>  <Rbt.Library>
libRbt.so (2013.1, Build901 2013/11/27)

>  <Rbt.Parameter_File>
/export/apps/rDock/src/rDock_2013.1_src/data/scripts/dock_solv.prm

>  <Rbt.Receptor>
prm/pocket_docking_8.prm

>  <SCORE>
-17.8645

>  <SCORE.INTER>
-18.2094

>  <SCORE.INTER.CONST>
1

>  <SCORE.INTER.POLAR>
-1.82689

>  <SCORE.INTER.ROT>
6

>  <SCORE.INTER.SOLV>
15.3582

>  <SCORE.INTER.VDW>
-18.7694

>  <SCORE.INTER.norm>
-0.492146

>  <SCORE.INTRA>
0.34487

>  <SCORE.INTRA.DIHEDRAL>
-6.06903

>  <SCORE.INTRA.DIHEDRAL.0>
16.2083

>  <SCORE.INTRA.POLAR>
0

>  <SCORE.INTRA.POLAR.0>
0

>  <SCORE.INTRA.REPUL>
0

>  <SCORE.INTRA.REPUL.0>
0

>  <SCORE.INTRA.SOLV>
2.62159

>  <SCORE.INTRA.SOLV.lig_0>
-89.8095

>  <SCORE.INTRA.VDW>
2.06859

>  <SCORE.INTRA.VDW.0>
-3.19502

>  <SCORE.INTRA.norm>
0.0093208

>  <SCORE.RESTR>
0

>  <SCORE.RESTR.CAVITY>
0

>  <SCORE.RESTR.norm>
0

>  <SCORE.SYSTEM>
0

>  <SCORE.SYSTEM.CONST>
0

>  <SCORE.SYSTEM.DIHEDRAL>
0

>  <SCORE.SYSTEM.SOLV>
0

>  <SCORE.SYSTEM.norm>
0

>  <SCORE.heavy>
37

>  <SCORE.norm>
-0.482825

>  <RMSD>
10.084

$$$$
2oe5_lig
 OpenBabel11021811463D
libRbt.so/2013.1/901 2013/11/27
 37 40  0  0  0  0  0  0  0  0999 V2000
   22.4078   -2.0813   50.9916 C   0  0  1  0  0  0  0  0  0  0  0  0
   22.9360   -2.7924   52.2576 C   0  0  1  0  0  0  0  0  0  0  0  0
   21.8976   -2.6113   53.4264 C   0  0  0  0  0  0  0  0  0  0  0  0
   21.7677   -1.0844   53.6238 C   0  0  1  0  0  0  0  0  0  0  0  0
   21.2272   -0.3677   52.3083 C   0  0  1  0  0  0  0  0  0  0  0  0
   21.0822    1.1682   52.4879 C   0  0  1  0  0  0  0  0  0  0  0  0
   20.0892    1.3930   53.6636 C   0  0  1  0  0  0  0  0  0  0  0  0
   20.6383    0.6320   54.9295 C   0  0  2  0  0  0  0  0  0  0  0  0
   19.0522    3.7230   53.0651 C   0  0  0  0  0  0  0  0  0  0  0  0
   23.1252   -4.2358   51.9854 N   0  0  0  0  0  0  0  0  0  0  0  0
   19.9286    2.8700   53.9415 N   0  0  0  0  0  0  0  0  0  0  0  0
   21.1794   -2.6609   50.5224 O   0  0  0  0  0  0  0  0  0  0  0  0
   22.1647   -0.6489   51.2192 O   0  0  0  0  0  0  0  0  0  0  0  0
   20.8238   -0.8131   54.6944 O   0  0  0  0  0  0  0  0  0  0  0  0
   22.3779    1.7023   52.7780 O   0  0  0  0  0  0  0  0  0  0  0  0
   19.7279    0.7612   56.0037 O   0  0  0  0  0  0  0  0  0  0  0  0
   20.0882    1.8600   56.8197 C   0  0  2  0  0  0  0  0  0  0  0  0
   20.9547    1.4419   58.0071 C   0  0  1  0  0  0  0  0  0  0  0  0
   20.1740    0.5045   58.9688 C   0  0  2  0  0  0  0  0  0  0  0  0
   18.8912    1.2620   59.4234 C   0  0  1  0  0  0  0  0  0  0  0  0
   18.0508    1.6054   58.1498 C   0  0  1  0  0  0  0  0  0  0  0  0
   16.7993    2.3926   58.4687 C   0  0  0  0  0  0  0  0  0  0  0  0
   18.1254    0.3589   60.3625 N   0  0  0  0  0  0  0  0  0  0  0  0
   18.8604    2.4897   57.3032 O   0  0  0  0  0  0  0  0  0  0  0  0
   22.1214    0.7796   57.4802 O   0  0  0  0  0  0  0  0  0  0  0  0
   21.0090    0.2419   60.1111 O   0  0  0  0  0  0  0  0  0  0  0  0
   17.0865    3.5878   59.1103 O   0  0  0  0  0  0  0  0  0  0  0  0
   20.8125   -2.2632   49.2011 C   0  0  1  0  0  0  0  0  0  0  0  0
   21.9519   -2.6501   48.1916 C   0  0  1  0  0  0  0  0  0  0  0  0
   21.5198   -2.2152   46.7451 C   0  0  2  0  0  0  0  0  0  0  0  0
   20.2256   -2.9476   46.3597 C   0  0  1  0  0  0  0  0  0  0  0  0
   19.0787   -2.5470   47.3658 C   0  0  0  0  0  0  0  0  0  0  0  0
   19.5173   -2.9691   48.8232 C   0  0  2  0  0  0  0  0  0  0  0  0
   19.8472   -2.5512   45.0134 N   0  0  0  0  0  0  0  0  0  0  0  0
   18.4701   -2.5880   49.8071 N   0  0  0  0  0  0  0  0  0  0  0  0
   23.1814   -1.9582   48.5536 O   0  0  0  0  0  0  0  0  0  0  0  0
   22.5269   -2.5756   45.8373 O   0  0  0  0  0  0  0  0  0  0  0  0
  1  2  1  0  0  0  0
  1 12  1  1  0  0  0
  1 13  1  0  0  0  0
  2  3  1  0  0  0  0
  2 10  1  6  0  0  0
  4  3  1  6  0  0  0
  4  5  1  0  0  0  0
  4 14  1  0  0  0  0
  5  6  1  0  0  0  0
  5 13  1  6  0  0  0
  6  7  1  0  0  0  0
  6 15  1  1  0  0  0
  7  8  1  0  0  0  0
  7 11  1  1  0  0  0
  8 14  1  0  0  0  0
  8 16  1  1  0  0  0
  9 11  1  0  0  0  0
 17 16  1  1  0  0  0
 17 18  1  0  0  0  0
 17 24  1  0  0  0  0
 18 19  1  0  0  0  0
 18 25  1  6  0  0  0
 19 20  1  0  0  0  0
 19 26  1  1  0  0  0
 20 21  1  0  0  0  0
 20 23  1  1  0  0  0
 21 22  1  1  0  0  0
 21 24  1  0  0  0  0
 22 27  1  0  0  0  0
 28 12  1  1  0  0  0
 28 29  1  0  0  0  0
 28 33  1  0  0  0  0
 29 30  1  0  0  0  0
 29 36  1  1  0  0  0
 30 31  1  0  0  0  0
 30 37  1  6  0  0  0
 31 32  1  0  0  0  0
 31 34  1  6  0  0  0
 32 33  1  0  0  0  0
 33 35  1  1  0  0  0
M  END
>  <CHROM.1>
-166.03964855,78.30558666,-93.83254177,-94.56586085,58.70935045,58.36277385
20.54345958,-0.33967111,53.22753539,-1.32996800,-0.72896343,1.35013391

>  <Name>
2oe5_lig

>  <RI>
0

>  <Rbt.Current_Directory>
/home/itssahil/PROJECTS/Mol_Feturizer/New_Systems/rnas/2oe5

>  <Rbt.Executable>
rbdock ($Id: //depot/dev/client3/rdock/2013.1/src/exe/rbdock.cxx#4 $)

>  <Rbt.Library>
libRbt.so (2013.1, Build901 2013/11/27)

>  <Rbt.Parameter_File>
/export/apps/rDock/src/rDock_2013.1_src/data/scripts/dock_solv.prm

>  <Rbt.Receptor>
prm/pocket_docking_7.prm

>  <SCORE>
-18.3029

>  <SCORE.INTER>
-16.4806

>  <SCORE.INTER.CONST>
1

>  <SCORE.INTER.POLAR>
-2.60664

>  <SCORE.INTER.ROT>
6

>  <SCORE.INTER.SOLV>
18.7053

>  <SCORE.INTER.VDW>
-16.1334

>  <SCORE.INTER.norm>
-0.445422

>  <SCORE.INTRA>
-1.82228

>  <SCORE.INTRA.DIHEDRAL>
-6.19719

>  <SCORE.INTRA.DIHEDRAL.0>
16.2083

>  <SCORE.INTRA.POLAR>
0

>  <SCORE.INTRA.POLAR.0>
0

>  <SCORE.INTRA.REPUL>
0

>  <SCORE.INTRA.REPUL.0>
0

>  <SCORE.INTRA.SOLV>
-1.67771

>  <SCORE.INTRA.SOLV.lig_0>
-89.8095

>  <SCORE.INTRA.VDW>
2.11517

>  <SCORE.INTRA.VDW.0>
-3.19502

>  <SCORE.INTRA.norm>
-0.0492507

>  <SCORE.RESTR>
0

>  <SCORE.RESTR.CAVITY>
0

>  <SCORE.RESTR.norm>
0

>  <SCORE.SYSTEM>
0

>  <SCORE.SYSTEM.CONST>
0

>  <SCORE.SYSTEM.DIHEDRAL>
0

>  <SCORE.SYSTEM.SOLV>
0

>  <SCORE.SYSTEM.norm>
0

>  <SCORE.heavy>
37

>  <SCORE.norm>
-0.494673

>  <RMSD>
10.085

$$$$
2oe5_lig
 OpenBabel11021811463D
libRbt.so/2013.1/901 2013/11/27
 37 40  0  0  0  0  0  0  0  0999 V2000
   19.7133   -2.2948   49.7036 C   0  0  1  0  0  0  0  0  0  0  0  0
   20.9090   -2.9460   50.4340 C   0  0  1  0  0  0  0  0  0  0  0  0
   20.6442   -2.9247   51.9853 C   0  0  0  0  0  0  0  0  0  0  0  0
   20.4777   -1.4325   52.3503 C   0  0  1  0  0  0  0  0  0  0  0  0
   19.2445   -0.7767   51.5851 C   0  0  1  0  0  0  0  0  0  0  0  0
   19.0549    0.7225   51.9436 C   0  0  1  0  0  0  0  0  0  0  0  0
   18.8271    0.7933   53.4805 C   0  0  1  0  0  0  0  0  0  0  0  0
   20.0456    0.0954   54.1956 C   0  0  2  0  0  0  0  0  0  0  0  0
   19.8501    3.1771   53.8463 C   0  0  0  0  0  0  0  0  0  0  0  0
   21.0764   -4.3464   49.9817 N   0  0  0  0  0  0  0  0  0  0  0  0
   18.6831    2.2306   53.9254 N   0  0  0  0  0  0  0  0  0  0  0  0
   18.4948   -3.0287   49.9068 O   0  0  0  0  0  0  0  0  0  0  0  0
   19.4781   -0.9121   50.1458 O   0  0  0  0  0  0  0  0  0  0  0  0
   20.2298   -1.3076   53.7763 O   0  0  0  0  0  0  0  0  0  0  0  0
   20.2390    1.4232   51.5497 O   0  0  0  0  0  0  0  0  0  0  0  0
   19.8430    0.0842   55.5949 O   0  0  0  0  0  0  0  0  0  0  0  0
   21.0666    0.3160   56.2674 C   0  0  2  0  0  0  0  0  0  0  0  0
   21.2693   -0.6335   57.4476 C   0  0  1  0  0  0  0  0  0  0  0  0
   20.1929   -0.4037   58.5438 C   0  0  2  0  0  0  0  0  0  0  0  0
   20.2771    1.0896   58.9780 C   0  0  1  0  0  0  0  0  0  0  0  0
   20.0121    1.9791   57.7191 C   0  0  1  0  0  0  0  0  0  0  0  0
   20.1210    3.4585   58.0138 C   0  0  0  0  0  0  0  0  0  0  0  0
   19.2349    1.3230   60.0474 N   0  0  0  0  0  0  0  0  0  0  0  0
   21.0705    1.6991   56.7414 O   0  0  0  0  0  0  0  0  0  0  0  0
   21.2022   -1.9798   56.9371 O   0  0  0  0  0  0  0  0  0  0  0  0
   20.5094   -1.2501   59.6639 O   0  0  0  0  0  0  0  0  0  0  0  0
   21.3675    3.7977   58.5176 O   0  0  0  0  0  0  0  0  0  0  0  0
   18.3066   -4.1129   48.9970 C   0  0  1  0  0  0  0  0  0  0  0  0
   17.4978   -5.2629   49.6973 C   0  0  1  0  0  0  0  0  0  0  0  0
   17.2923   -6.4370   48.6738 C   0  0  2  0  0  0  0  0  0  0  0  0
   16.5018   -5.9217   47.4617 C   0  0  1  0  0  0  0  0  0  0  0  0
   17.3217   -4.7767   46.7511 C   0  0  0  0  0  0  0  0  0  0  0  0
   17.5432   -3.6015   47.7827 C   0  0  2  0  0  0  0  0  0  0  0  0
   16.3022   -7.0211   46.5319 N   0  0  0  0  0  0  0  0  0  0  0  0
   18.3334   -2.5088   47.1570 N   0  0  0  0  0  0  0  0  0  0  0  0
   18.2435   -5.7543   50.8480 O   0  0  0  0  0  0  0  0  0  0  0  0
   16.5541   -7.4589   49.2896 O   0  0  0  0  0  0  0  0  0  0  0  0
  1  2  1  0  0  0  0
  1 12  1  1  0  0  0
  1 13  1  0  0  0  0
  2  3  1  0  0  0  0
  2 10  1  6  0  0  0
  4  3  1  6  0  0  0
  4  5  1  0  0  0  0
  4 14  1  0  0  0  0
  5  6  1  0  0  0  0
  5 13  1  6  0  0  0
  6  7  1  0  0  0  0
  6 15  1  1  0  0  0
  7  8  1  0  0  0  0
  7 11  1  1  0  0  0
  8 14  1  0  0  0  0
  8 16  1  1  0  0  0
  9 11  1  0  0  0  0
 17 16  1  1  0  0  0
 17 18  1  0  0  0  0
 17 24  1  0  0  0  0
 18 19  1  0  0  0  0
 18 25  1  6  0  0  0
 19 20  1  0  0  0  0
 19 26  1  1  0  0  0
 20 21  1  0  0  0  0
 20 23  1  1  0  0  0
 21 22  1  1  0  0  0
 21 24  1  0  0  0  0
 22 27  1  0  0  0  0
 28 12  1  1  0  0  0
 28 29  1  0  0  0  0
 28 33  1  0  0  0  0
 29 30  1  0  0  0  0
 29 36  1  1  0  0  0
 30 31  1  0  0  0  0
 30 37  1  1  0  0  0
 31 32  1  0  0  0  0
 31 34  1  6  0  0  0
 32 33  1  0  0  0  0
 33 35  1  6  0  0  0
M  END
>  <CHROM.1>
-85.25088472,-67.09830688,-141.84828621,-135.48433884,58.17229237,148.87718841
19.39785249,-1.46172421,52.92934806,-2.95367513,1.33563526,2.34439554

>  <Name>
2oe5_lig

>  <RI>
0

>  <Rbt.Current_Directory>
/home/itssahil/PROJECTS/Mol_Feturizer/New_Systems/rnas/2oe5

>  <Rbt.Executable>
rbdock ($Id: //depot/dev/client3/rdock/2013.1/src/exe/rbdock.cxx#4 $)

>  <Rbt.Library>
libRbt.so (2013.1, Build901 2013/11/27)

>  <Rbt.Parameter_File>
/export/apps/rDock/src/rDock_2013.1_src/data/scripts/dock_solv.prm

>  <Rbt.Receptor>
prm/pocket_docking_3.prm

>  <SCORE>
-18.1909

>  <SCORE.INTER>
-20.8123

>  <SCORE.INTER.CONST>
1

>  <SCORE.INTER.POLAR>
-1.90214

>  <SCORE.INTER.ROT>
6

>  <SCORE.INTER.SOLV>
17.5595

>  <SCORE.INTER.VDW>
-20.9875

>  <SCORE.INTER.norm>
-0.562494

>  <SCORE.INTRA>
1.92901

>  <SCORE.INTRA.DIHEDRAL>
1.55672

>  <SCORE.INTRA.DIHEDRAL.0>
16.2083

>  <SCORE.INTRA.POLAR>
0

>  <SCORE.INTRA.POLAR.0>
0

>  <SCORE.INTRA.REPUL>
0

>  <SCORE.INTRA.REPUL.0>
0

>  <SCORE.INTRA.SOLV>
1.39175

>  <SCORE.INTRA.SOLV.lig_0>
-89.8095

>  <SCORE.INTRA.VDW>
0.454779

>  <SCORE.INTRA.VDW.0>
-3.19502

>  <SCORE.INTRA.norm>
0.0521355

>  <SCORE.RESTR>
0.692371

>  <SCORE.RESTR.CAVITY>
0.692371

>  <SCORE.RESTR.norm>
0.0187127

>  <SCORE.SYSTEM>
0

>  <SCORE.SYSTEM.CONST>
0

>  <SCORE.SYSTEM.DIHEDRAL>
0

>  <SCORE.SYSTEM.SOLV>
0

>  <SCORE.SYSTEM.norm>
0

>  <SCORE.heavy>
37

>  <SCORE.norm>
-0.491646

>  <RMSD>
10.087

$$$$
2oe5_lig
 OpenBabel11021811463D
libRbt.so/2013.1/901 2013/11/27
 37 40  0  0  0  0  0  0  0  0999 V2000
   20.9356   -1.4425   49.6237 C   0  0  1  0  0  0  0  0  0  0  0  0
   22.3003   -1.6924   50.3038 C   0  0  1  0  0  0  0  0  0  0  0  0
   22.0728   -1.9809   51.8342 C   0  0  0  0  0  0  0  0  0  0  0  0
   21.3655   -0.7227   52.3858 C   0  0  1  0  0  0  0  0  0  0  0  0
   19.9638   -0.4780   51.6705 C   0  0  1  0  0  0  0  0  0  0  0  0
   19.2324    0.7789   52.2159 C   0  0  1  0  0  0  0  0  0  0  0  0
   19.0205    0.5515   53.7397 C   0  0  1  0  0  0  0  0  0  0  0  0
   20.4235    0.2694   54.3994 C   0  0  2  0  0  0  0  0  0  0  0  0
   18.9828    3.1202   54.2526 C   0  0  0  0  0  0  0  0  0  0  0  0
   22.9725   -2.8541   49.6777 N   0  0  0  0  0  0  0  0  0  0  0  0
   18.3560    1.7569   54.3642 N   0  0  0  0  0  0  0  0  0  0  0  0
   20.0844   -2.5985   49.6858 O   0  0  0  0  0  0  0  0  0  0  0  0
   20.2070   -0.3209   50.2351 O   0  0  0  0  0  0  0  0  0  0  0  0
   21.1129   -0.8929   53.8063 O   0  0  0  0  0  0  0  0  0  0  0  0
   20.0610    1.9172   51.9592 O   0  0  0  0  0  0  0  0  0  0  0  0
   20.2634   -0.0052   55.7772 O   0  0  0  0  0  0  0  0  0  0  0  0
   21.4628    0.2758   56.4739 C   0  0  2  0  0  0  0  0  0  0  0  0
   21.5760   -0.5142   57.7771 C   0  0  1  0  0  0  0  0  0  0  0  0
   20.4601   -0.1076   58.7784 C   0  0  2  0  0  0  0  0  0  0  0  0
   20.5801    1.4269   59.0166 C   0  0  1  0  0  0  0  0  0  0  0  0
   20.4061    2.1489   57.6401 C   0  0  1  0  0  0  0  0  0  0  0  0
   20.5566    3.6503   57.7433 C   0  0  0  0  0  0  0  0  0  0  0  0
   19.4997    1.8324   59.9925 N   0  0  0  0  0  0  0  0  0  0  0  0
   21.4967    1.7089   56.7619 O   0  0  0  0  0  0  0  0  0  0  0  0
   21.4820   -1.9137   57.4450 O   0  0  0  0  0  0  0  0  0  0  0  0
   20.6935   -0.8070   60.0143 O   0  0  0  0  0  0  0  0  0  0  0  0
   20.5821    4.2569   56.4966 O   0  0  0  0  0  0  0  0  0  0  0  0
   19.5801   -3.0221   48.4189 C   0  0  1  0  0  0  0  0  0  0  0  0
   20.7733   -3.3162   47.4409 C   0  0  1  0  0  0  0  0  0  0  0  0
   20.1944   -3.7926   46.0602 C   0  0  2  0  0  0  0  0  0  0  0  0
   19.3762   -5.0760   46.2681 C   0  0  1  0  0  0  0  0  0  0  0  0
   18.1700   -4.7755   47.2392 C   0  0  0  0  0  0  0  0  0  0  0  0
   18.7489   -4.2815   48.6231 C   0  0  2  0  0  0  0  0  0  0  0  0
   18.8623   -5.5164   44.9816 N   0  0  0  0  0  0  0  0  0  0  0  0
   17.6404   -3.9657   49.5619 N   0  0  0  0  0  0  0  0  0  0  0  0
   21.5525   -2.1019   47.2413 O   0  0  0  0  0  0  0  0  0  0  0  0
   21.2576   -4.0742   45.1892 O   0  0  0  0  0  0  0  0  0  0  0  0
  1  2  1  0  0  0  0
  1 12  1  1  0  0  0
  1 13  1  0  0  0  0
  2  3  1  0  0  0  0
  2 10  1  6  0  0  0
  4  3  1  6  0  0  0
  4  5  1  0  0  0  0
  4 14  1  0  0  0  0
  5  6  1  0  0  0  0
  5 13  1  6  0  0  0
  6  7  1  0  0  0  0
  6 15  1  1  0  0  0
  7  8  1  0  0  0  0
  7 11  1  1  0  0  0
  8 14  1  0  0  0  0
  8 16  1  1  0  0  0
  9 11  1  0  0  0  0
 17 16  1  1  0  0  0
 17 18  1  0  0  0  0
 17 24  1  0  0  0  0
 18 19  1  0  0  0  0
 18 25  1  6  0  0  0
 19 20  1  0  0  0  0
 19 26  1  1  0  0  0
 20 21  1  0  0  0  0
 20 23  1  1  0  0  0
 21 22  1  1  0  0  0
 21 24  1  0  0  0  0
 22 27  1  0  0  0  0
 28 12  1  1  0  0  0
 28 29  1  0  0  0  0
 28 33  1  0  0  0  0
 29 30  1  0  0  0  0
 29 36  1  6  0  0  0
 30 31  1  0  0  0  0
 30 37  1  6  0  0  0
 31 32  1  0  0  0  0
 31 34  1  6  0  0  0
 32 33  1  0  0  0  0
 33 35  1  1  0  0  0
M  END
>  <CHROM.1>
-126.33957639,-57.04176875,-156.21336678,-155.79398524,171.77902592,57.14766148
20.34804134,-0.84612445,52.60287664,1.78043075,1.37539416,-2.22943182

>  <Name>
2oe5_lig

>  <RI>
0

>  <Rbt.Current_Directory>
/home/itssahil/PROJECTS/Mol_Feturizer/New_Systems/rnas/2oe5

>  <Rbt.Executable>
rbdock ($Id: //depot/dev/client3/rdock/2013.1/src/exe/rbdock.cxx#4 $)

>  <Rbt.Library>
libRbt.so (2013.1, Build901 2013/11/27)

>  <Rbt.Parameter_File>
/export/apps/rDock/src/rDock_2013.1_src/data/scripts/dock_solv.prm

>  <Rbt.Receptor>
prm/pocket_docking_2.prm

>  <SCORE>
-12.7222

>  <SCORE.INTER>
-15.3178

>  <SCORE.INTER.CONST>
1

>  <SCORE.INTER.POLAR>
-1.9996

>  <SCORE.INTER.ROT>
6

>  <SCORE.INTER.SOLV>
14.5001

>  <SCORE.INTER.VDW>
-15.9799

>  <SCORE.INTER.norm>
-0.413995

>  <SCORE.INTRA>
1.23455

>  <SCORE.INTRA.DIHEDRAL>
-3.95184

>  <SCORE.INTRA.DIHEDRAL.0>
16.2083

>  <SCORE.INTRA.POLAR>
0

>  <SCORE.INTRA.POLAR.0>
0

>  <SCORE.INTRA.REPUL>
0

>  <SCORE.INTRA.REPUL.0>
0

>  <SCORE.INTRA.SOLV>
-0.444845

>  <SCORE.INTRA.SOLV.lig_0>
-89.8095

>  <SCORE.INTRA.VDW>
3.43289

>  <SCORE.INTRA.VDW.0>
-3.19502

>  <SCORE.INTRA.norm>
0.0333662

>  <SCORE.RESTR>
1.36105

>  <SCORE.RESTR.CAVITY>
1.36105

>  <SCORE.RESTR.norm>
0.0367851

>  <SCORE.SYSTEM>
0

>  <SCORE.SYSTEM.CONST>
0

>  <SCORE.SYSTEM.DIHEDRAL>
0

>  <SCORE.SYSTEM.SOLV>
0

>  <SCORE.SYSTEM.norm>
0

>  <SCORE.heavy>
37

>  <SCORE.norm>
-0.343843

>  <RMSD>
10.091

$$$$
2oe5_lig
 OpenBabel11021811463D
libRbt.so/2013.1/901 2013/11/27
 37 40  0  0  0  0  0  0  0  0999 V2000
   21.3248   -1.2786   52.0231 C   0  0  1  0  0  0  0  0  0  0  0  0
   20.2694   -0.2369   51.5891 C   0  0  1  0  0  0  0  0  0  0  0  0
   20.7808    1.2052   51.9576 C   0  0  0  0  0  0  0  0  0  0  0  0
   20.9886    1.1854   53.4886 C   0  0  1  0  0  0  0  0  0  0  0  0
   22.0753    0.1034   53.9181 C   0  0  1  0  0  0  0  0  0  0  0  0
   22.3049    0.0722   55.4539 C   0  0  1  0  0  0  0  0  0  0  0  0
   22.7769    1.4950   55.8682 C   0  0  1  0  0  0  0  0  0  0  0  0
   21.6970    2.5363   55.3859 C   0  0  2  0  0  0  0  0  0  0  0  0
   24.1047    0.8236   58.0243 C   0  0  0  0  0  0  0  0  0  0  0  0
   20.0457   -0.3221   50.1275 N   0  0  0  0  0  0  0  0  0  0  0  0
   22.9759    1.5682   57.3647 N   0  0  0  0  0  0  0  0  0  0  0  0
   22.5677   -1.1087   51.3222 O   0  0  0  0  0  0  0  0  0  0  0  0
   21.6140   -1.2099   53.4634 O   0  0  0  0  0  0  0  0  0  0  0  0
   21.4619    2.4862   53.9298 O   0  0  0  0  0  0  0  0  0  0  0  0
   21.0656   -0.2786   56.0777 O   0  0  0  0  0  0  0  0  0  0  0  0
   22.1227    3.8500   55.6898 O   0  0  0  0  0  0  0  0  0  0  0  0
   21.0755    4.7709   55.4486 C   0  0  2  0  0  0  0  0  0  0  0  0
   21.4717    6.2051   55.7973 C   0  0  1  0  0  0  0  0  0  0  0  0
   21.7561    6.3548   57.3171 C   0  0  2  0  0  0  0  0  0  0  0  0
   20.4757    5.9035   58.0805 C   0  0  1  0  0  0  0  0  0  0  0  0
   20.1779    4.4168   57.6967 C   0  0  1  0  0  0  0  0  0  0  0  0
   18.9181    3.8860   58.3438 C   0  0  0  0  0  0  0  0  0  0  0  0
   20.7411    6.0482   59.5612 N   0  0  0  0  0  0  0  0  0  0  0  0
   19.9219    4.3691   56.2522 O   0  0  0  0  0  0  0  0  0  0  0  0
   22.6420    6.5320   55.0220 O   0  0  0  0  0  0  0  0  0  0  0  0
   22.0140    7.7444   57.5878 O   0  0  0  0  0  0  0  0  0  0  0  0
   19.0253    3.8347   59.7253 O   0  0  0  0  0  0  0  0  0  0  0  0
   23.4886   -2.1861   51.4953 C   0  0  1  0  0  0  0  0  0  0  0  0
   23.0936   -3.3817   50.5564 C   0  0  1  0  0  0  0  0  0  0  0  0
   24.1275   -4.5479   50.7547 C   0  0  2  0  0  0  0  0  0  0  0  0
   25.5325   -4.0497   50.3837 C   0  0  1  0  0  0  0  0  0  0  0  0
   25.9335   -2.8585   51.3367 C   0  0  0  0  0  0  0  0  0  0  0  0
   24.8866   -1.6906   51.1507 C   0  0  2  0  0  0  0  0  0  0  0  0
   26.4760   -5.1425   50.5533 N   0  0  0  0  0  0  0  0  0  0  0  0
   25.2173   -0.5542   52.0502 N   0  0  0  0  0  0  0  0  0  0  0  0
   21.7615   -3.8570   50.9043 O   0  0  0  0  0  0  0  0  0  0  0  0
   23.7890   -5.6110   49.9042 O   0  0  0  0  0  0  0  0  0  0  0  0
  1  2  1  0  0  0  0
  1 12  1  6  0  0  0
  1 13  1  0  0  0  0
  2  3  1  0  0  0  0
  2 10  1  6  0  0  0
  4  3  1  6  0  0  0
  4  5  1  0  0  0  0
  4 14  1  0  0  0  0
  5  6  1  0  0  0  0
  5 13  1  1  0  0  0
  6  7  1  0  0  0  0
  6 15  1  1  0  0  0
  7  8  1  0  0  0  0
  7 11  1  1  0  0  0
  8 14  1  0  0  0  0
  8 16  1  6  0  0  0
  9 11  1  0  0  0  0
 17 16  1  1  0  0  0
 17 18  1  0  0  0  0
 17 24  1  0  0  0  0
 18 19  1  0  0  0  0
 18 25  1  6  0  0  0
 19 20  1  0  0  0  0
 19 26  1  6  0  0  0
 20 21  1  0  0  0  0
 20 23  1  1  0  0  0
 21 22  1  1  0  0  0
 21 24  1  0  0  0  0
 22 27  1  0  0  0  0
 28 12  1  6  0  0  0
 28 29  1  0  0  0  0
 28 33  1  0  0  0  0
 29 30  1  0  0  0  0
 29 36  1  1  0  0  0
 30 31  1  0  0  0  0
 30 37  1  6  0  0  0
 31 32  1  0  0  0  0
 31 34  1  1  0  0  0
 32 33  1  0  0  0  0
 33 35  1  1  0  0  0
M  END
>  <CHROM.1>
-168.85010038,69.29208106,-171.05038503,178.46858352,-64.41117960,79.58523155
22.16119494,1.02603546,54.23634281,1.27185463,0.49839157,-2.33431896

>  <Name>
2oe5_lig

>  <RI>
0

>  <Rbt.Current_Directory>
/home/itssahil/PROJECTS/Mol_Feturizer/New_Systems/rnas/2oe5

>  <Rbt.Executable>
rbdock ($Id: //depot/dev/client3/rdock/2013.1/src/exe/rbdock.cxx#4 $)

>  <Rbt.Library>
libRbt.so (2013.1, Build901 2013/11/27)

>  <Rbt.Parameter_File>
/export/apps/rDock/src/rDock_2013.1_src/data/scripts/dock_solv.prm

>  <Rbt.Receptor>
prm/pocket_docking_7.prm

>  <SCORE>
-14.1424

>  <SCORE.INTER>
-7.96497

>  <SCORE.INTER.CONST>
1

>  <SCORE.INTER.POLAR>
-1.0198

>  <SCORE.INTER.ROT>
6

>  <SCORE.INTER.SOLV>
10.9547

>  <SCORE.INTER.VDW>
-13.1622

>  <SCORE.INTER.norm>
-0.21527

>  <SCORE.INTRA>
-6.17738

>  <SCORE.INTRA.DIHEDRAL>
-13.2509

>  <SCORE.INTRA.DIHEDRAL.0>
16.2083

>  <SCORE.INTRA.POLAR>
0

>  <SCORE.INTRA.POLAR.0>
0

>  <SCORE.INTRA.REPUL>
0

>  <SCORE.INTRA.REPUL.0>
0

>  <SCORE.INTRA.SOLV>
-1.25526

>  <SCORE.INTRA.SOLV.lig_0>
-89.8095

>  <SCORE.INTRA.VDW>
1.07568

>  <SCORE.INTRA.VDW.0>
-3.19502

>  <SCORE.INTRA.norm>
-0.166956

>  <SCORE.RESTR>
0

>  <SCORE.RESTR.CAVITY>
0

>  <SCORE.RESTR.norm>
0

>  <SCORE.SYSTEM>
0

>  <SCORE.SYSTEM.CONST>
0

>  <SCORE.SYSTEM.DIHEDRAL>
0

>  <SCORE.SYSTEM.SOLV>
0

>  <SCORE.SYSTEM.norm>
0

>  <SCORE.heavy>
37

>  <SCORE.norm>
-0.382226

>  <RMSD>
10.095

$$$$
2oe5_lig
 OpenBabel11021811463D
libRbt.so/2013.1/901 2013/11/27
 37 40  0  0  0  0  0  0  0  0999 V2000
   21.2436   -1.3489   52.6809 C   0  0  1  0  0  0  0  0  0  0  0  0
   19.8819   -0.7121   52.3233 C   0  0  1  0  0  0  0  0  0  0  0  0
   19.7558    0.6822   53.0424 C   0  0  0  0  0  0  0  0  0  0  0  0
   19.8803    0.3756   54.5517 C   0  0  1  0  0  0  0  0  0  0  0  0
   21.2869   -0.2843   54.9011 C   0  0  1  0  0  0  0  0  0  0  0  0
   21.4356   -0.5941   56.4157 C   0  0  1  0  0  0  0  0  0  0  0  0
   21.2790    0.7570   57.1698 C   0  0  1  0  0  0  0  0  0  0  0  0
   19.8974    1.3958   56.7620 C   0  0  2  0  0  0  0  0  0  0  0  0
   22.6089    0.8950   59.4225 C   0  0  0  0  0  0  0  0  0  0  0  0
   19.7815   -0.5219   50.8580 N   0  0  0  0  0  0  0  0  0  0  0  0
   21.3599    0.5385   58.6632 N   0  0  0  0  0  0  0  0  0  0  0  0
   22.3470   -0.5590   52.2083 O   0  0  0  0  0  0  0  0  0  0  0  0
   21.4116   -1.5238   54.1314 O   0  0  0  0  0  0  0  0  0  0  0  0
   19.7723    1.6117   55.3074 O   0  0  0  0  0  0  0  0  0  0  0  0
   20.4115   -1.5259   56.7777 O   0  0  0  0  0  0  0  0  0  0  0  0
   19.7473    2.6584   57.3805 O   0  0  0  0  0  0  0  0  0  0  0  0
   19.2690    2.5006   58.7031 C   0  0  2  0  0  0  0  0  0  0  0  0
   17.7441    2.4195   58.7633 C   0  0  1  0  0  0  0  0  0  0  0  0
   17.0925    3.7471   58.2879 C   0  0  2  0  0  0  0  0  0  0  0  0
   17.6496    4.8910   59.1862 C   0  0  1  0  0  0  0  0  0  0  0  0
   19.2048    4.9252   59.0232 C   0  0  1  0  0  0  0  0  0  0  0  0
   19.8621    5.9713   59.8956 C   0  0  0  0  0  0  0  0  0  0  0  0
   17.0190    6.1876   58.7334 N   0  0  0  0  0  0  0  0  0  0  0  0
   19.7335    3.6394   59.4939 O   0  0  0  0  0  0  0  0  0  0  0  0
   17.3354    1.3192   57.9266 O   0  0  0  0  0  0  0  0  0  0  0  0
   15.6697    3.6373   58.4743 O   0  0  0  0  0  0  0  0  0  0  0  0
   19.6241    5.7485   61.2433 O   0  0  0  0  0  0  0  0  0  0  0  0
   23.6149   -1.2084   52.3054 C   0  0  1  0  0  0  0  0  0  0  0  0
   23.7582   -2.2732   51.1597 C   0  0  1  0  0  0  0  0  0  0  0  0
   25.1643   -2.9638   51.2793 C   0  0  2  0  0  0  0  0  0  0  0  0
   26.2655   -1.9030   51.1314 C   0  0  1  0  0  0  0  0  0  0  0  0
   26.1290   -0.8424   52.2910 C   0  0  0  0  0  0  0  0  0  0  0  0
   24.7100   -0.1575   52.1824 C   0  0  2  0  0  0  0  0  0  0  0  0
   27.5603   -2.5570   51.2250 N   0  0  0  0  0  0  0  0  0  0  0  0
   24.5325    0.8359   53.2740 N   0  0  0  0  0  0  0  0  0  0  0  0
   22.7154   -3.2810   51.2956 O   0  0  0  0  0  0  0  0  0  0  0  0
   25.3039   -3.9028   50.2463 O   0  0  0  0  0  0  0  0  0  0  0  0
  1  2  1  0  0  0  0
  1 12  1  1  0  0  0
  1 13  1  0  0  0  0
  2  3  1  0  0  0  0
  2 10  1  6  0  0  0
  4  3  1  6  0  0  0
  4  5  1  0  0  0  0
  4 14  1  0  0  0  0
  5  6  1  0  0  0  0
  5 13  1  6  0  0  0
  6  7  1  0  0  0  0
  6 15  1  1  0  0  0
  7  8  1  0  0  0  0
  7 11  1  1  0  0  0
  8 14  1  0  0  0  0
  8 16  1  1  0  0  0
  9 11  1  0  0  0  0
 17 16  1  6  0  0  0
 17 18  1  0  0  0  0
 17 24  1  0  0  0  0
 18 19  1  0  0  0  0
 18 25  1  6  0  0  0
 19 20  1  0  0  0  0
 19 26  1  1  0  0  0
 20 21  1  0  0  0  0
 20 23  1  6  0  0  0
 21 22  1  1  0  0  0
 21 24  1  0  0  0  0
 22 27  1  0  0  0  0
 28 12  1  6  0  0  0
 28 29  1  0  0  0  0
 28 33  1  0  0  0  0
 29 30  1  0  0  0  0
 29 36  1  1  0  0  0
 30 31  1  0  0  0  0
 30 37  1  6  0  0  0
 31 32  1  0  0  0  0
 31 34  1  1  0  0  0
 32 33  1  0  0  0  0
 33 35  1  1  0  0  0
M  END
>  <CHROM.1>
-169.73439817,103.60108165,-82.91737385,-86.34237126,60.52063294,76.39819685
21.10754140,0.77689330,55.40761617,1.01778189,0.12025365,-2.16957625

>  <Name>
2oe5_lig

>  <RI>
0

>  <Rbt.Current_Directory>
/home/itssahil/PROJECTS/Mol_Feturizer/New_Systems/rnas/2oe5

>  <Rbt.Executable>
rbdock ($Id: //depot/dev/client3/rdock/2013.1/src/exe/rbdock.cxx#4 $)

>  <Rbt.Library>
libRbt.so (2013.1, Build901 2013/11/27)

>  <Rbt.Parameter_File>
/export/apps/rDock/src/rDock_2013.1_src/data/scripts/dock_solv.prm

>  <Rbt.Receptor>
prm/pocket_docking_8.prm

>  <SCORE>
-21.2936

>  <SCORE.INTER>
-17.3365

>  <SCORE.INTER.CONST>
1

>  <SCORE.INTER.POLAR>
-2.56895

>  <SCORE.INTER.ROT>
6

>  <SCORE.INTER.SOLV>
12.8666

>  <SCORE.INTER.VDW>
-14.8834

>  <SCORE.INTER.norm>
-0.468554

>  <SCORE.INTRA>
-3.9571

>  <SCORE.INTRA.DIHEDRAL>
-8.18213

>  <SCORE.INTRA.DIHEDRAL.0>
16.2083

>  <SCORE.INTRA.POLAR>
0

>  <SCORE.INTRA.POLAR.0>
0

>  <SCORE.INTRA.REPUL>
0

>  <SCORE.INTRA.REPUL.0>
0

>  <SCORE.INTRA.SOLV>
-0.940514

>  <SCORE.INTRA.SOLV.lig_0>
-89.8095

>  <SCORE.INTRA.VDW>
0.604216

>  <SCORE.INTRA.VDW.0>
-3.19502

>  <SCORE.INTRA.norm>
-0.106949

>  <SCORE.RESTR>
0

>  <SCORE.RESTR.CAVITY>
0

>  <SCORE.RESTR.norm>
0

>  <SCORE.SYSTEM>
0

>  <SCORE.SYSTEM.CONST>
0

>  <SCORE.SYSTEM.DIHEDRAL>
0

>  <SCORE.SYSTEM.SOLV>
0

>  <SCORE.SYSTEM.norm>
0

>  <SCORE.heavy>
37

>  <SCORE.norm>
-0.575503

>  <RMSD>
10.097

$$$$
2oe5_lig
 OpenBabel11021811463D
libRbt.so/2013.1/901 2013/11/27
 37 40  0  0  0  0  0  0  0  0999 V2000
   19.7413   -2.8062   49.4558 C   0  0  1  0  0  0  0  0  0  0  0  0
   20.8355   -3.6166   50.1862 C   0  0  1  0  0  0  0  0  0  0  0  0
   20.6379   -3.4723   51.7410 C   0  0  0  0  0  0  0  0  0  0  0  0
   20.7426   -1.9574   52.0267 C   0  0  1  0  0  0  0  0  0  0  0  0
   19.6110   -1.1378   51.2624 C   0  0  1  0  0  0  0  0  0  0  0  0
   19.6939    0.3877   51.5420 C   0  0  1  0  0  0  0  0  0  0  0  0
   19.5407    0.5734   53.0785 C   0  0  1  0  0  0  0  0  0  0  0  0
   20.6488   -0.2875   53.7955 C   0  0  2  0  0  0  0  0  0  0  0  0
   18.6197    2.6956   54.3076 C   0  0  0  0  0  0  0  0  0  0  0  0
   20.7439   -5.0456   49.8082 N   0  0  0  0  0  0  0  0  0  0  0  0
   19.6613    2.0345   53.4464 N   0  0  0  0  0  0  0  0  0  0  0  0
   18.4240   -3.3079   49.7353 O   0  0  0  0  0  0  0  0  0  0  0  0
   19.7626   -1.3833   49.8268 O   0  0  0  0  0  0  0  0  0  0  0  0
   20.5747   -1.7204   53.4501 O   0  0  0  0  0  0  0  0  0  0  0  0
   20.9642    0.8530   51.0751 O   0  0  0  0  0  0  0  0  0  0  0  0
   20.5012   -0.1936   55.1986 O   0  0  0  0  0  0  0  0  0  0  0  0
   20.9813    1.0561   55.6577 C   0  0  2  0  0  0  0  0  0  0  0  0
   22.4426    0.9897   56.1002 C   0  0  1  0  0  0  0  0  0  0  0  0
   22.6155    0.0515   57.3262 C   0  0  2  0  0  0  0  0  0  0  0  0
   21.6888    0.5845   58.4589 C   0  0  1  0  0  0  0  0  0  0  0  0
   20.2167    0.5722   57.9307 C   0  0  1  0  0  0  0  0  0  0  0  0
   19.2293    1.1220   58.9357 C   0  0  0  0  0  0  0  0  0  0  0  0
   21.8519   -0.3204   59.6583 N   0  0  0  0  0  0  0  0  0  0  0  0
   20.1455    1.4805   56.7798 O   0  0  0  0  0  0  0  0  0  0  0  0
   23.2138    0.5152   54.9786 O   0  0  0  0  0  0  0  0  0  0  0  0
   23.9881    0.1232   57.7525 O   0  0  0  0  0  0  0  0  0  0  0  0
   17.9162    0.9113   58.5430 O   0  0  0  0  0  0  0  0  0  0  0  0
   17.7743   -3.9025   48.6115 C   0  0  1  0  0  0  0  0  0  0  0  0
   18.2037   -3.1631   47.2940 C   0  0  1  0  0  0  0  0  0  0  0  0
   17.4872   -3.8428   46.0720 C   0  0  2  0  0  0  0  0  0  0  0  0
   17.9102   -5.3174   45.9912 C   0  0  1  0  0  0  0  0  0  0  0  0
   17.4656   -6.0619   47.3089 C   0  0  0  0  0  0  0  0  0  0  0  0
   18.1724   -5.3706   48.5406 C   0  0  2  0  0  0  0  0  0  0  0  0
   17.2558   -5.9294   44.8465 N   0  0  0  0  0  0  0  0  0  0  0  0
   17.7612   -6.0306   49.8076 N   0  0  0  0  0  0  0  0  0  0  0  0
   17.8051   -1.7640   47.3665 O   0  0  0  0  0  0  0  0  0  0  0  0
   17.8825   -3.1971   44.8909 O   0  0  0  0  0  0  0  0  0  0  0  0
  1  2  1  0  0  0  0
  1 12  1  1  0  0  0
  1 13  1  0  0  0  0
  2  3  1  0  0  0  0
  2 10  1  6  0  0  0
  4  3  1  1  0  0  0
  4  5  1  0  0  0  0
  4 14  1  0  0  0  0
  5  6  1  0  0  0  0
  5 13  1  6  0  0  0
  6  7  1  0  0  0  0
  6 15  1  1  0  0  0
  7  8  1  0  0  0  0
  7 11  1  6  0  0  0
  8 14  1  0  0  0  0
  8 16  1  1  0  0  0
  9 11  1  0  0  0  0
 17 16  1  1  0  0  0
 17 18  1  0  0  0  0
 17 24  1  0  0  0  0
 18 19  1  0  0  0  0
 18 25  1  6  0  0  0
 19 20  1  0  0  0  0
 19 26  1  1  0  0  0
 20 21  1  0  0  0  0
 20 23  1  1  0  0  0
 21 22  1  1  0  0  0
 21 24  1  0  0  0  0
 22 27  1  0  0  0  0
 28 12  1  1  0  0  0
 28 29  1  0  0  0  0
 28 33  1  0  0  0  0
 29 30  1  0  0  0  0
 29 36  1  1  0  0  0
 30 31  1  0  0  0  0
 30 37  1  6  0  0  0
 31 32  1  0  0  0  0
 31 34  1  6  0  0  0
 32 33  1  0  0  0  0
 33 35  1  1  0  0  0
M  END
>  <CHROM.1>
-112.42139437,129.10548446,-75.94033973,-93.53200990,-170.47597300,-33.29349877
19.81019636,-1.46533377,52.26941562,-2.12952512,-1.07633467,0.59545851

>  <Name>
2oe5_lig

>  <RI>
0

>  <Rbt.Current_Directory>
/home/itssahil/PROJECTS/Mol_Feturizer/New_Systems/rnas/2oe5

>  <Rbt.Executable>
rbdock ($Id: //depot/dev/client3/rdock/2013.1/src/exe/rbdock.cxx#4 $)

>  <Rbt.Library>
libRbt.so (2013.1, Build901 2013/11/27)

>  <Rbt.Parameter_File>
/export/apps/rDock/src/rDock_2013.1_src/data/scripts/dock_solv.prm

>  <Rbt.Receptor>
prm/pocket_docking_8.prm

>  <SCORE>
-14.7189

>  <SCORE.INTER>
-18.8001

>  <SCORE.INTER.CONST>
1

>  <SCORE.INTER.POLAR>
-2.89281

>  <SCORE.INTER.ROT>
6

>  <SCORE.INTER.SOLV>
14.7242

>  <SCORE.INTER.VDW>
-15.3988

>  <SCORE.INTER.norm>
-0.508111

>  <SCORE.INTRA>
4.07523

>  <SCORE.INTRA.DIHEDRAL>
0.576868

>  <SCORE.INTRA.DIHEDRAL.0>
16.2083

>  <SCORE.INTRA.POLAR>
0

>  <SCORE.INTRA.POLAR.0>
0

>  <SCORE.INTRA.REPUL>
0

>  <SCORE.INTRA.REPUL.0>
0

>  <SCORE.INTRA.SOLV>
1.94298

>  <SCORE.INTRA.SOLV.lig_0>
-89.8095

>  <SCORE.INTRA.VDW>
2.81531

>  <SCORE.INTRA.VDW.0>
-3.19502

>  <SCORE.INTRA.norm>
0.110141

>  <SCORE.RESTR>
0.0060323

>  <SCORE.RESTR.CAVITY>
0.0060323

>  <SCORE.RESTR.norm>
0.000163035

>  <SCORE.SYSTEM>
0

>  <SCORE.SYSTEM.CONST>
0

>  <SCORE.SYSTEM.DIHEDRAL>
0

>  <SCORE.SYSTEM.SOLV>
0

>  <SCORE.SYSTEM.norm>
0

>  <SCORE.heavy>
37

>  <SCORE.norm>
-0.397807

>  <RMSD>
10.102

$$$$
2oe5_lig
 OpenBabel11021811463D
libRbt.so/2013.1/901 2013/11/27
 37 40  0  0  0  0  0  0  0  0999 V2000
   20.4300   -5.1457   47.9435 C   0  0  1  0  0  0  0  0  0  0  0  0
   21.6089   -4.3275   47.3707 C   0  0  1  0  0  0  0  0  0  0  0  0
   22.4816   -3.7733   48.5575 C   0  0  0  0  0  0  0  0  0  0  0  0
   21.5205   -2.9044   49.3995 C   0  0  1  0  0  0  0  0  0  0  0  0
   20.3097   -3.7625   49.9773 C   0  0  1  0  0  0  0  0  0  0  0  0
   19.3348   -2.9088   50.8335 C   0  0  1  0  0  0  0  0  0  0  0  0
   20.1679   -2.3087   52.0017 C   0  0  1  0  0  0  0  0  0  0  0  0
   21.3779   -1.5073   51.3879 C   0  0  2  0  0  0  0  0  0  0  0  0
   18.7988   -0.1001   52.3345 C   0  0  0  0  0  0  0  0  0  0  0  0
   22.4463   -5.1867   46.5024 N   0  0  0  0  0  0  0  0  0  0  0  0
   19.3020   -1.4166   52.8613 N   0  0  0  0  0  0  0  0  0  0  0  0
   20.8803   -6.2978   48.6748 O   0  0  0  0  0  0  0  0  0  0  0  0
   19.5867   -4.3481   48.8466 O   0  0  0  0  0  0  0  0  0  0  0  0
   22.2407   -2.3406   50.5282 O   0  0  0  0  0  0  0  0  0  0  0  0
   18.7877   -1.8882   49.9926 O   0  0  0  0  0  0  0  0  0  0  0  0
   22.1957   -0.9986   52.4232 O   0  0  0  0  0  0  0  0  0  0  0  0
   22.9523    0.1009   51.9525 C   0  0  2  0  0  0  0  0  0  0  0  0
   24.0993    0.4625   52.8954 C   0  0  1  0  0  0  0  0  0  0  0  0
   23.5637    0.9418   54.2725 C   0  0  2  0  0  0  0  0  0  0  0  0
   22.6205    2.1537   54.0129 C   0  0  1  0  0  0  0  0  0  0  0  0
   21.4590    1.6765   53.0806 C   0  0  1  0  0  0  0  0  0  0  0  0
   20.5039    2.7916   52.7173 C   0  0  0  0  0  0  0  0  0  0  0  0
   22.0959    2.6297   55.3479 N   0  0  0  0  0  0  0  0  0  0  0  0
   22.0527    1.2446   51.8096 O   0  0  0  0  0  0  0  0  0  0  0  0
   24.9231   -0.7108   53.0456 O   0  0  0  0  0  0  0  0  0  0  0  0
   24.6875    1.3665   55.0648 O   0  0  0  0  0  0  0  0  0  0  0  0
   19.8490    3.2980   53.8297 O   0  0  0  0  0  0  0  0  0  0  0  0
   21.3617   -7.3610   47.8523 C   0  0  1  0  0  0  0  0  0  0  0  0
   22.2598   -8.3290   48.7028 C   0  0  1  0  0  0  0  0  0  0  0  0
   22.7659   -9.4959   47.7806 C   0  0  2  0  0  0  0  0  0  0  0  0
   21.5578  -10.2701   47.2319 C   0  0  1  0  0  0  0  0  0  0  0  0
   20.6645   -9.3002   46.3662 C   0  0  0  0  0  0  0  0  0  0  0  0
   20.1671   -8.1175   47.2873 C   0  0  2  0  0  0  0  0  0  0  0  0
   22.0397  -11.3575   46.3962 N   0  0  0  0  0  0  0  0  0  0  0  0
   19.3376   -7.1665   46.5015 N   0  0  0  0  0  0  0  0  0  0  0  0
   23.4065   -7.5988   49.2258 O   0  0  0  0  0  0  0  0  0  0  0  0
   23.5536  -10.3733   48.5409 O   0  0  0  0  0  0  0  0  0  0  0  0
  1  2  1  0  0  0  0
  1 12  1  1  0  0  0
  1 13  1  0  0  0  0
  2  3  1  0  0  0  0
  2 10  1  6  0  0  0
  4  3  1  1  0  0  0
  4  5  1  0  0  0  0
  4 14  1  0  0  0  0
  5  6  1  0  0  0  0
  5 13  1  6  0  0  0
  6  7  1  0  0  0  0
  6 15  1  6  0  0  0
  7  8  1  0  0  0  0
  7 11  1  6  0  0  0
  8 14  1  0  0  0  0
  8 16  1  1  0  0  0
  9 11  1  0  0  0  0
 17 16  1  1  0  0  0
 17 18  1  0  0  0  0
 17 24  1  0  0  0  0
 18 19  1  0  0  0  0
 18 25  1  1  0  0  0
 19 20  1  0  0  0  0
 19 26  1  1  0  0  0
 20 21  1  0  0  0  0
 20 23  1  1  0  0  0
 21 22  1  6  0  0  0
 21 24  1  0  0  0  0
 22 27  1  0  0  0  0
 28 12  1  1  0  0  0
 28 29  1  0  0  0  0
 28 33  1  0  0  0  0
 29 30  1  0  0  0  0
 29 36  1  6  0  0  0
 30 31  1  0  0  0  0
 30 37  1  1  0  0  0
 31 32  1  0  0  0  0
 31 34  1  6  0  0  0
 32 33  1  0  0  0  0
 33 35  1  6  0  0  0
M  END
>  <CHROM.1>
-74.24660452,-69.57281909,-157.89704025,-165.31737019,-63.30323265,160.68729863
21.56281030,-3.26938693,50.40437463,1.60447981,0.36356326,-2.60858199

>  <Name>
2oe5_lig

>  <RI>
0

>  <Rbt.Current_Directory>
/home/itssahil/PROJECTS/Mol_Feturizer/New_Systems/rnas/2oe5

>  <Rbt.Executable>
rbdock ($Id: //depot/dev/client3/rdock/2013.1/src/exe/rbdock.cxx#4 $)

>  <Rbt.Library>
libRbt.so (2013.1, Build901 2013/11/27)

>  <Rbt.Parameter_File>
/export/apps/rDock/src/rDock_2013.1_src/data/scripts/dock_solv.prm

>  <Rbt.Receptor>
prm/pocket_docking_7.prm

>  <SCORE>
-12.3752

>  <SCORE.INTER>
-10.7708

>  <SCORE.INTER.CONST>
1

>  <SCORE.INTER.POLAR>
-0.716646

>  <SCORE.INTER.ROT>
6

>  <SCORE.INTER.SOLV>
9.97716

>  <SCORE.INTER.VDW>
-15.7174

>  <SCORE.INTER.norm>
-0.291103

>  <SCORE.INTRA>
-1.60437

>  <SCORE.INTRA.DIHEDRAL>
-10.2152

>  <SCORE.INTRA.DIHEDRAL.0>
16.2083

>  <SCORE.INTRA.POLAR>
0

>  <SCORE.INTRA.POLAR.0>
0

>  <SCORE.INTRA.REPUL>
0

>  <SCORE.INTRA.REPUL.0>
0

>  <SCORE.INTRA.SOLV>
2.86679

>  <SCORE.INTRA.SOLV.lig_0>
-89.8095

>  <SCORE.INTRA.VDW>
2.06986

>  <SCORE.INTRA.VDW.0>
-3.19502

>  <SCORE.INTRA.norm>
-0.0433613

>  <SCORE.RESTR>
0

>  <SCORE.RESTR.CAVITY>
0

>  <SCORE.RESTR.norm>
0

>  <SCORE.SYSTEM>
0

>  <SCORE.SYSTEM.CONST>
0

>  <SCORE.SYSTEM.DIHEDRAL>
0

>  <SCORE.SYSTEM.SOLV>
0

>  <SCORE.SYSTEM.norm>
0

>  <SCORE.heavy>
37

>  <SCORE.norm>
-0.334464

>  <RMSD>
10.103

$$$$
2oe5_lig
 OpenBabel11021811463D
libRbt.so/2013.1/901 2013/11/27
 37 40  0  0  0  0  0  0  0  0999 V2000
   19.8105   -2.5219   49.8991 C   0  0  1  0  0  0  0  0  0  0  0  0
   20.8175   -3.1981   50.8563 C   0  0  1  0  0  0  0  0  0  0  0  0
   20.3385   -2.9954   52.3418 C   0  0  0  0  0  0  0  0  0  0  0  0
   20.2751   -1.4650   52.5448 C   0  0  1  0  0  0  0  0  0  0  0  0
   19.2367   -0.7845   51.5473 C   0  0  1  0  0  0  0  0  0  0  0  0
   19.1522    0.7543   51.7399 C   0  0  1  0  0  0  0  0  0  0  0  0
   18.7168    1.0012   53.2124 C   0  0  1  0  0  0  0  0  0  0  0  0
   19.7436    0.2752   54.1620 C   0  0  2  0  0  0  0  0  0  0  0  0
   19.8795    3.3458   53.3298 C   0  0  0  0  0  0  0  0  0  0  0  0
   20.9035   -4.6465   50.5593 N   0  0  0  0  0  0  0  0  0  0  0  0
   18.6587    2.4835   53.5024 N   0  0  0  0  0  0  0  0  0  0  0  0
   18.5069   -3.1210   49.9795 O   0  0  0  0  0  0  0  0  0  0  0  0
   19.6574   -1.0860   50.1775 O   0  0  0  0  0  0  0  0  0  0  0  0
   19.8413   -1.1739   53.9004 O   0  0  0  0  0  0  0  0  0  0  0  0
   20.4456    1.3041   51.4695 O   0  0  0  0  0  0  0  0  0  0  0  0
   19.3442    0.4247   55.5102 O   0  0  0  0  0  0  0  0  0  0  0  0
   19.8776    1.6202   56.0479 C   0  0  2  0  0  0  0  0  0  0  0  0
   21.3473    1.4752   56.4407 C   0  0  1  0  0  0  0  0  0  0  0  0
   21.5224    0.4413   57.5867 C   0  0  2  0  0  0  0  0  0  0  0  0
   20.6449    0.9144   58.7833 C   0  0  1  0  0  0  0  0  0  0  0  0
   19.1594    0.9878   58.2995 C   0  0  1  0  0  0  0  0  0  0  0  0
   18.2182    1.4893   59.3719 C   0  0  0  0  0  0  0  0  0  0  0  0
   20.8106   -0.0841   59.9056 N   0  0  0  0  0  0  0  0  0  0  0  0
   19.0869    1.9831   57.2231 O   0  0  0  0  0  0  0  0  0  0  0  0
   22.0717    1.0644   55.2642 O   0  0  0  0  0  0  0  0  0  0  0  0
   22.9078    0.4379   57.9764 O   0  0  0  0  0  0  0  0  0  0  0  0
   16.8993    1.4965   58.9440 O   0  0  0  0  0  0  0  0  0  0  0  0
   18.1306   -3.8603   48.8173 C   0  0  1  0  0  0  0  0  0  0  0  0
   18.5403   -3.0676   47.5248 C   0  0  1  0  0  0  0  0  0  0  0  0
   18.1285   -3.9059   46.2614 C   0  0  2  0  0  0  0  0  0  0  0  0
   18.8614   -5.2557   46.2865 C   0  0  1  0  0  0  0  0  0  0  0  0
   18.4381   -6.0566   47.5778 C   0  0  0  0  0  0  0  0  0  0  0  0
   18.8369   -5.2089   48.8494 C   0  0  2  0  0  0  0  0  0  0  0  0
   18.4867   -6.0133   45.1039 N   0  0  0  0  0  0  0  0  0  0  0  0
   18.4338   -5.9210   50.0905 N   0  0  0  0  0  0  0  0  0  0  0  0
   17.8480   -1.7864   47.4971 O   0  0  0  0  0  0  0  0  0  0  0  0
   18.5094   -3.2097   45.1045 O   0  0  0  0  0  0  0  0  0  0  0  0
  1  2  1  0  0  0  0
  1 12  1  1  0  0  0
  1 13  1  0  0  0  0
  2  3  1  0  0  0  0
  2 10  1  6  0  0  0
  4  3  1  1  0  0  0
  4  5  1  0  0  0  0
  4 14  1  0  0  0  0
  5  6  1  0  0  0  0
  5 13  1  6  0  0  0
  6  7  1  0  0  0  0
  6 15  1  1  0  0  0
  7  8  1  0  0  0  0
  7 11  1  1  0  0  0
  8 14  1  0  0  0  0
  8 16  1  1  0  0  0
  9 11  1  0  0  0  0
 17 16  1  1  0  0  0
 17 18  1  0  0  0  0
 17 24  1  0  0  0  0
 18 19  1  0  0  0  0
 18 25  1  6  0  0  0
 19 20  1  0  0  0  0
 19 26  1  1  0  0  0
 20 21  1  0  0  0  0
 20 23  1  1  0  0  0
 21 22  1  1  0  0  0
 21 24  1  0  0  0  0
 22 27  1  0  0  0  0
 28 12  1  1  0  0  0
 28 29  1  0  0  0  0
 28 33  1  0  0  0  0
 29 30  1  0  0  0  0
 29 36  1  6  0  0  0
 30 31  1  0  0  0  0
 30 37  1  6  0  0  0
 31 32  1  0  0  0  0
 31 34  1  6  0  0  0
 32 33  1  0  0  0  0
 33 35  1  1  0  0  0
M  END
>  <CHROM.1>
-110.49280855,-58.47895625,-87.87820232,-78.85927244,-177.55394685,-42.54051491
19.51628759,-1.13802977,52.56137695,-2.01666663,-1.31006197,0.63773903

>  <Name>
2oe5_lig

>  <RI>
0

>  <Rbt.Current_Directory>
/home/itssahil/PROJECTS/Mol_Feturizer/New_Systems/rnas/2oe5

>  <Rbt.Executable>
rbdock ($Id: //depot/dev/client3/rdock/2013.1/src/exe/rbdock.cxx#4 $)

>  <Rbt.Library>
libRbt.so (2013.1, Build901 2013/11/27)

>  <Rbt.Parameter_File>
/export/apps/rDock/src/rDock_2013.1_src/data/scripts/dock_solv.prm

>  <Rbt.Receptor>
prm/pocket_docking_8.prm

>  <SCORE>
-12.8313

>  <SCORE.INTER>
-16.8194

>  <SCORE.INTER.CONST>
1

>  <SCORE.INTER.POLAR>
-2.04616

>  <SCORE.INTER.ROT>
6

>  <SCORE.INTER.SOLV>
15.8254

>  <SCORE.INTER.VDW>
-17.2675

>  <SCORE.INTER.norm>
-0.454579

>  <SCORE.INTRA>
3.98812

>  <SCORE.INTRA.DIHEDRAL>
-3.21981

>  <SCORE.INTRA.DIHEDRAL.0>
16.2083

>  <SCORE.INTRA.POLAR>
0

>  <SCORE.INTRA.POLAR.0>
0

>  <SCORE.INTRA.REPUL>
0

>  <SCORE.INTRA.REPUL.0>
0

>  <SCORE.INTRA.SOLV>
2.92794

>  <SCORE.INTRA.SOLV.lig_0>
-89.8095

>  <SCORE.INTRA.VDW>
4.13405

>  <SCORE.INTRA.VDW.0>
-3.19502

>  <SCORE.INTRA.norm>
0.107787

>  <SCORE.RESTR>
0

>  <SCORE.RESTR.CAVITY>
0

>  <SCORE.RESTR.norm>
0

>  <SCORE.SYSTEM>
0

>  <SCORE.SYSTEM.CONST>
0

>  <SCORE.SYSTEM.DIHEDRAL>
0

>  <SCORE.SYSTEM.SOLV>
0

>  <SCORE.SYSTEM.norm>
0

>  <SCORE.heavy>
37

>  <SCORE.norm>
-0.346792

>  <RMSD>
10.109

$$$$
2oe5_lig
 OpenBabel11021811463D
libRbt.so/2013.1/901 2013/11/27
 37 40  0  0  0  0  0  0  0  0999 V2000
   23.4730   -2.8948   49.4854 C   0  0  1  0  0  0  0  0  0  0  0  0
   24.6600   -3.3685   50.3538 C   0  0  1  0  0  0  0  0  0  0  0  0
   24.2667   -3.2613   51.8740 C   0  0  0  0  0  0  0  0  0  0  0  0
   23.9309   -1.7708   52.1044 C   0  0  1  0  0  0  0  0  0  0  0  0
   22.7092   -1.2989   51.1983 C   0  0  1  0  0  0  0  0  0  0  0  0
   22.3504    0.1959   51.4201 C   0  0  1  0  0  0  0  0  0  0  0  0
   21.9904    0.3547   52.9247 C   0  0  1  0  0  0  0  0  0  0  0  0
   23.2057   -0.1641   53.7833 C   0  0  2  0  0  0  0  0  0  0  0  0
   20.3231    2.3753   52.9210 C   0  0  0  0  0  0  0  0  0  0  0  0
   24.9951   -4.7741   50.0292 N   0  0  0  0  0  0  0  0  0  0  0  0
   21.6756    1.7988   53.2408 N   0  0  0  0  0  0  0  0  0  0  0  0
   22.3162   -3.7304   49.6544 O   0  0  0  0  0  0  0  0  0  0  0  0
   23.0730   -1.5142   49.7963 O   0  0  0  0  0  0  0  0  0  0  0  0
   23.5552   -1.5682   53.4931 O   0  0  0  0  0  0  0  0  0  0  0  0
   23.4920    0.9811   51.0616 O   0  0  0  0  0  0  0  0  0  0  0  0
   22.8899   -0.0940   55.1598 O   0  0  0  0  0  0  0  0  0  0  0  0
   24.0033   -0.4923   55.9373 C   0  0  2  0  0  0  0  0  0  0  0  0
   23.6652   -0.5985   57.4239 C   0  0  1  0  0  0  0  0  0  0  0  0
   23.2775    0.7863   58.0114 C   0  0  2  0  0  0  0  0  0  0  0  0
   24.4694    1.7553   57.7540 C   0  0  1  0  0  0  0  0  0  0  0  0
   24.7091    1.8341   56.2105 C   0  0  1  0  0  0  0  0  0  0  0  0
   25.8846    2.7126   55.8445 C   0  0  0  0  0  0  0  0  0  0  0  0
   24.1032    3.1058   58.3249 N   0  0  0  0  0  0  0  0  0  0  0  0
   25.0688    0.4900   55.7432 O   0  0  0  0  0  0  0  0  0  0  0  0
   22.5766   -1.5341   57.5550 O   0  0  0  0  0  0  0  0  0  0  0  0
   23.0803    0.6303   59.4283 O   0  0  0  0  0  0  0  0  0  0  0  0
   27.0806    2.2116   56.3357 O   0  0  0  0  0  0  0  0  0  0  0  0
   21.6453   -4.0535   48.4361 C   0  0  1  0  0  0  0  0  0  0  0  0
   21.3035   -2.7374   47.6499 C   0  0  1  0  0  0  0  0  0  0  0  0
   20.5789   -3.1189   46.3090 C   0  0  2  0  0  0  0  0  0  0  0  0
   21.5120   -3.9942   45.4587 C   0  0  1  0  0  0  0  0  0  0  0  0
   21.8428   -5.3219   46.2436 C   0  0  0  0  0  0  0  0  0  0  0  0
   22.5574   -4.9404   47.5994 C   0  0  2  0  0  0  0  0  0  0  0  0
   20.8376   -4.3244   44.2140 N   0  0  0  0  0  0  0  0  0  0  0  0
   22.8670   -6.1662   48.3813 N   0  0  0  0  0  0  0  0  0  0  0  0
   20.4193   -1.9038   48.4529 O   0  0  0  0  0  0  0  0  0  0  0  0
   20.2883   -1.9469   45.5947 O   0  0  0  0  0  0  0  0  0  0  0  0
  1  2  1  0  0  0  0
  1 12  1  1  0  0  0
  1 13  1  0  0  0  0
  2  3  1  0  0  0  0
  2 10  1  6  0  0  0
  4  3  1  1  0  0  0
  4  5  1  0  0  0  0
  4 14  1  0  0  0  0
  5  6  1  0  0  0  0
  5 13  1  6  0  0  0
  6  7  1  0  0  0  0
  6 15  1  1  0  0  0
  7  8  1  0  0  0  0
  7 11  1  6  0  0  0
  8 14  1  0  0  0  0
  8 16  1  1  0  0  0
  9 11  1  0  0  0  0
 17 16  1  6  0  0  0
 17 18  1  0  0  0  0
 17 24  1  0  0  0  0
 18 19  1  0  0  0  0
 18 25  1  6  0  0  0
 19 20  1  0  0  0  0
 19 26  1  1  0  0  0
 20 21  1  0  0  0  0
 20 23  1  6  0  0  0
 21 22  1  1  0  0  0
 21 24  1  0  0  0  0
 22 27  1  0  0  0  0
 28 12  1  1  0  0  0
 28 29  1  0  0  0  0
 28 33  1  0  0  0  0
 29 30  1  0  0  0  0
 29 36  1  1  0  0  0
 30 31  1  0  0  0  0
 30 37  1  6  0  0  0
 31 32  1  0  0  0  0
 31 34  1  6  0  0  0
 32 33  1  0  0  0  0
 33 35  1  1  0  0  0
M  END
>  <CHROM.1>
-136.91634197,80.33360243,-176.93012375,-173.04356584,63.54656942,-53.52969846
22.99124388,-1.21731293,52.08203500,-1.93350233,-0.94769551,0.80430725

>  <Name>
2oe5_lig

>  <RI>
0

>  <Rbt.Current_Directory>
/home/itssahil/PROJECTS/Mol_Feturizer/New_Systems/rnas/2oe5

>  <Rbt.Executable>
rbdock ($Id: //depot/dev/client3/rdock/2013.1/src/exe/rbdock.cxx#4 $)

>  <Rbt.Library>
libRbt.so (2013.1, Build901 2013/11/27)

>  <Rbt.Parameter_File>
/export/apps/rDock/src/rDock_2013.1_src/data/scripts/dock_solv.prm

>  <Rbt.Receptor>
prm/pocket_docking_7.prm

>  <SCORE>
-16.9833

>  <SCORE.INTER>
-14.1849

>  <SCORE.INTER.CONST>
1

>  <SCORE.INTER.POLAR>
-1.28516

>  <SCORE.INTER.ROT>
6

>  <SCORE.INTER.SOLV>
13.3287

>  <SCORE.INTER.VDW>
-17.2157

>  <SCORE.INTER.norm>
-0.383376

>  <SCORE.INTRA>
-2.79839

>  <SCORE.INTRA.DIHEDRAL>
-9.47092

>  <SCORE.INTRA.DIHEDRAL.0>
16.2083

>  <SCORE.INTRA.POLAR>
0

>  <SCORE.INTRA.POLAR.0>
0

>  <SCORE.INTRA.REPUL>
0

>  <SCORE.INTRA.REPUL.0>
0

>  <SCORE.INTRA.SOLV>
0.584326

>  <SCORE.INTRA.SOLV.lig_0>
-89.8095

>  <SCORE.INTRA.VDW>
1.64491

>  <SCORE.INTRA.VDW.0>
-3.19502

>  <SCORE.INTRA.norm>
-0.0756322

>  <SCORE.RESTR>
0

>  <SCORE.RESTR.CAVITY>
0

>  <SCORE.RESTR.norm>
0

>  <SCORE.SYSTEM>
0

>  <SCORE.SYSTEM.CONST>
0

>  <SCORE.SYSTEM.DIHEDRAL>
0

>  <SCORE.SYSTEM.SOLV>
0

>  <SCORE.SYSTEM.norm>
0

>  <SCORE.heavy>
37

>  <SCORE.norm>
-0.459008

>  <RMSD>
10.115

$$$$
2oe5_lig
 OpenBabel11021811463D
libRbt.so/2013.1/901 2013/11/27
 37 40  0  0  0  0  0  0  0  0999 V2000
   19.8851   -4.3131   48.6632 C   0  0  1  0  0  0  0  0  0  0  0  0
   19.3922   -5.0787   49.9114 C   0  0  1  0  0  0  0  0  0  0  0  0
   18.7356   -4.0627   50.9183 C   0  0  0  0  0  0  0  0  0  0  0  0
   19.8493   -3.0466   51.2569 C   0  0  1  0  0  0  0  0  0  0  0  0
   20.3484   -2.2707   49.9588 C   0  0  1  0  0  0  0  0  0  0  0  0
   21.4638   -1.2383   50.2785 C   0  0  1  0  0  0  0  0  0  0  0  0
   20.8670   -0.2327   51.3038 C   0  0  1  0  0  0  0  0  0  0  0  0
   20.3459   -1.0446   52.5498 C   0  0  2  0  0  0  0  0  0  0  0  0
   22.4420    1.7757   50.7135 C   0  0  0  0  0  0  0  0  0  0  0  0
   18.3926   -6.0981   49.5176 N   0  0  0  0  0  0  0  0  0  0  0  0
   21.9087    0.7838   51.7113 N   0  0  0  0  0  0  0  0  0  0  0  0
   18.8022   -3.6936   47.9501 O   0  0  0  0  0  0  0  0  0  0  0  0
   20.8530   -3.2594   49.0038 O   0  0  0  0  0  0  0  0  0  0  0  0
   19.3364   -2.0597   52.1916 O   0  0  0  0  0  0  0  0  0  0  0  0
   22.5806   -1.9499   50.8213 O   0  0  0  0  0  0  0  0  0  0  0  0
   19.7379   -0.1682   53.4780 O   0  0  0  0  0  0  0  0  0  0  0  0
   20.7200    0.6292   54.1124 C   0  0  2  0  0  0  0  0  0  0  0  0
   21.3099   -0.0498   55.3480 C   0  0  1  0  0  0  0  0  0  0  0  0
   20.2298   -0.2533   56.4457 C   0  0  2  0  0  0  0  0  0  0  0  0
   19.6323    1.1455   56.7807 C   0  0  1  0  0  0  0  0  0  0  0  0
   19.0146    1.7380   55.4716 C   0  0  1  0  0  0  0  0  0  0  0  0
   18.4473    3.1262   55.6679 C   0  0  0  0  0  0  0  0  0  0  0  0
   18.5815    0.9588   57.8508 N   0  0  0  0  0  0  0  0  0  0  0  0
   20.0994    1.8964   54.4957 O   0  0  0  0  0  0  0  0  0  0  0  0
   21.8580   -1.3148   54.9271 O   0  0  0  0  0  0  0  0  0  0  0  0
   20.8761   -0.7934   57.6126 O   0  0  0  0  0  0  0  0  0  0  0  0
   19.4147    4.0293   56.0814 O   0  0  0  0  0  0  0  0  0  0  0  0
   18.7664   -4.0040   46.5568 C   0  0  1  0  0  0  0  0  0  0  0  0
   17.3231   -3.7516   45.9910 C   0  0  1  0  0  0  0  0  0  0  0  0
   17.3122   -4.0868   44.4560 C   0  0  2  0  0  0  0  0  0  0  0  0
   18.3123   -3.1746   43.7298 C   0  0  1  0  0  0  0  0  0  0  0  0
   19.7632   -3.4394   44.2892 C   0  0  0  0  0  0  0  0  0  0  0  0
   19.7730   -3.1180   45.8355 C   0  0  2  0  0  0  0  0  0  0  0  0
   18.2789   -3.4815   42.3093 N   0  0  0  0  0  0  0  0  0  0  0  0
   21.1208   -3.3767   46.4069 N   0  0  0  0  0  0  0  0  0  0  0  0
   16.3711   -4.6143   46.6773 O   0  0  0  0  0  0  0  0  0  0  0  0
   16.0292   -3.8451   43.9425 O   0  0  0  0  0  0  0  0  0  0  0  0
  1  2  1  0  0  0  0
  1 12  1  1  0  0  0
  1 13  1  0  0  0  0
  2  3  1  0  0  0  0
  2 10  1  6  0  0  0
  4  3  1  6  0  0  0
  4  5  1  0  0  0  0
  4 14  1  0  0  0  0
  5  6  1  0  0  0  0
  5 13  1  6  0  0  0
  6  7  1  0  0  0  0
  6 15  1  1  0  0  0
  7  8  1  0  0  0  0
  7 11  1  1  0  0  0
  8 14  1  0  0  0  0
  8 16  1  1  0  0  0
  9 11  1  0  0  0  0
 17 16  1  1  0  0  0
 17 18  1  0  0  0  0
 17 24  1  0  0  0  0
 18 19  1  0  0  0  0
 18 25  1  6  0  0  0
 19 20  1  0  0  0  0
 19 26  1  1  0  0  0
 20 21  1  0  0  0  0
 20 23  1  1  0  0  0
 21 22  1  1  0  0  0
 21 24  1  0  0  0  0
 22 27  1  0  0  0  0
 28 12  1  1  0  0  0
 28 29  1  0  0  0  0
 28 33  1  0  0  0  0
 29 30  1  0  0  0  0
 29 36  1  1  0  0  0
 30 31  1  0  0  0  0
 30 37  1  6  0  0  0
 31 32  1  0  0  0  0
 31 34  1  6  0  0  0
 32 33  1  0  0  0  0
 33 35  1  1  0  0  0
M  END
>  <CHROM.1>
-127.86851875,66.32277415,-71.26567688,-87.24115919,60.29455474,159.06619143
19.68377680,-1.64485110,50.72386873,2.06244537,-1.23876104,-1.55709262

>  <Name>
2oe5_lig

>  <RI>
0

>  <Rbt.Current_Directory>
/home/itssahil/PROJECTS/Mol_Feturizer/New_Systems/rnas/2oe5

>  <Rbt.Executable>
rbdock ($Id: //depot/dev/client3/rdock/2013.1/src/exe/rbdock.cxx#4 $)

>  <Rbt.Library>
libRbt.so (2013.1, Build901 2013/11/27)

>  <Rbt.Parameter_File>
/export/apps/rDock/src/rDock_2013.1_src/data/scripts/dock_solv.prm

>  <Rbt.Receptor>
prm/pocket_docking_7.prm

>  <SCORE>
-16.601

>  <SCORE.INTER>
-17.5533

>  <SCORE.INTER.CONST>
1

>  <SCORE.INTER.POLAR>
-1.26684

>  <SCORE.INTER.ROT>
6

>  <SCORE.INTER.SOLV>
12.8348

>  <SCORE.INTER.VDW>
-19.3577

>  <SCORE.INTER.norm>
-0.474413

>  <SCORE.INTRA>
0.952256

>  <SCORE.INTRA.DIHEDRAL>
-3.63224

>  <SCORE.INTRA.DIHEDRAL.0>
16.2083

>  <SCORE.INTRA.POLAR>
0

>  <SCORE.INTRA.POLAR.0>
0

>  <SCORE.INTRA.REPUL>
0

>  <SCORE.INTRA.REPUL.0>
0

>  <SCORE.INTRA.SOLV>
1.40172

>  <SCORE.INTRA.SOLV.lig_0>
-89.8095

>  <SCORE.INTRA.VDW>
2.06751

>  <SCORE.INTRA.VDW.0>
-3.19502

>  <SCORE.INTRA.norm>
0.0257367

>  <SCORE.RESTR>
0

>  <SCORE.RESTR.CAVITY>
0

>  <SCORE.RESTR.norm>
0

>  <SCORE.SYSTEM>
0

>  <SCORE.SYSTEM.CONST>
0

>  <SCORE.SYSTEM.DIHEDRAL>
0

>  <SCORE.SYSTEM.SOLV>
0

>  <SCORE.SYSTEM.norm>
0

>  <SCORE.heavy>
37

>  <SCORE.norm>
-0.448677

>  <RMSD>
10.133

$$$$
2oe5_lig
 OpenBabel11021811463D
libRbt.so/2013.1/901 2013/11/27
 37 40  0  0  0  0  0  0  0  0999 V2000
   19.7488   -2.3940   49.7558 C   0  0  1  0  0  0  0  0  0  0  0  0
   20.8999   -3.0576   50.5444 C   0  0  1  0  0  0  0  0  0  0  0  0
   20.5873   -2.9785   52.0849 C   0  0  0  0  0  0  0  0  0  0  0  0
   20.4564   -1.4710   52.3977 C   0  0  1  0  0  0  0  0  0  0  0  0
   19.2691   -0.8028   51.5730 C   0  0  1  0  0  0  0  0  0  0  0  0
   19.1155    0.7122   51.8784 C   0  0  1  0  0  0  0  0  0  0  0  0
   18.8419    0.8391   53.4041 C   0  0  1  0  0  0  0  0  0  0  0  0
   20.0148    0.1277   54.1797 C   0  0  2  0  0  0  0  0  0  0  0  0
   19.8257    3.2665   53.4593 C   0  0  0  0  0  0  0  0  0  0  0  0
   21.0373   -4.4762   50.1416 N   0  0  0  0  0  0  0  0  0  0  0  0
   18.7293    2.2937   53.7992 N   0  0  0  0  0  0  0  0  0  0  0  0
   18.5020   -3.0836   49.9422 O   0  0  0  0  0  0  0  0  0  0  0  0
   19.5434   -0.9913   50.1470 O   0  0  0  0  0  0  0  0  0  0  0  0
   20.1679   -1.2929   53.8104 O   0  0  0  0  0  0  0  0  0  0  0  0
   20.3329    1.3635   51.5014 O   0  0  0  0  0  0  0  0  0  0  0  0
   19.7682    0.1676   55.5713 O   0  0  0  0  0  0  0  0  0  0  0  0
   20.1055    1.4401   56.0909 C   0  0  2  0  0  0  0  0  0  0  0  0
   21.5375    1.4891   56.6226 C   0  0  1  0  0  0  0  0  0  0  0  0
   21.7195    0.5328   57.8331 C   0  0  2  0  0  0  0  0  0  0  0  0
   20.6820    0.9472   58.9183 C   0  0  1  0  0  0  0  0  0  0  0  0
   19.2516    0.8214   58.2985 C   0  0  1  0  0  0  0  0  0  0  0  0
   18.1599    1.2511   59.2529 C   0  0  0  0  0  0  0  0  0  0  0  0
   20.8530    0.0239   60.1025 N   0  0  0  0  0  0  0  0  0  0  0  0
   19.1688    1.7547   57.1686 O   0  0  0  0  0  0  0  0  0  0  0  0
   22.4145    1.1190   55.5402 O   0  0  0  0  0  0  0  0  0  0  0  0
   23.0519    0.7120   58.3466 O   0  0  0  0  0  0  0  0  0  0  0  0
   17.8431    0.2541   60.1630 O   0  0  0  0  0  0  0  0  0  0  0  0
   18.3111   -4.1939   49.0649 C   0  0  1  0  0  0  0  0  0  0  0  0
   17.5078   -5.3245   49.8021 C   0  0  1  0  0  0  0  0  0  0  0  0
   17.2991   -6.5279   48.8139 C   0  0  2  0  0  0  0  0  0  0  0  0
   16.5017   -6.0489   47.5914 C   0  0  1  0  0  0  0  0  0  0  0  0
   17.3162   -4.9236   46.8440 C   0  0  0  0  0  0  0  0  0  0  0  0
   17.5408   -3.7189   47.8403 C   0  0  2  0  0  0  0  0  0  0  0  0
   16.2993   -7.1750   46.6947 N   0  0  0  0  0  0  0  0  0  0  0  0
   18.3260   -2.6434   47.1794 N   0  0  0  0  0  0  0  0  0  0  0  0
   18.2600   -5.7814   50.9627 O   0  0  0  0  0  0  0  0  0  0  0  0
   16.5657   -7.5327   49.4626 O   0  0  0  0  0  0  0  0  0  0  0  0
  1  2  1  0  0  0  0
  1 12  1  1  0  0  0
  1 13  1  0  0  0  0
  2  3  1  0  0  0  0
  2 10  1  6  0  0  0
  4  3  1  1  0  0  0
  4  5  1  0  0  0  0
  4 14  1  0  0  0  0
  5  6  1  0  0  0  0
  5 13  1  6  0  0  0
  6  7  1  0  0  0  0
  6 15  1  1  0  0  0
  7  8  1  0  0  0  0
  7 11  1  1  0  0  0
  8 14  1  0  0  0  0
  8 16  1  1  0  0  0
  9 11  1  0  0  0  0
 17 16  1  1  0  0  0
 17 18  1  0  0  0  0
 17 24  1  0  0  0  0
 18 19  1  0  0  0  0
 18 25  1  6  0  0  0
 19 20  1  0  0  0  0
 19 26  1  1  0  0  0
 20 21  1  0  0  0  0
 20 23  1  1  0  0  0
 21 22  1  1  0  0  0
 21 24  1  0  0  0  0
 22 27  1  0  0  0  0
 28 12  1  1  0  0  0
 28 29  1  0  0  0  0
 28 33  1  0  0  0  0
 29 30  1  0  0  0  0
 29 36  1  1  0  0  0
 30 31  1  0  0  0  0
 30 37  1  1  0  0  0
 31 32  1  0  0  0  0
 31 34  1  6  0  0  0
 32 33  1  0  0  0  0
 33 35  1  6  0  0  0
M  END
>  <CHROM.1>
-84.98473278,-54.01231558,-79.16644430,-93.21943624,-80.67605967,145.95273489
19.35111223,-1.47121104,52.93684040,-2.18851947,1.17843488,1.55391507

>  <Name>
2oe5_lig

>  <RI>
0

>  <Rbt.Current_Directory>
/home/itssahil/PROJECTS/Mol_Feturizer/New_Systems/rnas/2oe5

>  <Rbt.Executable>
rbdock ($Id: //depot/dev/client3/rdock/2013.1/src/exe/rbdock.cxx#4 $)

>  <Rbt.Library>
libRbt.so (2013.1, Build901 2013/11/27)

>  <Rbt.Parameter_File>
/export/apps/rDock/src/rDock_2013.1_src/data/scripts/dock_solv.prm

>  <Rbt.Receptor>
prm/pocket_docking_5.prm

>  <SCORE>
-24.0354

>  <SCORE.INTER>
-26.3125

>  <SCORE.INTER.CONST>
1

>  <SCORE.INTER.POLAR>
-2.88217

>  <SCORE.INTER.ROT>
6

>  <SCORE.INTER.SOLV>
17.4656

>  <SCORE.INTER.VDW>
-21.3563

>  <SCORE.INTER.norm>
-0.711149

>  <SCORE.INTRA>
2.27714

>  <SCORE.INTRA.DIHEDRAL>
-1.83589

>  <SCORE.INTRA.DIHEDRAL.0>
16.2083

>  <SCORE.INTRA.POLAR>
0

>  <SCORE.INTRA.POLAR.0>
0

>  <SCORE.INTRA.REPUL>
0

>  <SCORE.INTRA.REPUL.0>
0

>  <SCORE.INTRA.SOLV>
2.06363

>  <SCORE.INTRA.SOLV.lig_0>
-89.8095

>  <SCORE.INTRA.VDW>
2.16327

>  <SCORE.INTRA.VDW.0>
-3.19502

>  <SCORE.INTRA.norm>
0.0615443

>  <SCORE.RESTR>
0

>  <SCORE.RESTR.CAVITY>
0

>  <SCORE.RESTR.norm>
0

>  <SCORE.SYSTEM>
0

>  <SCORE.SYSTEM.CONST>
0

>  <SCORE.SYSTEM.DIHEDRAL>
0

>  <SCORE.SYSTEM.SOLV>
0

>  <SCORE.SYSTEM.norm>
0

>  <SCORE.heavy>
37

>  <SCORE.norm>
-0.649604

>  <RMSD>
10.148

$$$$
2oe5_lig
 OpenBabel11021811463D
libRbt.so/2013.1/901 2013/11/27
 37 40  0  0  0  0  0  0  0  0999 V2000
   19.9935   -3.6847   46.7461 C   0  0  1  0  0  0  0  0  0  0  0  0
   18.8989   -2.7456   47.3004 C   0  0  1  0  0  0  0  0  0  0  0  0
   17.5242   -3.0891   46.6154 C   0  0  0  0  0  0  0  0  0  0  0  0
   17.7599   -2.8842   45.1022 C   0  0  1  0  0  0  0  0  0  0  0  0
   18.8939   -3.8562   44.5494 C   0  0  1  0  0  0  0  0  0  0  0  0
   19.1417   -3.6714   43.0273 C   0  0  1  0  0  0  0  0  0  0  0  0
   17.7925   -3.9655   42.3119 C   0  0  1  0  0  0  0  0  0  0  0  0
   16.6914   -3.0156   42.9188 C   0  0  2  0  0  0  0  0  0  0  0  0
   16.8844   -4.2797   39.8748 C   0  0  0  0  0  0  0  0  0  0  0  0
   18.7768   -2.9205   48.7660 N   0  0  0  0  0  0  0  0  0  0  0  0
   17.9313   -3.7580   40.8212 N   0  0  0  0  0  0  0  0  0  0  0  0
   19.7291   -5.0621   47.0591 O   0  0  0  0  0  0  0  0  0  0  0  0
   20.1291   -3.5792   45.2856 O   0  0  0  0  0  0  0  0  0  0  0  0
   16.5353   -3.1769   44.3774 O   0  0  0  0  0  0  0  0  0  0  0  0
   19.5744   -2.3244   42.8115 O   0  0  0  0  0  0  0  0  0  0  0  0
   15.4345   -3.2983   42.3360 O   0  0  0  0  0  0  0  0  0  0  0  0
   14.4839   -2.3265   42.7295 C   0  0  2  0  0  0  0  0  0  0  0  0
   13.2952   -2.9422   43.4666 C   0  0  1  0  0  0  0  0  0  0  0  0
   12.4917   -3.8943   42.5387 C   0  0  2  0  0  0  0  0  0  0  0  0
   12.0415   -3.0691   41.2968 C   0  0  1  0  0  0  0  0  0  0  0  0
   13.3220   -2.5212   40.5853 C   0  0  1  0  0  0  0  0  0  0  0  0
   13.0013   -1.6559   39.3871 C   0  0  0  0  0  0  0  0  0  0  0  0
   11.2557   -3.9864   40.3884 N   0  0  0  0  0  0  0  0  0  0  0  0
   14.0153   -1.6360   41.5289 O   0  0  0  0  0  0  0  0  0  0  0  0
   13.8144   -3.6549   44.6069 O   0  0  0  0  0  0  0  0  0  0  0  0
   11.3331   -4.3485   43.2615 O   0  0  0  0  0  0  0  0  0  0  0  0
   14.1211   -0.9905   38.9118 O   0  0  0  0  0  0  0  0  0  0  0  0
   20.8816   -5.9036   47.0137 C   0  0  1  0  0  0  0  0  0  0  0  0
   21.9599   -5.3872   48.0323 C   0  0  1  0  0  0  0  0  0  0  0  0
   23.2111   -6.3356   47.9737 C   0  0  2  0  0  0  0  0  0  0  0  0
   22.7866   -7.7610   48.3582 C   0  0  1  0  0  0  0  0  0  0  0  0
   21.7143   -8.2835   47.3261 C   0  0  0  0  0  0  0  0  0  0  0  0
   20.4616   -7.3228   47.3718 C   0  0  2  0  0  0  0  0  0  0  0  0
   23.9558   -8.6238   48.3185 N   0  0  0  0  0  0  0  0  0  0  0  0
   19.4341   -7.7693   46.3946 N   0  0  0  0  0  0  0  0  0  0  0  0
   22.3650   -4.0354   47.6719 O   0  0  0  0  0  0  0  0  0  0  0  0
   24.1695   -5.8886   48.8957 O   0  0  0  0  0  0  0  0  0  0  0  0
  1  2  1  0  0  0  0
  1 12  1  6  0  0  0
  1 13  1  0  0  0  0
  2  3  1  0  0  0  0
  2 10  1  1  0  0  0
  4  3  1  1  0  0  0
  4  5  1  0  0  0  0
  4 14  1  0  0  0  0
  5  6  1  0  0  0  0
  5 13  1  1  0  0  0
  6  7  1  0  0  0  0
  6 15  1  1  0  0  0
  7  8  1  0  0  0  0
  7 11  1  6  0  0  0
  8 14  1  0  0  0  0
  8 16  1  6  0  0  0
  9 11  1  0  0  0  0
 17 16  1  6  0  0  0
 17 18  1  0  0  0  0
 17 24  1  0  0  0  0
 18 19  1  0  0  0  0
 18 25  1  1  0  0  0
 19 20  1  0  0  0  0
 19 26  1  1  0  0  0
 20 21  1  0  0  0  0
 20 23  1  6  0  0  0
 21 22  1  6  0  0  0
 21 24  1  0  0  0  0
 22 27  1  0  0  0  0
 28 12  1  1  0  0  0
 28 29  1  0  0  0  0
 28 33  1  0  0  0  0
 29 30  1  0  0  0  0
 29 36  1  6  0  0  0
 30 31  1  0  0  0  0
 30 37  1  1  0  0  0
 31 32  1  0  0  0  0
 31 34  1  6  0  0  0
 32 33  1  0  0  0  0
 33 35  1  6  0  0  0
M  END
>  <CHROM.1>
-158.70793216,165.53442610,-171.53186636,-120.60647178,169.37691218,59.19996628
17.70329411,-4.12240783,44.45698041,-0.70783263,0.04242224,-1.14724011

>  <Name>
2oe5_lig

>  <RI>
0

>  <Rbt.Current_Directory>
/home/itssahil/PROJECTS/Mol_Feturizer/New_Systems/rnas/2oe5

>  <Rbt.Executable>
rbdock ($Id: //depot/dev/client3/rdock/2013.1/src/exe/rbdock.cxx#4 $)

>  <Rbt.Library>
libRbt.so (2013.1, Build901 2013/11/27)

>  <Rbt.Parameter_File>
/export/apps/rDock/src/rDock_2013.1_src/data/scripts/dock_solv.prm

>  <Rbt.Receptor>
prm/blind_docking_60.prm

>  <SCORE>
-19.5029

>  <SCORE.INTER>
-17.8552

>  <SCORE.INTER.CONST>
1

>  <SCORE.INTER.POLAR>
-1.38113

>  <SCORE.INTER.ROT>
6

>  <SCORE.INTER.SOLV>
14.0183

>  <SCORE.INTER.VDW>
-19.5725

>  <SCORE.INTER.norm>
-0.482573

>  <SCORE.INTRA>
-2.27787

>  <SCORE.INTRA.DIHEDRAL>
-6.01676

>  <SCORE.INTRA.DIHEDRAL.0>
16.2083

>  <SCORE.INTRA.POLAR>
0

>  <SCORE.INTRA.POLAR.0>
0

>  <SCORE.INTRA.REPUL>
0

>  <SCORE.INTRA.REPUL.0>
0

>  <SCORE.INTRA.SOLV>
-2.52353

>  <SCORE.INTRA.SOLV.lig_0>
-89.8095

>  <SCORE.INTRA.VDW>
1.99228

>  <SCORE.INTRA.VDW.0>
-3.19502

>  <SCORE.INTRA.norm>
-0.0615639

>  <SCORE.RESTR>
0.630188

>  <SCORE.RESTR.CAVITY>
0.630188

>  <SCORE.RESTR.norm>
0.0170321

>  <SCORE.SYSTEM>
0

>  <SCORE.SYSTEM.CONST>
0

>  <SCORE.SYSTEM.DIHEDRAL>
0

>  <SCORE.SYSTEM.SOLV>
0

>  <SCORE.SYSTEM.norm>
0

>  <SCORE.heavy>
37

>  <SCORE.norm>
-0.527105

>  <RMSD>
10.165

$$$$
2oe5_lig
 OpenBabel11021811463D
libRbt.so/2013.1/901 2013/11/27
 37 40  0  0  0  0  0  0  0  0999 V2000
   20.0196   -4.6574   48.9061 C   0  0  1  0  0  0  0  0  0  0  0  0
   19.3953   -5.3037   50.1631 C   0  0  1  0  0  0  0  0  0  0  0  0
   18.6939   -4.1897   51.0258 C   0  0  0  0  0  0  0  0  0  0  0  0
   19.8115   -3.1830   51.3790 C   0  0  1  0  0  0  0  0  0  0  0  0
   20.4466   -2.5309   50.0722 C   0  0  1  0  0  0  0  0  0  0  0  0
   21.5681   -1.5095   50.4055 C   0  0  1  0  0  0  0  0  0  0  0  0
   20.9242   -0.4062   51.2926 C   0  0  1  0  0  0  0  0  0  0  0  0
   20.2705   -1.0978   52.5485 C   0  0  2  0  0  0  0  0  0  0  0  0
   22.4079    1.6846   50.7541 C   0  0  0  0  0  0  0  0  0  0  0  0
   18.3958   -6.3215   49.7653 N   0  0  0  0  0  0  0  0  0  0  0  0
   21.9645    0.6086   51.7078 N   0  0  0  0  0  0  0  0  0  0  0  0
   19.0243   -4.0663   48.0549 O   0  0  0  0  0  0  0  0  0  0  0  0
   20.9933   -3.6089   49.2456 O   0  0  0  0  0  0  0  0  0  0  0  0
   19.2582   -2.1083   52.1849 O   0  0  0  0  0  0  0  0  0  0  0  0
   22.6083   -2.2073   51.0978 O   0  0  0  0  0  0  0  0  0  0  0  0
   19.6189   -0.1309   53.3483 O   0  0  0  0  0  0  0  0  0  0  0  0
   20.5675    0.5936   54.1087 C   0  0  2  0  0  0  0  0  0  0  0  0
   20.2459    0.5809   55.6027 C   0  0  1  0  0  0  0  0  0  0  0  0
   18.9034    1.3063   55.8937 C   0  0  2  0  0  0  0  0  0  0  0  0
   19.0235    2.7561   55.3373 C   0  0  1  0  0  0  0  0  0  0  0  0
   19.3057    2.6670   53.8015 C   0  0  1  0  0  0  0  0  0  0  0  0
   19.4936    4.0241   53.1609 C   0  0  0  0  0  0  0  0  0  0  0  0
   17.7225    3.4719   55.6183 N   0  0  0  0  0  0  0  0  0  0  0  0
   20.5856    1.9717   53.6203 O   0  0  0  0  0  0  0  0  0  0  0  0
   20.1854   -0.7971   56.0212 O   0  0  0  0  0  0  0  0  0  0  0  0
   18.7210    1.3511   57.3205 O   0  0  0  0  0  0  0  0  0  0  0  0
   20.5213    4.7411   53.7544 O   0  0  0  0  0  0  0  0  0  0  0  0
   19.1467   -4.4222   46.6775 C   0  0  1  0  0  0  0  0  0  0  0  0
   18.7782   -5.9365   46.4829 C   0  0  1  0  0  0  0  0  0  0  0  0
   18.9074   -6.3003   44.9599 C   0  0  2  0  0  0  0  0  0  0  0  0
   17.9381   -5.4300   44.1458 C   0  0  1  0  0  0  0  0  0  0  0  0
   18.3184   -3.9103   44.3309 C   0  0  0  0  0  0  0  0  0  0  0  0
   18.2043   -3.5459   45.8635 C   0  0  2  0  0  0  0  0  0  0  0  0
   18.0537   -5.7891   42.7420 N   0  0  0  0  0  0  0  0  0  0  0  0
   18.5770   -2.1238   46.0840 N   0  0  0  0  0  0  0  0  0  0  0  0
   19.6946   -6.7657   47.2537 O   0  0  0  0  0  0  0  0  0  0  0  0
   18.5611   -7.6477   44.7788 O   0  0  0  0  0  0  0  0  0  0  0  0
  1  2  1  0  0  0  0
  1 12  1  6  0  0  0
  1 13  1  0  0  0  0
  2  3  1  0  0  0  0
  2 10  1  6  0  0  0
  4  3  1  6  0  0  0
  4  5  1  0  0  0  0
  4 14  1  0  0  0  0
  5  6  1  0  0  0  0
  5 13  1  6  0  0  0
  6  7  1  0  0  0  0
  6 15  1  1  0  0  0
  7  8  1  0  0  0  0
  7 11  1  1  0  0  0
  8 14  1  0  0  0  0
  8 16  1  1  0  0  0
  9 11  1  0  0  0  0
 17 16  1  6  0  0  0
 17 18  1  0  0  0  0
 17 24  1  0  0  0  0
 18 19  1  0  0  0  0
 18 25  1  6  0  0  0
 19 20  1  0  0  0  0
 19 26  1  1  0  0  0
 20 21  1  0  0  0  0
 20 23  1  6  0  0  0
 21 22  1  1  0  0  0
 21 24  1  0  0  0  0
 22 27  1  0  0  0  0
 28 12  1  1  0  0  0
 28 29  1  0  0  0  0
 28 33  1  0  0  0  0
 29 30  1  0  0  0  0
 29 36  1  1  0  0  0
 30 31  1  0  0  0  0
 30 37  1  1  0  0  0
 31 32  1  0  0  0  0
 31 34  1  6  0  0  0
 32 33  1  0  0  0  0
 33 35  1  6  0  0  0
M  END
>  <CHROM.1>
-131.62317967,79.04401846,-77.39336978,-126.22882422,57.34830550,69.55172704
19.66500353,-1.82375031,50.57146246,2.59474826,-1.46729068,-1.25093065

>  <Name>
2oe5_lig

>  <RI>
0

>  <Rbt.Current_Directory>
/home/itssahil/PROJECTS/Mol_Feturizer/New_Systems/rnas/2oe5

>  <Rbt.Executable>
rbdock ($Id: //depot/dev/client3/rdock/2013.1/src/exe/rbdock.cxx#4 $)

>  <Rbt.Library>
libRbt.so (2013.1, Build901 2013/11/27)

>  <Rbt.Parameter_File>
/export/apps/rDock/src/rDock_2013.1_src/data/scripts/dock_solv.prm

>  <Rbt.Receptor>
prm/pocket_docking_7.prm

>  <SCORE>
-11.5897

>  <SCORE.INTER>
-12.4646

>  <SCORE.INTER.CONST>
1

>  <SCORE.INTER.POLAR>
-1.00962

>  <SCORE.INTER.ROT>
6

>  <SCORE.INTER.SOLV>
18.8512

>  <SCORE.INTER.VDW>
-18.8281

>  <SCORE.INTER.norm>
-0.33688

>  <SCORE.INTRA>
0.874895

>  <SCORE.INTRA.DIHEDRAL>
-0.515496

>  <SCORE.INTRA.DIHEDRAL.0>
16.2083

>  <SCORE.INTRA.POLAR>
0

>  <SCORE.INTRA.POLAR.0>
0

>  <SCORE.INTRA.REPUL>
0

>  <SCORE.INTRA.REPUL.0>
0

>  <SCORE.INTRA.SOLV>
0.48776

>  <SCORE.INTRA.SOLV.lig_0>
-89.8095

>  <SCORE.INTRA.VDW>
0.888763

>  <SCORE.INTRA.VDW.0>
-3.19502

>  <SCORE.INTRA.norm>
0.0236458

>  <SCORE.RESTR>
0

>  <SCORE.RESTR.CAVITY>
0

>  <SCORE.RESTR.norm>
0

>  <SCORE.SYSTEM>
0

>  <SCORE.SYSTEM.CONST>
0

>  <SCORE.SYSTEM.DIHEDRAL>
0

>  <SCORE.SYSTEM.SOLV>
0

>  <SCORE.SYSTEM.norm>
0

>  <SCORE.heavy>
37

>  <SCORE.norm>
-0.313234

>  <RMSD>
10.165

$$$$
2oe5_lig
 OpenBabel11021811463D
libRbt.so/2013.1/901 2013/11/27
 37 40  0  0  0  0  0  0  0  0999 V2000
   22.7745   -1.6608   52.2560 C   0  0  1  0  0  0  0  0  0  0  0  0
   23.2063   -2.2069   53.6353 C   0  0  1  0  0  0  0  0  0  0  0  0
   21.9900   -2.1239   54.6308 C   0  0  0  0  0  0  0  0  0  0  0  0
   21.6099   -0.6273   54.6866 C   0  0  1  0  0  0  0  0  0  0  0  0
   21.1725   -0.0805   53.2562 C   0  0  1  0  0  0  0  0  0  0  0  0
   20.7790    1.4215   53.2916 C   0  0  1  0  0  0  0  0  0  0  0  0
   19.5997    1.5551   54.2966 C   0  0  1  0  0  0  0  0  0  0  0  0
   20.0592    0.9630   55.6828 C   0  0  2  0  0  0  0  0  0  0  0  0
   19.0314    3.8715   53.2131 C   0  0  0  0  0  0  0  0  0  0  0  0
   23.6434   -3.6162   53.5074 N   0  0  0  0  0  0  0  0  0  0  0  0
   19.1848    3.0022   54.4316 N   0  0  0  0  0  0  0  0  0  0  0  0
   21.7281   -2.4513   51.6685 O   0  0  0  0  0  0  0  0  0  0  0  0
   22.2930   -0.2734   52.3334 O   0  0  0  0  0  0  0  0  0  0  0  0
   20.4874   -0.4462   55.5910 O   0  0  0  0  0  0  0  0  0  0  0  0
   21.9246    2.1674   53.7153 O   0  0  0  0  0  0  0  0  0  0  0  0
   18.9899    1.0096   56.6067 O   0  0  0  0  0  0  0  0  0  0  0  0
   19.1174    2.1430   57.4447 C   0  0  2  0  0  0  0  0  0  0  0  0
   20.0184    1.8757   58.6498 C   0  0  1  0  0  0  0  0  0  0  0  0
   19.4052    0.7927   59.5794 C   0  0  2  0  0  0  0  0  0  0  0  0
   17.9924    1.2882   60.0085 C   0  0  1  0  0  0  0  0  0  0  0  0
   17.1330    1.4885   58.7172 C   0  0  1  0  0  0  0  0  0  0  0  0
   15.7486    2.0213   59.0118 C   0  0  0  0  0  0  0  0  0  0  0  0
   17.3880    0.2421   60.9164 N   0  0  0  0  0  0  0  0  0  0  0  0
   17.7818    2.5229   57.9026 O   0  0  0  0  0  0  0  0  0  0  0  0
   21.3012    1.4529   58.1464 O   0  0  0  0  0  0  0  0  0  0  0  0
   20.2473    0.6729   60.7404 O   0  0  0  0  0  0  0  0  0  0  0  0
   15.7895    3.2681   59.6172 O   0  0  0  0  0  0  0  0  0  0  0  0
   21.7795   -2.5231   50.2434 C   0  0  1  0  0  0  0  0  0  0  0  0
   22.3911   -3.9003   49.8002 C   0  0  1  0  0  0  0  0  0  0  0  0
   22.4248   -3.9608   48.2306 C   0  0  2  0  0  0  0  0  0  0  0  0
   20.9934   -3.8389   47.6867 C   0  0  1  0  0  0  0  0  0  0  0  0
   20.3858   -2.4493   48.1205 C   0  0  0  0  0  0  0  0  0  0  0  0
   20.3650   -2.3795   49.6982 C   0  0  2  0  0  0  0  0  0  0  0  0
   21.0365   -3.9153   46.2357 N   0  0  0  0  0  0  0  0  0  0  0  0
   19.8183   -1.0726   50.1488 N   0  0  0  0  0  0  0  0  0  0  0  0
   23.7485   -4.0206   50.3144 O   0  0  0  0  0  0  0  0  0  0  0  0
   22.9534   -5.1972   47.8302 O   0  0  0  0  0  0  0  0  0  0  0  0
  1  2  1  0  0  0  0
  1 12  1  1  0  0  0
  1 13  1  0  0  0  0
  2  3  1  0  0  0  0
  2 10  1  6  0  0  0
  4  3  1  6  0  0  0
  4  5  1  0  0  0  0
  4 14  1  0  0  0  0
  5  6  1  0  0  0  0
  5 13  1  6  0  0  0
  6  7  1  0  0  0  0
  6 15  1  1  0  0  0
  7  8  1  0  0  0  0
  7 11  1  1  0  0  0
  8 14  1  0  0  0  0
  8 16  1  1  0  0  0
  9 11  1  0  0  0  0
 17 16  1  6  0  0  0
 17 18  1  0  0  0  0
 17 24  1  0  0  0  0
 18 19  1  0  0  0  0
 18 25  1  6  0  0  0
 19 20  1  0  0  0  0
 19 26  1  1  0  0  0
 20 21  1  0  0  0  0
 20 23  1  1  0  0  0
 21 22  1  1  0  0  0
 21 24  1  0  0  0  0
 22 27  1  0  0  0  0
 28 12  1  1  0  0  0
 28 29  1  0  0  0  0
 28 33  1  0  0  0  0
 29 30  1  0  0  0  0
 29 36  1  1  0  0  0
 30 31  1  0  0  0  0
 30 37  1  1  0  0  0
 31 32  1  0  0  0  0
 31 34  1  6  0  0  0
 32 33  1  0  0  0  0
 33 35  1  6  0  0  0
M  END
>  <CHROM.1>
-147.05370021,44.71141668,-98.36011814,-85.53895206,61.58688961,101.77187647
20.44029888,-0.37947134,54.14251112,-1.08356249,-0.80309702,1.44401009

>  <Name>
2oe5_lig

>  <RI>
0

>  <Rbt.Current_Directory>
/home/itssahil/PROJECTS/Mol_Feturizer/New_Systems/rnas/2oe5

>  <Rbt.Executable>
rbdock ($Id: //depot/dev/client3/rdock/2013.1/src/exe/rbdock.cxx#4 $)

>  <Rbt.Library>
libRbt.so (2013.1, Build901 2013/11/27)

>  <Rbt.Parameter_File>
/export/apps/rDock/src/rDock_2013.1_src/data/scripts/dock_solv.prm

>  <Rbt.Receptor>
prm/pocket_docking_6.prm

>  <SCORE>
-15.5984

>  <SCORE.INTER>
-17.3198

>  <SCORE.INTER.CONST>
1

>  <SCORE.INTER.POLAR>
-2.26742

>  <SCORE.INTER.ROT>
6

>  <SCORE.INTER.SOLV>
14.701

>  <SCORE.INTER.VDW>
-16.4888

>  <SCORE.INTER.norm>
-0.468104

>  <SCORE.INTRA>
1.72149

>  <SCORE.INTRA.DIHEDRAL>
1.7083

>  <SCORE.INTRA.DIHEDRAL.0>
16.2083

>  <SCORE.INTRA.POLAR>
0

>  <SCORE.INTRA.POLAR.0>
0

>  <SCORE.INTRA.REPUL>
0

>  <SCORE.INTRA.REPUL.0>
0

>  <SCORE.INTRA.SOLV>
0.701408

>  <SCORE.INTRA.SOLV.lig_0>
-89.8095

>  <SCORE.INTRA.VDW>
0.516637

>  <SCORE.INTRA.VDW.0>
-3.19502

>  <SCORE.INTRA.norm>
0.0465268

>  <SCORE.RESTR>
0

>  <SCORE.RESTR.CAVITY>
0

>  <SCORE.RESTR.norm>
0

>  <SCORE.SYSTEM>
0

>  <SCORE.SYSTEM.CONST>
0

>  <SCORE.SYSTEM.DIHEDRAL>
0

>  <SCORE.SYSTEM.SOLV>
0

>  <SCORE.SYSTEM.norm>
0

>  <SCORE.heavy>
37

>  <SCORE.norm>
-0.421577

>  <RMSD>
10.166

$$$$
2oe5_lig
 OpenBabel11021811463D
libRbt.so/2013.1/901 2013/11/27
 37 40  0  0  0  0  0  0  0  0999 V2000
   19.7854   -2.3323   49.9078 C   0  0  1  0  0  0  0  0  0  0  0  0
   20.7659   -3.0449   50.8660 C   0  0  1  0  0  0  0  0  0  0  0  0
   20.2326   -2.9207   52.3416 C   0  0  0  0  0  0  0  0  0  0  0  0
   20.1441   -1.4029   52.6171 C   0  0  1  0  0  0  0  0  0  0  0  0
   19.1335   -0.6844   51.6177 C   0  0  1  0  0  0  0  0  0  0  0  0
   19.0242    0.8421   51.8825 C   0  0  1  0  0  0  0  0  0  0  0  0
   18.5344    1.0115   53.3488 C   0  0  1  0  0  0  0  0  0  0  0  0
   19.5356    0.2497   54.2978 C   0  0  2  0  0  0  0  0  0  0  0  0
   19.6828    3.3375   53.7139 C   0  0  0  0  0  0  0  0  0  0  0  0
   20.8793   -4.4759   50.5016 N   0  0  0  0  0  0  0  0  0  0  0  0
   18.4487    2.4769   53.7089 N   0  0  0  0  0  0  0  0  0  0  0  0
   18.4869   -2.9477   49.9120 O   0  0  0  0  0  0  0  0  0  0  0  0
   19.6056   -0.9135   50.2506 O   0  0  0  0  0  0  0  0  0  0  0  0
   19.6595   -1.1836   53.9690 O   0  0  0  0  0  0  0  0  0  0  0  0
   20.3198    1.4175   51.6858 O   0  0  0  0  0  0  0  0  0  0  0  0
   19.0873    0.3283   55.6365 O   0  0  0  0  0  0  0  0  0  0  0  0
   19.8881    1.2382   56.3671 C   0  0  2  0  0  0  0  0  0  0  0  0
   20.7227    0.5432   57.4423 C   0  0  1  0  0  0  0  0  0  0  0  0
   19.8162   -0.1061   58.5238 C   0  0  2  0  0  0  0  0  0  0  0  0
   18.9192    1.0186   59.1208 C   0  0  1  0  0  0  0  0  0  0  0  0
   18.0734    1.6358   57.9589 C   0  0  1  0  0  0  0  0  0  0  0  0
   17.1973    2.7806   58.4165 C   0  0  0  0  0  0  0  0  0  0  0  0
   18.0347    0.3973   60.1770 N   0  0  0  0  0  0  0  0  0  0  0  0
   19.0052    2.2237   56.9891 O   0  0  0  0  0  0  0  0  0  0  0  0
   21.5321   -0.4528   56.7862 O   0  0  0  0  0  0  0  0  0  0  0  0
   20.6656   -0.6430   59.5540 O   0  0  0  0  0  0  0  0  0  0  0  0
   16.1897    2.3555   59.2689 O   0  0  0  0  0  0  0  0  0  0  0  0
   18.3672   -4.0664   49.0329 C   0  0  1  0  0  0  0  0  0  0  0  0
   17.5919   -5.2285   49.7507 C   0  0  1  0  0  0  0  0  0  0  0  0
   17.4614   -6.4413   48.7605 C   0  0  2  0  0  0  0  0  0  0  0  0
   16.6790   -5.9983   47.5150 C   0  0  1  0  0  0  0  0  0  0  0  0
   17.4661   -4.8410   46.7873 C   0  0  0  0  0  0  0  0  0  0  0  0
   17.6122   -3.6262   47.7860 C   0  0  2  0  0  0  0  0  0  0  0  0
   16.5491   -7.1333   46.6162 N   0  0  0  0  0  0  0  0  0  0  0  0
   18.3697   -2.5198   47.1442 N   0  0  0  0  0  0  0  0  0  0  0  0
   18.3300   -5.6515   50.9330 O   0  0  0  0  0  0  0  0  0  0  0  0
   16.7531   -7.4750   49.3914 O   0  0  0  0  0  0  0  0  0  0  0  0
  1  2  1  0  0  0  0
  1 12  1  1  0  0  0
  1 13  1  0  0  0  0
  2  3  1  0  0  0  0
  2 10  1  6  0  0  0
  4  3  1  6  0  0  0
  4  5  1  0  0  0  0
  4 14  1  0  0  0  0
  5  6  1  0  0  0  0
  5 13  1  6  0  0  0
  6  7  1  0  0  0  0
  6 15  1  1  0  0  0
  7  8  1  0  0  0  0
  7 11  1  1  0  0  0
  8 14  1  0  0  0  0
  8 16  1  1  0  0  0
  9 11  1  0  0  0  0
 17 16  1  1  0  0  0
 17 18  1  0  0  0  0
 17 24  1  0  0  0  0
 18 19  1  0  0  0  0
 18 25  1  6  0  0  0
 19 20  1  0  0  0  0
 19 26  1  1  0  0  0
 20 21  1  0  0  0  0
 20 23  1  1  0  0  0
 21 22  1  1  0  0  0
 21 24  1  0  0  0  0
 22 27  1  0  0  0  0
 28 12  1  1  0  0  0
 28 29  1  0  0  0  0
 28 33  1  0  0  0  0
 29 30  1  0  0  0  0
 29 36  1  1  0  0  0
 30 31  1  0  0  0  0
 30 37  1  1  0  0  0
 31 32  1  0  0  0  0
 31 34  1  6  0  0  0
 32 33  1  0  0  0  0
 33 35  1  6  0  0  0
M  END
>  <CHROM.1>
-84.60329153,-62.70748249,-105.90035736,-112.80882417,-67.30239682,136.77153990
18.88658953,-1.38807169,53.04126084,-2.04073119,1.36512097,1.43416413

>  <Name>
2oe5_lig

>  <RI>
0

>  <Rbt.Current_Directory>
/home/itssahil/PROJECTS/Mol_Feturizer/New_Systems/rnas/2oe5

>  <Rbt.Executable>
rbdock ($Id: //depot/dev/client3/rdock/2013.1/src/exe/rbdock.cxx#4 $)

>  <Rbt.Library>
libRbt.so (2013.1, Build901 2013/11/27)

>  <Rbt.Parameter_File>
/export/apps/rDock/src/rDock_2013.1_src/data/scripts/dock_solv.prm

>  <Rbt.Receptor>
prm/pocket_docking_6.prm

>  <SCORE>
-22.383

>  <SCORE.INTER>
-26.8075

>  <SCORE.INTER.CONST>
1

>  <SCORE.INTER.POLAR>
-2.87156

>  <SCORE.INTER.ROT>
6

>  <SCORE.INTER.SOLV>
20.3805

>  <SCORE.INTER.VDW>
-22.6933

>  <SCORE.INTER.norm>
-0.724527

>  <SCORE.INTRA>
4.42454

>  <SCORE.INTRA.DIHEDRAL>
5.70429

>  <SCORE.INTRA.DIHEDRAL.0>
16.2083

>  <SCORE.INTRA.POLAR>
0

>  <SCORE.INTRA.POLAR.0>
0

>  <SCORE.INTRA.REPUL>
0

>  <SCORE.INTRA.REPUL.0>
0

>  <SCORE.INTRA.SOLV>
2.02335

>  <SCORE.INTRA.SOLV.lig_0>
-89.8095

>  <SCORE.INTRA.VDW>
0.560719

>  <SCORE.INTRA.VDW.0>
-3.19502

>  <SCORE.INTRA.norm>
0.119582

>  <SCORE.RESTR>
0

>  <SCORE.RESTR.CAVITY>
0

>  <SCORE.RESTR.norm>
0

>  <SCORE.SYSTEM>
0

>  <SCORE.SYSTEM.CONST>
0

>  <SCORE.SYSTEM.DIHEDRAL>
0

>  <SCORE.SYSTEM.SOLV>
0

>  <SCORE.SYSTEM.norm>
0

>  <SCORE.heavy>
37

>  <SCORE.norm>
-0.604945

>  <RMSD>
10.192

$$$$
2oe5_lig
 OpenBabel11021811463D
libRbt.so/2013.1/901 2013/11/27
 37 40  0  0  0  0  0  0  0  0999 V2000
   22.0635   -2.4939   51.7239 C   0  0  1  0  0  0  0  0  0  0  0  0
   23.2131   -2.7762   52.7170 C   0  0  1  0  0  0  0  0  0  0  0  0
   22.6506   -2.7402   54.1865 C   0  0  0  0  0  0  0  0  0  0  0  0
   22.0598   -1.3234   54.3625 C   0  0  1  0  0  0  0  0  0  0  0  0
   20.8804   -1.0481   53.3283 C   0  0  1  0  0  0  0  0  0  0  0  0
   20.2672    0.3693   53.4933 C   0  0  1  0  0  0  0  0  0  0  0  0
   19.7308    0.4617   54.9502 C   0  0  1  0  0  0  0  0  0  0  0  0
   20.9163    0.1394   55.9370 C   0  0  2  0  0  0  0  0  0  0  0  0
   18.4792    2.1441   56.5205 C   0  0  0  0  0  0  0  0  0  0  0  0
   23.7997   -4.1089   52.4462 N   0  0  0  0  0  0  0  0  0  0  0  0
   19.1589    1.8357   55.2141 N   0  0  0  0  0  0  0  0  0  0  0  0
   21.0431   -3.5040   51.7816 O   0  0  0  0  0  0  0  0  0  0  0  0
   21.4186   -1.1962   51.9746 O   0  0  0  0  0  0  0  0  0  0  0  0
   21.5131   -1.1897   55.7019 O   0  0  0  0  0  0  0  0  0  0  0  0
   21.3005    1.3281   53.2462 O   0  0  0  0  0  0  0  0  0  0  0  0
   20.4508    0.1519   57.2721 O   0  0  0  0  0  0  0  0  0  0  0  0
   21.5297   -0.0420   58.1674 C   0  0  2  0  0  0  0  0  0  0  0  0
   21.0626   -0.2001   59.6139 C   0  0  1  0  0  0  0  0  0  0  0  0
   20.3807    1.0974   60.1283 C   0  0  2  0  0  0  0  0  0  0  0  0
   21.4060    2.2594   59.9723 C   0  0  1  0  0  0  0  0  0  0  0  0
   21.7874    2.3733   58.4598 C   0  0  1  0  0  0  0  0  0  0  0  0
   22.8236    3.4429   58.1960 C   0  0  0  0  0  0  0  0  0  0  0  0
   20.7528    3.5269   60.4732 N   0  0  0  0  0  0  0  0  0  0  0  0
   22.4222    1.1113   58.0611 O   0  0  0  0  0  0  0  0  0  0  0  0
   20.1459   -1.3118   59.6541 O   0  0  0  0  0  0  0  0  0  0  0  0
   20.0675    0.9145   61.5210 O   0  0  0  0  0  0  0  0  0  0  0  0
   24.0166    3.1843   58.8535 O   0  0  0  0  0  0  0  0  0  0  0  0
   20.5402   -3.9006   50.5055 C   0  0  1  0  0  0  0  0  0  0  0  0
   21.5594   -4.8714   49.8086 C   0  0  1  0  0  0  0  0  0  0  0  0
   20.9787   -5.3039   48.4142 C   0  0  2  0  0  0  0  0  0  0  0  0
   19.6421   -6.0314   48.6241 C   0  0  1  0  0  0  0  0  0  0  0  0
   18.6152   -5.0507   49.3111 C   0  0  0  0  0  0  0  0  0  0  0  0
   19.2037   -4.6022   50.7064 C   0  0  2  0  0  0  0  0  0  0  0  0
   19.1251   -6.4424   47.3292 N   0  0  0  0  0  0  0  0  0  0  0  0
   18.2733   -3.6571   51.3781 N   0  0  0  0  0  0  0  0  0  0  0  0
   22.8287   -4.1858   49.6081 O   0  0  0  0  0  0  0  0  0  0  0  0
   21.8777   -6.1859   47.7961 O   0  0  0  0  0  0  0  0  0  0  0  0
  1  2  1  0  0  0  0
  1 12  1  1  0  0  0
  1 13  1  0  0  0  0
  2  3  1  0  0  0  0
  2 10  1  6  0  0  0
  4  3  1  1  0  0  0
  4  5  1  0  0  0  0
  4 14  1  0  0  0  0
  5  6  1  0  0  0  0
  5 13  1  6  0  0  0
  6  7  1  0  0  0  0
  6 15  1  1  0  0  0
  7  8  1  0  0  0  0
  7 11  1  1  0  0  0
  8 14  1  0  0  0  0
  8 16  1  1  0  0  0
  9 11  1  0  0  0  0
 17 16  1  6  0  0  0
 17 18  1  0  0  0  0
 17 24  1  0  0  0  0
 18 19  1  0  0  0  0
 18 25  1  6  0  0  0
 19 20  1  0  0  0  0
 19 26  1  1  0  0  0
 20 21  1  0  0  0  0
 20 23  1  6  0  0  0
 21 22  1  1  0  0  0
 21 24  1  0  0  0  0
 22 27  1  0  0  0  0
 28 12  1  1  0  0  0
 28 29  1  0  0  0  0
 28 33  1  0  0  0  0
 29 30  1  0  0  0  0
 29 36  1  6  0  0  0
 30 31  1  0  0  0  0
 30 37  1  1  0  0  0
 31 32  1  0  0  0  0
 31 34  1  6  0  0  0
 32 33  1  0  0  0  0
 33 35  1  6  0  0  0
M  END
>  <CHROM.1>
-138.38055975,175.23631722,-175.81876055,-173.32016865,61.52652383,77.66727133
21.04410304,-1.26581856,54.40191377,-1.61147572,0.09076801,0.97290628

>  <Name>
2oe5_lig

>  <RI>
0

>  <Rbt.Current_Directory>
/home/itssahil/PROJECTS/Mol_Feturizer/New_Systems/rnas/2oe5

>  <Rbt.Executable>
rbdock ($Id: //depot/dev/client3/rdock/2013.1/src/exe/rbdock.cxx#4 $)

>  <Rbt.Library>
libRbt.so (2013.1, Build901 2013/11/27)

>  <Rbt.Parameter_File>
/export/apps/rDock/src/rDock_2013.1_src/data/scripts/dock_solv.prm

>  <Rbt.Receptor>
prm/pocket_docking_8.prm

>  <SCORE>
-14.5232

>  <SCORE.INTER>
-10.8837

>  <SCORE.INTER.CONST>
1

>  <SCORE.INTER.POLAR>
-1.70807

>  <SCORE.INTER.ROT>
6

>  <SCORE.INTER.SOLV>
14.0121

>  <SCORE.INTER.VDW>
-13.8329

>  <SCORE.INTER.norm>
-0.294153

>  <SCORE.INTRA>
-3.63955

>  <SCORE.INTRA.DIHEDRAL>
-8.76409

>  <SCORE.INTRA.DIHEDRAL.0>
16.2083

>  <SCORE.INTRA.POLAR>
0

>  <SCORE.INTRA.POLAR.0>
0

>  <SCORE.INTRA.REPUL>
0

>  <SCORE.INTRA.REPUL.0>
0

>  <SCORE.INTRA.SOLV>
-0.701689

>  <SCORE.INTRA.SOLV.lig_0>
-89.8095

>  <SCORE.INTRA.VDW>
1.09334

>  <SCORE.INTRA.VDW.0>
-3.19502

>  <SCORE.INTRA.norm>
-0.0983662

>  <SCORE.RESTR>
0

>  <SCORE.RESTR.CAVITY>
0

>  <SCORE.RESTR.norm>
0

>  <SCORE.SYSTEM>
0

>  <SCORE.SYSTEM.CONST>
0

>  <SCORE.SYSTEM.DIHEDRAL>
0

>  <SCORE.SYSTEM.SOLV>
0

>  <SCORE.SYSTEM.norm>
0

>  <SCORE.heavy>
37

>  <SCORE.norm>
-0.392519

>  <RMSD>
10.260

$$$$
2oe5_lig
 OpenBabel11021811463D
libRbt.so/2013.1/901 2013/11/27
 37 40  0  0  0  0  0  0  0  0999 V2000
   19.6080   -0.9331   52.7775 C   0  0  1  0  0  0  0  0  0  0  0  0
   19.5160    0.3199   51.8782 C   0  0  1  0  0  0  0  0  0  0  0  0
   20.6723    1.3178   52.2580 C   0  0  0  0  0  0  0  0  0  0  0  0
   20.4501    1.6508   53.7504 C   0  0  1  0  0  0  0  0  0  0  0  0
   20.5434    0.3478   54.6613 C   0  0  1  0  0  0  0  0  0  0  0  0
   20.3300    0.6617   56.1673 C   0  0  1  0  0  0  0  0  0  0  0  0
   21.4335    1.6783   56.5767 C   0  0  1  0  0  0  0  0  0  0  0  0
   21.3341    2.9294   55.6238 C   0  0  2  0  0  0  0  0  0  0  0  0
   21.8105    1.2117   59.1268 C   0  0  0  0  0  0  0  0  0  0  0  0
   19.6473   -0.0680   50.4549 N   0  0  0  0  0  0  0  0  0  0  0  0
   21.2677    2.0800   58.0244 N   0  0  0  0  0  0  0  0  0  0  0  0
   20.8347   -1.6530   52.5726 O   0  0  0  0  0  0  0  0  0  0  0  0
   19.5226   -0.5988   54.2071 O   0  0  0  0  0  0  0  0  0  0  0  0
   21.4760    2.5771   54.1978 O   0  0  0  0  0  0  0  0  0  0  0  0
   19.0178    1.2120   56.3212 O   0  0  0  0  0  0  0  0  0  0  0  0
   22.3643    3.8498   55.9255 O   0  0  0  0  0  0  0  0  0  0  0  0
   22.1570    5.0619   55.2249 C   0  0  2  0  0  0  0  0  0  0  0  0
   23.3329    6.0267   55.3733 C   0  0  1  0  0  0  0  0  0  0  0  0
   23.5072    6.4757   56.8502 C   0  0  2  0  0  0  0  0  0  0  0  0
   22.1648    7.1209   57.3057 C   0  0  1  0  0  0  0  0  0  0  0  0
   21.0351    6.0488   57.1621 C   0  0  1  0  0  0  0  0  0  0  0  0
   19.6693    6.5843   57.5300 C   0  0  0  0  0  0  0  0  0  0  0  0
   22.3249    7.5642   58.7416 N   0  0  0  0  0  0  0  0  0  0  0  0
   20.9400    5.6848   55.7433 O   0  0  0  0  0  0  0  0  0  0  0  0
   24.5131    5.3472   54.9012 O   0  0  0  0  0  0  0  0  0  0  0  0
   24.5555    7.4606   56.8960 O   0  0  0  0  0  0  0  0  0  0  0  0
   18.6851    5.6130   57.4265 O   0  0  0  0  0  0  0  0  0  0  0  0
   20.8395   -2.4809   51.4094 C   0  0  1  0  0  0  0  0  0  0  0  0
   22.3169   -2.7314   50.9388 C   0  0  1  0  0  0  0  0  0  0  0  0
   22.2968   -3.6544   49.6675 C   0  0  2  0  0  0  0  0  0  0  0  0
   21.6399   -4.9963   50.0243 C   0  0  1  0  0  0  0  0  0  0  0  0
   20.1518   -4.7445   50.4830 C   0  0  0  0  0  0  0  0  0  0  0  0
   20.1684   -3.8042   51.7519 C   0  0  2  0  0  0  0  0  0  0  0  0
   21.6445   -5.8472   48.8457 N   0  0  0  0  0  0  0  0  0  0  0  0
   18.7801   -3.5239   52.2036 N   0  0  0  0  0  0  0  0  0  0  0  0
   22.9441   -1.4613   50.5999 O   0  0  0  0  0  0  0  0  0  0  0  0
   23.6157   -3.8959   49.2546 O   0  0  0  0  0  0  0  0  0  0  0  0
  1  2  1  0  0  0  0
  1 12  1  1  0  0  0
  1 13  1  0  0  0  0
  2  3  1  0  0  0  0
  2 10  1  6  0  0  0
  4  3  1  6  0  0  0
  4  5  1  0  0  0  0
  4 14  1  0  0  0  0
  5  6  1  0  0  0  0
  5 13  1  6  0  0  0
  6  7  1  0  0  0  0
  6 15  1  6  0  0  0
  7  8  1  0  0  0  0
  7 11  1  1  0  0  0
  8 14  1  0  0  0  0
  8 16  1  1  0  0  0
  9 11  1  0  0  0  0
 17 16  1  1  0  0  0
 17 18  1  0  0  0  0
 17 24  1  0  0  0  0
 18 19  1  0  0  0  0
 18 25  1  1  0  0  0
 19 20  1  0  0  0  0
 19 26  1  6  0  0  0
 20 21  1  0  0  0  0
 20 23  1  1  0  0  0
 21 22  1  6  0  0  0
 21 24  1  0  0  0  0
 22 27  1  0  0  0  0
 28 12  1  1  0  0  0
 28 29  1  0  0  0  0
 28 33  1  0  0  0  0
 29 30  1  0  0  0  0
 29 36  1  6  0  0  0
 30 31  1  0  0  0  0
 30 37  1  1  0  0  0
 31 32  1  0  0  0  0
 31 34  1  6  0  0  0
 32 33  1  0  0  0  0
 33 35  1  6  0  0  0
M  END
>  <CHROM.1>
-79.31216016,82.49045417,-170.76289679,-172.67411164,-178.61717969,156.43230168
21.28921727,1.35050706,54.15668573,1.65744176,-0.63759315,-2.48474401

>  <Name>
2oe5_lig

>  <RI>
0

>  <Rbt.Current_Directory>
/home/itssahil/PROJECTS/Mol_Feturizer/New_Systems/rnas/2oe5

>  <Rbt.Executable>
rbdock ($Id: //depot/dev/client3/rdock/2013.1/src/exe/rbdock.cxx#4 $)

>  <Rbt.Library>
libRbt.so (2013.1, Build901 2013/11/27)

>  <Rbt.Parameter_File>
/export/apps/rDock/src/rDock_2013.1_src/data/scripts/dock_solv.prm

>  <Rbt.Receptor>
prm/pocket_docking_8.prm

>  <SCORE>
-17.7664

>  <SCORE.INTER>
-13.4974

>  <SCORE.INTER.CONST>
1

>  <SCORE.INTER.POLAR>
-2.07359

>  <SCORE.INTER.ROT>
6

>  <SCORE.INTER.SOLV>
15.1175

>  <SCORE.INTER.VDW>
-14.7254

>  <SCORE.INTER.norm>
-0.364794

>  <SCORE.INTRA>
-4.26908

>  <SCORE.INTRA.DIHEDRAL>
-10.9876

>  <SCORE.INTRA.DIHEDRAL.0>
16.2083

>  <SCORE.INTRA.POLAR>
0

>  <SCORE.INTRA.POLAR.0>
0

>  <SCORE.INTRA.REPUL>
0

>  <SCORE.INTRA.REPUL.0>
0

>  <SCORE.INTRA.SOLV>
0.573378

>  <SCORE.INTRA.SOLV.lig_0>
-89.8095

>  <SCORE.INTRA.VDW>
0.938027

>  <SCORE.INTRA.VDW.0>
-3.19502

>  <SCORE.INTRA.norm>
-0.115381

>  <SCORE.RESTR>
0

>  <SCORE.RESTR.CAVITY>
0

>  <SCORE.RESTR.norm>
0

>  <SCORE.SYSTEM>
0

>  <SCORE.SYSTEM.CONST>
0

>  <SCORE.SYSTEM.DIHEDRAL>
0

>  <SCORE.SYSTEM.SOLV>
0

>  <SCORE.SYSTEM.norm>
0

>  <SCORE.heavy>
37

>  <SCORE.norm>
-0.480174

>  <RMSD>
10.300

$$$$
2oe5_lig
 OpenBabel11021811463D
libRbt.so/2013.1/901 2013/11/27
 37 40  0  0  0  0  0  0  0  0999 V2000
   18.4164   -5.4138   47.3220 C   0  0  1  0  0  0  0  0  0  0  0  0
   17.3853   -4.3546   47.7719 C   0  0  1  0  0  0  0  0  0  0  0  0
   18.1440   -3.1142   48.3744 C   0  0  0  0  0  0  0  0  0  0  0  0
   18.9636   -3.6733   49.5589 C   0  0  1  0  0  0  0  0  0  0  0  0
   20.0171   -4.7664   49.0778 C   0  0  1  0  0  0  0  0  0  0  0  0
   20.8573   -5.3364   50.2532 C   0  0  1  0  0  0  0  0  0  0  0  0
   21.5973   -4.1331   50.9036 C   0  0  1  0  0  0  0  0  0  0  0  0
   20.5241   -3.0583   51.3233 C   0  0  2  0  0  0  0  0  0  0  0  0
   23.4528   -3.7011   52.7017 C   0  0  0  0  0  0  0  0  0  0  0  0
   16.5696   -3.9192   46.6150 N   0  0  0  0  0  0  0  0  0  0  0  0
   22.4040   -4.5938   52.0959 N   0  0  0  0  0  0  0  0  0  0  0  0
   19.2679   -4.9236   46.2735 O   0  0  0  0  0  0  0  0  0  0  0  0
   19.2809   -5.8526   48.4278 O   0  0  0  0  0  0  0  0  0  0  0  0
   19.7039   -2.5931   50.1881 O   0  0  0  0  0  0  0  0  0  0  0  0
   19.9591   -5.9668   51.1719 O   0  0  0  0  0  0  0  0  0  0  0  0
   21.1657   -1.9195   51.8624 O   0  0  0  0  0  0  0  0  0  0  0  0
   20.2589   -1.1782   52.6568 C   0  0  2  0  0  0  0  0  0  0  0  0
   20.0112    0.2235   52.1005 C   0  0  1  0  0  0  0  0  0  0  0  0
   21.3102    1.0749   52.1261 C   0  0  2  0  0  0  0  0  0  0  0  0
   21.8158    1.1149   53.5987 C   0  0  1  0  0  0  0  0  0  0  0  0
   22.0843   -0.3546   54.0620 C   0  0  1  0  0  0  0  0  0  0  0  0
   22.5329   -0.4413   55.5038 C   0  0  0  0  0  0  0  0  0  0  0  0
   23.0788    1.9441   53.6349 N   0  0  0  0  0  0  0  0  0  0  0  0
   20.8105   -1.0819   54.0074 O   0  0  0  0  0  0  0  0  0  0  0  0
   19.5220    0.0746   50.7528 O   0  0  0  0  0  0  0  0  0  0  0  0
   20.9789    2.4070   51.6937 O   0  0  0  0  0  0  0  0  0  0  0  0
   21.5516   -0.0042   56.3806 O   0  0  0  0  0  0  0  0  0  0  0  0
   18.6099   -4.7521   45.0180 C   0  0  1  0  0  0  0  0  0  0  0  0
   19.3427   -3.6454   44.1783 C   0  0  1  0  0  0  0  0  0  0  0  0
   18.6095   -3.4845   42.7981 C   0  0  2  0  0  0  0  0  0  0  0  0
   18.6588   -4.8186   42.0382 C   0  0  1  0  0  0  0  0  0  0  0  0
   17.9101   -5.9256   42.8761 C   0  0  0  0  0  0  0  0  0  0  0  0
   18.6359   -6.0784   44.2704 C   0  0  2  0  0  0  0  0  0  0  0  0
   17.9942   -4.6513   40.7562 N   0  0  0  0  0  0  0  0  0  0  0  0
   17.9456   -7.0997   45.1014 N   0  0  0  0  0  0  0  0  0  0  0  0
   19.2990   -2.3784   44.8955 O   0  0  0  0  0  0  0  0  0  0  0  0
   19.2721   -2.5097   42.0372 O   0  0  0  0  0  0  0  0  0  0  0  0
  1  2  1  0  0  0  0
  1 12  1  6  0  0  0
  1 13  1  0  0  0  0
  2  3  1  0  0  0  0
  2 10  1  6  0  0  0
  4  3  1  6  0  0  0
  4  5  1  0  0  0  0
  4 14  1  0  0  0  0
  5  6  1  0  0  0  0
  5 13  1  1  0  0  0
  6  7  1  0  0  0  0
  6 15  1  1  0  0  0
  7  8  1  0  0  0  0
  7 11  1  1  0  0  0
  8 14  1  0  0  0  0
  8 16  1  6  0  0  0
  9 11  1  0  0  0  0
 17 16  1  6  0  0  0
 17 18  1  0  0  0  0
 17 24  1  0  0  0  0
 18 19  1  0  0  0  0
 18 25  1  6  0  0  0
 19 20  1  0  0  0  0
 19 26  1  1  0  0  0
 20 21  1  0  0  0  0
 20 23  1  6  0  0  0
 21 22  1  1  0  0  0
 21 24  1  0  0  0  0
 22 27  1  0  0  0  0
 28 12  1  1  0  0  0
 28 29  1  0  0  0  0
 28 33  1  0  0  0  0
 29 30  1  0  0  0  0
 29 36  1  1  0  0  0
 30 31  1  0  0  0  0
 30 37  1  6  0  0  0
 31 32  1  0  0  0  0
 31 34  1  6  0  0  0
 32 33  1  0  0  0  0
 33 35  1  1  0  0  0
M  END
>  <CHROM.1>
-70.16588362,165.69451053,-159.31774336,-117.08411766,63.94235064,153.48961941
19.96030238,-2.91046900,49.08530452,-2.98280411,-1.27547789,-0.25465000

>  <Name>
2oe5_lig

>  <RI>
0

>  <Rbt.Current_Directory>
/home/itssahil/PROJECTS/Mol_Feturizer/New_Systems/rnas/2oe5

>  <Rbt.Executable>
rbdock ($Id: //depot/dev/client3/rdock/2013.1/src/exe/rbdock.cxx#4 $)

>  <Rbt.Library>
libRbt.so (2013.1, Build901 2013/11/27)

>  <Rbt.Parameter_File>
/export/apps/rDock/src/rDock_2013.1_src/data/scripts/dock_solv.prm

>  <Rbt.Receptor>
prm/pocket_docking_7.prm

>  <SCORE>
-18.034

>  <SCORE.INTER>
-17.896

>  <SCORE.INTER.CONST>
1

>  <SCORE.INTER.POLAR>
-1.88967

>  <SCORE.INTER.ROT>
6

>  <SCORE.INTER.SOLV>
14.1308

>  <SCORE.INTER.VDW>
-17.942

>  <SCORE.INTER.norm>
-0.483675

>  <SCORE.INTRA>
-0.138054

>  <SCORE.INTRA.DIHEDRAL>
-3.41524

>  <SCORE.INTRA.DIHEDRAL.0>
16.2083

>  <SCORE.INTRA.POLAR>
0

>  <SCORE.INTRA.POLAR.0>
0

>  <SCORE.INTRA.REPUL>
0

>  <SCORE.INTRA.REPUL.0>
0

>  <SCORE.INTRA.SOLV>
2.04793

>  <SCORE.INTRA.SOLV.lig_0>
-89.8095

>  <SCORE.INTRA.VDW>
0.545602

>  <SCORE.INTRA.VDW.0>
-3.19502

>  <SCORE.INTRA.norm>
-0.00373119

>  <SCORE.RESTR>
0

>  <SCORE.RESTR.CAVITY>
0

>  <SCORE.RESTR.norm>
0

>  <SCORE.SYSTEM>
0

>  <SCORE.SYSTEM.CONST>
0

>  <SCORE.SYSTEM.DIHEDRAL>
0

>  <SCORE.SYSTEM.SOLV>
0

>  <SCORE.SYSTEM.norm>
0

>  <SCORE.heavy>
37

>  <SCORE.norm>
-0.487406

>  <RMSD>
10.360

$$$$
2oe5_lig
 OpenBabel11021811463D
libRbt.so/2013.1/901 2013/11/27
 37 40  0  0  0  0  0  0  0  0999 V2000
   22.0900   -2.0468   52.0845 C   0  0  1  0  0  0  0  0  0  0  0  0
   23.1825   -2.4660   53.0935 C   0  0  1  0  0  0  0  0  0  0  0  0
   22.5781   -2.4577   54.5468 C   0  0  0  0  0  0  0  0  0  0  0  0
   22.0923   -1.0093   54.7782 C   0  0  1  0  0  0  0  0  0  0  0  0
   20.9708   -0.5928   53.7270 C   0  0  1  0  0  0  0  0  0  0  0  0
   20.4631    0.8584   53.9468 C   0  0  1  0  0  0  0  0  0  0  0  0
   19.8894    0.9214   55.3910 C   0  0  1  0  0  0  0  0  0  0  0  0
   21.0148    0.4599   56.3928 C   0  0  2  0  0  0  0  0  0  0  0  0
   18.3936    2.9999   54.8382 C   0  0  0  0  0  0  0  0  0  0  0  0
   23.6736   -3.8257   52.7717 N   0  0  0  0  0  0  0  0  0  0  0  0
   19.4164    2.3214   55.7086 N   0  0  0  0  0  0  0  0  0  0  0  0
   20.9939   -2.9757   52.0622 O   0  0  0  0  0  0  0  0  0  0  0  0
   21.5388   -0.7164   52.3830 O   0  0  0  0  0  0  0  0  0  0  0  0
   21.5152   -0.8987   56.1069 O   0  0  0  0  0  0  0  0  0  0  0  0
   21.5741    1.7445   53.7778 O   0  0  0  0  0  0  0  0  0  0  0  0
   20.5096    0.4437   57.7133 O   0  0  0  0  0  0  0  0  0  0  0  0
   21.5460    0.1437   58.6292 C   0  0  2  0  0  0  0  0  0  0  0  0
   21.0113   -0.1963   60.0199 C   0  0  1  0  0  0  0  0  0  0  0  0
   20.2923    1.0237   60.6583 C   0  0  2  0  0  0  0  0  0  0  0  0
   21.3119    2.2004   60.6992 C   0  0  1  0  0  0  0  0  0  0  0  0
   21.7645    2.5044   59.2332 C   0  0  1  0  0  0  0  0  0  0  0  0
   22.8012    3.6029   59.1563 C   0  0  0  0  0  0  0  0  0  0  0  0
   20.6224    3.3924   61.3218 N   0  0  0  0  0  0  0  0  0  0  0  0
   22.4307    1.3049   58.7117 O   0  0  0  0  0  0  0  0  0  0  0  0
   20.1052   -1.3080   59.8759 O   0  0  0  0  0  0  0  0  0  0  0  0
   19.9142    0.6666   62.0001 O   0  0  0  0  0  0  0  0  0  0  0  0
   22.3185    4.8081   59.6433 O   0  0  0  0  0  0  0  0  0  0  0  0
   20.6070   -3.3922   50.7524 C   0  0  1  0  0  0  0  0  0  0  0  0
   20.2994   -4.9324   50.7513 C   0  0  1  0  0  0  0  0  0  0  0  0
   19.8638   -5.3636   49.3047 C   0  0  2  0  0  0  0  0  0  0  0  0
   18.5989   -4.5899   48.9033 C   0  0  1  0  0  0  0  0  0  0  0  0
   18.9133   -3.0442   48.8910 C   0  0  0  0  0  0  0  0  0  0  0  0
   19.3665   -2.6111   50.3406 C   0  0  2  0  0  0  0  0  0  0  0  0
   18.1958   -5.0114   47.5718 N   0  0  0  0  0  0  0  0  0  0  0  0
   19.6942   -1.1613   50.3663 N   0  0  0  0  0  0  0  0  0  0  0  0
   21.4962   -5.6702   51.1321 O   0  0  0  0  0  0  0  0  0  0  0  0
   19.5702   -6.7355   49.3035 O   0  0  0  0  0  0  0  0  0  0  0  0
  1  2  1  0  0  0  0
  1 12  1  1  0  0  0
  1 13  1  0  0  0  0
  2  3  1  0  0  0  0
  2 10  1  6  0  0  0
  4  3  1  6  0  0  0
  4  5  1  0  0  0  0
  4 14  1  0  0  0  0
  5  6  1  0  0  0  0
  5 13  1  6  0  0  0
  6  7  1  0  0  0  0
  6 15  1  1  0  0  0
  7  8  1  0  0  0  0
  7 11  1  1  0  0  0
  8 14  1  0  0  0  0
  8 16  1  1  0  0  0
  9 11  1  0  0  0  0
 17 16  1  6  0  0  0
 17 18  1  0  0  0  0
 17 24  1  0  0  0  0
 18 19  1  0  0  0  0
 18 25  1  6  0  0  0
 19 20  1  0  0  0  0
 19 26  1  1  0  0  0
 20 21  1  0  0  0  0
 20 23  1  6  0  0  0
 21 22  1  1  0  0  0
 21 24  1  0  0  0  0
 22 27  1  0  0  0  0
 28 12  1  1  0  0  0
 28 29  1  0  0  0  0
 28 33  1  0  0  0  0
 29 30  1  0  0  0  0
 29 36  1  6  0  0  0
 30 31  1  0  0  0  0
 30 37  1  1  0  0  0
 31 32  1  0  0  0  0
 31 34  1  6  0  0  0
 32 33  1  0  0  0  0
 33 35  1  6  0  0  0
M  END
>  <CHROM.1>
-131.28982272,56.51277725,-174.89536912,-167.10577774,-61.62869244,138.65721291
20.83317697,-0.83789131,54.81609450,1.87631771,1.26492627,-2.43384551

>  <Name>
2oe5_lig

>  <RI>
0

>  <Rbt.Current_Directory>
/home/itssahil/PROJECTS/Mol_Feturizer/New_Systems/rnas/2oe5

>  <Rbt.Executable>
rbdock ($Id: //depot/dev/client3/rdock/2013.1/src/exe/rbdock.cxx#4 $)

>  <Rbt.Library>
libRbt.so (2013.1, Build901 2013/11/27)

>  <Rbt.Parameter_File>
/export/apps/rDock/src/rDock_2013.1_src/data/scripts/dock_solv.prm

>  <Rbt.Receptor>
prm/pocket_docking_6.prm

>  <SCORE>
-10.4314

>  <SCORE.INTER>
-10.072

>  <SCORE.INTER.CONST>
1

>  <SCORE.INTER.POLAR>
-1.08346

>  <SCORE.INTER.ROT>
6

>  <SCORE.INTER.SOLV>
11.2214

>  <SCORE.INTER.VDW>
-14.4436

>  <SCORE.INTER.norm>
-0.272216

>  <SCORE.INTRA>
-0.359409

>  <SCORE.INTRA.DIHEDRAL>
-3.05616

>  <SCORE.INTRA.DIHEDRAL.0>
16.2083

>  <SCORE.INTRA.POLAR>
0

>  <SCORE.INTRA.POLAR.0>
0

>  <SCORE.INTRA.REPUL>
0

>  <SCORE.INTRA.REPUL.0>
0

>  <SCORE.INTRA.SOLV>
0.848615

>  <SCORE.INTRA.SOLV.lig_0>
-89.8095

>  <SCORE.INTRA.VDW>
0.744362

>  <SCORE.INTRA.VDW.0>
-3.19502

>  <SCORE.INTRA.norm>
-0.00971377

>  <SCORE.RESTR>
0

>  <SCORE.RESTR.CAVITY>
0

>  <SCORE.RESTR.norm>
0

>  <SCORE.SYSTEM>
0

>  <SCORE.SYSTEM.CONST>
0

>  <SCORE.SYSTEM.DIHEDRAL>
0

>  <SCORE.SYSTEM.SOLV>
0

>  <SCORE.SYSTEM.norm>
0

>  <SCORE.heavy>
37

>  <SCORE.norm>
-0.281929

>  <RMSD>
10.391

$$$$
2oe5_lig
 OpenBabel11021811463D
libRbt.so/2013.1/901 2013/11/27
 37 40  0  0  0  0  0  0  0  0999 V2000
   18.2155   -6.1044   46.9066 C   0  0  1  0  0  0  0  0  0  0  0  0
   17.4992   -6.3106   48.2599 C   0  0  1  0  0  0  0  0  0  0  0  0
   17.2565   -4.9110   48.9377 C   0  0  0  0  0  0  0  0  0  0  0  0
   18.6616   -4.2910   49.1077 C   0  0  1  0  0  0  0  0  0  0  0  0
   19.3867   -4.0903   47.7041 C   0  0  1  0  0  0  0  0  0  0  0  0
   20.7989   -3.4609   47.8520 C   0  0  1  0  0  0  0  0  0  0  0  0
   20.6087   -2.0867   48.5548 C   0  0  1  0  0  0  0  0  0  0  0  0
   19.8497   -2.3256   49.9150 C   0  0  2  0  0  0  0  0  0  0  0  0
   23.0751   -1.6154   47.8081 C   0  0  0  0  0  0  0  0  0  0  0  0
   16.1990   -6.9869   48.0463 N   0  0  0  0  0  0  0  0  0  0  0  0
   21.9475   -1.4241   48.7857 N   0  0  0  0  0  0  0  0  0  0  0  0
   17.4128   -5.3515   45.9826 O   0  0  0  0  0  0  0  0  0  0  0  0
   19.4974   -5.3997   47.0579 O   0  0  0  0  0  0  0  0  0  0  0  0
   18.5422   -2.9856   49.7340 O   0  0  0  0  0  0  0  0  0  0  0  0
   21.5987   -4.3520   48.6360 O   0  0  0  0  0  0  0  0  0  0  0  0
   19.6022   -1.0888   50.5541 O   0  0  0  0  0  0  0  0  0  0  0  0
   19.1371   -1.3051   51.8731 C   0  0  2  0  0  0  0  0  0  0  0  0
   19.0596   -0.0101   52.6810 C   0  0  1  0  0  0  0  0  0  0  0  0
   20.4689    0.6118   52.8807 C   0  0  2  0  0  0  0  0  0  0  0  0
   21.3586   -0.4578   53.5810 C   0  0  1  0  0  0  0  0  0  0  0  0
   21.4150   -1.7222   52.6622 C   0  0  1  0  0  0  0  0  0  0  0  0
   22.2149   -2.8527   53.2702 C   0  0  0  0  0  0  0  0  0  0  0  0
   22.7324    0.1390   53.7827 N   0  0  0  0  0  0  0  0  0  0  0  0
   20.0485   -2.2414   52.5293 O   0  0  0  0  0  0  0  0  0  0  0  0
   18.1959    0.8956   51.9659 O   0  0  0  0  0  0  0  0  0  0  0  0
   20.3322    1.7605   53.7368 O   0  0  0  0  0  0  0  0  0  0  0  0
   23.5170   -2.4722   53.5574 O   0  0  0  0  0  0  0  0  0  0  0  0
   18.1320   -4.8535   44.8542 C   0  0  1  0  0  0  0  0  0  0  0  0
   18.3264   -5.9991   43.7974 C   0  0  1  0  0  0  0  0  0  0  0  0
   19.1074   -5.4244   42.5612 C   0  0  2  0  0  0  0  0  0  0  0  0
   18.2943   -4.2825   41.9329 C   0  0  1  0  0  0  0  0  0  0  0  0
   18.1122   -3.1266   42.9908 C   0  0  0  0  0  0  0  0  0  0  0  0
   17.3409   -3.7058   44.2414 C   0  0  2  0  0  0  0  0  0  0  0  0
   19.0181   -3.7724   40.7801 N   0  0  0  0  0  0  0  0  0  0  0  0
   17.1679   -2.6504   45.2740 N   0  0  0  0  0  0  0  0  0  0  0  0
   19.0966   -7.0846   44.3892 O   0  0  0  0  0  0  0  0  0  0  0  0
   19.2671   -6.4399   41.6065 O   0  0  0  0  0  0  0  0  0  0  0  0
  1  2  1  0  0  0  0
  1 12  1  6  0  0  0
  1 13  1  0  0  0  0
  2  3  1  0  0  0  0
  2 10  1  6  0  0  0
  4  3  1  6  0  0  0
  4  5  1  0  0  0  0
  4 14  1  0  0  0  0
  5  6  1  0  0  0  0
  5 13  1  1  0  0  0
  6  7  1  0  0  0  0
  6 15  1  1  0  0  0
  7  8  1  0  0  0  0
  7 11  1  1  0  0  0
  8 14  1  0  0  0  0
  8 16  1  6  0  0  0
  9 11  1  0  0  0  0
 17 16  1  6  0  0  0
 17 18  1  0  0  0  0
 17 24  1  0  0  0  0
 18 19  1  0  0  0  0
 18 25  1  6  0  0  0
 19 20  1  0  0  0  0
 19 26  1  1  0  0  0
 20 21  1  0  0  0  0
 20 23  1  6  0  0  0
 21 22  1  1  0  0  0
 21 24  1  0  0  0  0
 22 27  1  0  0  0  0
 28 12  1  1  0  0  0
 28 29  1  0  0  0  0
 28 33  1  0  0  0  0
 29 30  1  0  0  0  0
 29 36  1  1  0  0  0
 30 31  1  0  0  0  0
 30 37  1  6  0  0  0
 31 32  1  0  0  0  0
 31 34  1  6  0  0  0
 32 33  1  0  0  0  0
 33 35  1  1  0  0  0
M  END
>  <CHROM.1>
165.51460574,33.27539042,-169.74887217,171.15103040,-57.85275838,79.40031253
19.55069653,-3.17598912,48.37956437,1.96257634,-0.86904799,-1.73483879

>  <Name>
2oe5_lig

>  <RI>
0

>  <Rbt.Current_Directory>
/home/itssahil/PROJECTS/Mol_Feturizer/New_Systems/rnas/2oe5

>  <Rbt.Executable>
rbdock ($Id: //depot/dev/client3/rdock/2013.1/src/exe/rbdock.cxx#4 $)

>  <Rbt.Library>
libRbt.so (2013.1, Build901 2013/11/27)

>  <Rbt.Parameter_File>
/export/apps/rDock/src/rDock_2013.1_src/data/scripts/dock_solv.prm

>  <Rbt.Receptor>
prm/pocket_docking_5.prm

>  <SCORE>
-19.0315

>  <SCORE.INTER>
-15.6441

>  <SCORE.INTER.CONST>
1

>  <SCORE.INTER.POLAR>
-2.17107

>  <SCORE.INTER.ROT>
6

>  <SCORE.INTER.SOLV>
21.008

>  <SCORE.INTER.VDW>
-17.7952

>  <SCORE.INTER.norm>
-0.422814

>  <SCORE.INTRA>
-3.39186

>  <SCORE.INTRA.DIHEDRAL>
-12.0411

>  <SCORE.INTRA.DIHEDRAL.0>
16.2083

>  <SCORE.INTRA.POLAR>
0

>  <SCORE.INTRA.POLAR.0>
0

>  <SCORE.INTRA.REPUL>
0

>  <SCORE.INTRA.REPUL.0>
0

>  <SCORE.INTRA.SOLV>
-1.03496

>  <SCORE.INTRA.SOLV.lig_0>
-89.8095

>  <SCORE.INTRA.VDW>
3.14619

>  <SCORE.INTRA.VDW.0>
-3.19502

>  <SCORE.INTRA.norm>
-0.0916718

>  <SCORE.RESTR>
0.00445199

>  <SCORE.RESTR.CAVITY>
0.00445199

>  <SCORE.RESTR.norm>
0.000120324

>  <SCORE.SYSTEM>
0

>  <SCORE.SYSTEM.CONST>
0

>  <SCORE.SYSTEM.DIHEDRAL>
0

>  <SCORE.SYSTEM.SOLV>
0

>  <SCORE.SYSTEM.norm>
0

>  <SCORE.heavy>
37

>  <SCORE.norm>
-0.514365

>  <RMSD>
10.451

$$$$
2oe5_lig
 OpenBabel11021811463D
libRbt.so/2013.1/901 2013/11/27
 37 40  0  0  0  0  0  0  0  0999 V2000
   19.0564   -6.3652   47.7192 C   0  0  1  0  0  0  0  0  0  0  0  0
   18.3416   -6.3246   49.0885 C   0  0  1  0  0  0  0  0  0  0  0  0
   18.3693   -4.8528   49.6454 C   0  0  0  0  0  0  0  0  0  0  0  0
   19.8663   -4.4863   49.7555 C   0  0  1  0  0  0  0  0  0  0  0  0
   20.5877   -4.5381   48.3366 C   0  0  1  0  0  0  0  0  0  0  0  0
   22.0930   -4.1656   48.4239 C   0  0  1  0  0  0  0  0  0  0  0  0
   22.1682   -2.7261   49.0077 C   0  0  1  0  0  0  0  0  0  0  0  0
   21.4057   -2.7092   50.3866 C   0  0  2  0  0  0  0  0  0  0  0  0
   24.4907   -2.9687   50.1949 C   0  0  0  0  0  0  0  0  0  0  0  0
   16.9367   -6.7688   48.9392 N   0  0  0  0  0  0  0  0  0  0  0  0
   23.6089   -2.3008   49.1751 N   0  0  0  0  0  0  0  0  0  0  0  0
   18.3846   -5.5584   46.7380 O   0  0  0  0  0  0  0  0  0  0  0  0
   20.4472   -5.8949   47.8041 O   0  0  0  0  0  0  0  0  0  0  0  0
   19.9972   -3.1334   50.2686 O   0  0  0  0  0  0  0  0  0  0  0  0
   22.7342   -5.1188   49.2774 O   0  0  0  0  0  0  0  0  0  0  0  0
   21.3985   -1.3993   50.9189 O   0  0  0  0  0  0  0  0  0  0  0  0
   20.5973   -1.3501   52.0846 C   0  0  2  0  0  0  0  0  0  0  0  0
   20.0756    0.0574   52.3716 C   0  0  1  0  0  0  0  0  0  0  0  0
   21.2419    1.0359   52.6803 C   0  0  2  0  0  0  0  0  0  0  0  0
   22.0362    0.4531   53.8866 C   0  0  1  0  0  0  0  0  0  0  0  0
   22.5666   -0.9619   53.4832 C   0  0  1  0  0  0  0  0  0  0  0  0
   23.3140   -1.6488   54.6045 C   0  0  0  0  0  0  0  0  0  0  0  0
   23.1724    1.4000   54.1971 N   0  0  0  0  0  0  0  0  0  0  0  0
   21.4041   -1.8159   53.2114 O   0  0  0  0  0  0  0  0  0  0  0  0
   19.3363    0.4902   51.2124 O   0  0  0  0  0  0  0  0  0  0  0  0
   20.6733    2.3063   53.0460 O   0  0  0  0  0  0  0  0  0  0  0  0
   24.4547   -0.9516   54.9722 O   0  0  0  0  0  0  0  0  0  0  0  0
   18.7553   -5.8479   45.3899 C   0  0  1  0  0  0  0  0  0  0  0  0
   17.6548   -6.7418   44.7141 C   0  0  1  0  0  0  0  0  0  0  0  0
   18.0781   -7.0353   43.2298 C   0  0  2  0  0  0  0  0  0  0  0  0
   18.1996   -5.7089   42.4645 C   0  0  1  0  0  0  0  0  0  0  0  0
   19.3151   -4.8183   43.1358 C   0  0  0  0  0  0  0  0  0  0  0  0
   18.8996   -4.5346   44.6329 C   0  0  2  0  0  0  0  0  0  0  0  0
   18.5730   -5.9952   41.0891 N   0  0  0  0  0  0  0  0  0  0  0  0
   19.9385   -3.7141   45.3092 N   0  0  0  0  0  0  0  0  0  0  0  0
   17.5357   -8.0007   45.4370 O   0  0  0  0  0  0  0  0  0  0  0  0
   17.0886   -7.8184   42.6166 O   0  0  0  0  0  0  0  0  0  0  0  0
  1  2  1  0  0  0  0
  1 12  1  6  0  0  0
  1 13  1  0  0  0  0
  2  3  1  0  0  0  0
  2 10  1  6  0  0  0
  4  3  1  6  0  0  0
  4  5  1  0  0  0  0
  4 14  1  0  0  0  0
  5  6  1  0  0  0  0
  5 13  1  1  0  0  0
  6  7  1  0  0  0  0
  6 15  1  1  0  0  0
  7  8  1  0  0  0  0
  7 11  1  1  0  0  0
  8 14  1  0  0  0  0
  8 16  1  6  0  0  0
  9 11  1  0  0  0  0
 17 16  1  6  0  0  0
 17 18  1  0  0  0  0
 17 24  1  0  0  0  0
 18 19  1  0  0  0  0
 18 25  1  6  0  0  0
 19 20  1  0  0  0  0
 19 26  1  1  0  0  0
 20 21  1  0  0  0  0
 20 23  1  6  0  0  0
 21 22  1  1  0  0  0
 21 24  1  0  0  0  0
 22 27  1  0  0  0  0
 28 12  1  1  0  0  0
 28 29  1  0  0  0  0
 28 33  1  0  0  0  0
 29 30  1  0  0  0  0
 29 36  1  1  0  0  0
 30 31  1  0  0  0  0
 30 37  1  6  0  0  0
 31 32  1  0  0  0  0
 31 34  1  6  0  0  0
 32 33  1  0  0  0  0
 33 35  1  1  0  0  0
M  END
>  <CHROM.1>
-162.96940134,-67.77712966,173.90036974,-156.23282753,-62.89526660,100.93297332
20.36067557,-3.51529339,48.94228572,1.96714435,-0.47582814,-1.98504653

>  <Name>
2oe5_lig

>  <RI>
0

>  <Rbt.Current_Directory>
/home/itssahil/PROJECTS/Mol_Feturizer/New_Systems/rnas/2oe5

>  <Rbt.Executable>
rbdock ($Id: //depot/dev/client3/rdock/2013.1/src/exe/rbdock.cxx#4 $)

>  <Rbt.Library>
libRbt.so (2013.1, Build901 2013/11/27)

>  <Rbt.Parameter_File>
/export/apps/rDock/src/rDock_2013.1_src/data/scripts/dock_solv.prm

>  <Rbt.Receptor>
prm/pocket_docking_6.prm

>  <SCORE>
-9.26759

>  <SCORE.INTER>
-7.60006

>  <SCORE.INTER.CONST>
1

>  <SCORE.INTER.POLAR>
-0.61909

>  <SCORE.INTER.ROT>
6

>  <SCORE.INTER.SOLV>
13.0311

>  <SCORE.INTER.VDW>
-14.9468

>  <SCORE.INTER.norm>
-0.205407

>  <SCORE.INTRA>
-1.66753

>  <SCORE.INTRA.DIHEDRAL>
-6.53568

>  <SCORE.INTRA.DIHEDRAL.0>
16.2083

>  <SCORE.INTRA.POLAR>
0

>  <SCORE.INTRA.POLAR.0>
0

>  <SCORE.INTRA.REPUL>
0

>  <SCORE.INTRA.REPUL.0>
0

>  <SCORE.INTRA.SOLV>
0.221075

>  <SCORE.INTRA.SOLV.lig_0>
-89.8095

>  <SCORE.INTRA.VDW>
1.48978

>  <SCORE.INTRA.VDW.0>
-3.19502

>  <SCORE.INTRA.norm>
-0.0450683

>  <SCORE.RESTR>
0

>  <SCORE.RESTR.CAVITY>
0

>  <SCORE.RESTR.norm>
0

>  <SCORE.SYSTEM>
0

>  <SCORE.SYSTEM.CONST>
0

>  <SCORE.SYSTEM.DIHEDRAL>
0

>  <SCORE.SYSTEM.SOLV>
0

>  <SCORE.SYSTEM.norm>
0

>  <SCORE.heavy>
37

>  <SCORE.norm>
-0.250475

>  <RMSD>
10.471

$$$$
2oe5_lig
 OpenBabel11021811463D
libRbt.so/2013.1/901 2013/11/27
 37 40  0  0  0  0  0  0  0  0999 V2000
   18.2398   -4.4328   44.8798 C   0  0  1  0  0  0  0  0  0  0  0  0
   18.9697   -3.1156   44.5339 C   0  0  1  0  0  0  0  0  0  0  0  0
   20.3316   -3.0544   45.3204 C   0  0  0  0  0  0  0  0  0  0  0  0
   19.9440   -3.1340   46.8140 C   0  0  1  0  0  0  0  0  0  0  0  0
   19.1888   -4.4950   47.1513 C   0  0  1  0  0  0  0  0  0  0  0  0
   18.7965   -4.5985   48.6505 C   0  0  1  0  0  0  0  0  0  0  0  0
   20.1153   -4.5039   49.4693 C   0  0  1  0  0  0  0  0  0  0  0  0
   20.8508   -3.1678   49.0730 C   0  0  2  0  0  0  0  0  0  0  0  0
   19.4800   -5.8454   51.6278 C   0  0  0  0  0  0  0  0  0  0  0  0
   19.2376   -3.0527   43.0787 N   0  0  0  0  0  0  0  0  0  0  0  0
   19.8188   -4.5452   50.9508 N   0  0  0  0  0  0  0  0  0  0  0  0
   18.9883   -5.5871   44.4648 O   0  0  0  0  0  0  0  0  0  0  0  0
   17.9839   -4.5642   46.3220 O   0  0  0  0  0  0  0  0  0  0  0  0
   21.1452   -3.0815   47.6295 O   0  0  0  0  0  0  0  0  0  0  0  0
   17.9074   -3.5175   48.9491 O   0  0  0  0  0  0  0  0  0  0  0  0
   22.0877   -3.0772   49.7521 O   0  0  0  0  0  0  0  0  0  0  0  0
   22.8533   -2.0065   49.2319 C   0  0  2  0  0  0  0  0  0  0  0  0
   24.2601   -1.9560   49.8268 C   0  0  1  0  0  0  0  0  0  0  0  0
   24.2139   -1.6730   51.3535 C   0  0  2  0  0  0  0  0  0  0  0  0
   23.4474   -0.3328   51.5590 C   0  0  1  0  0  0  0  0  0  0  0  0
   22.0108   -0.4964   50.9626 C   0  0  1  0  0  0  0  0  0  0  0  0
   21.1884    0.7691   51.0605 C   0  0  0  0  0  0  0  0  0  0  0  0
   23.3994   -0.0467   53.0422 N   0  0  0  0  0  0  0  0  0  0  0  0
   22.1492   -0.7590   49.5251 O   0  0  0  0  0  0  0  0  0  0  0  0
   24.8895   -3.2249   49.5592 O   0  0  0  0  0  0  0  0  0  0  0  0
   25.5672   -1.5311   51.8219 O   0  0  0  0  0  0  0  0  0  0  0  0
   21.7929    1.8335   50.4092 O   0  0  0  0  0  0  0  0  0  0  0  0
   18.2542   -6.8105   44.5193 C   0  0  1  0  0  0  0  0  0  0  0  0
   17.9786   -7.2012   46.0155 C   0  0  1  0  0  0  0  0  0  0  0  0
   17.1595   -8.5414   46.0492 C   0  0  2  0  0  0  0  0  0  0  0  0
   15.8229   -8.3383   45.3198 C   0  0  1  0  0  0  0  0  0  0  0  0
   16.1012   -7.9601   43.8139 C   0  0  0  0  0  0  0  0  0  0  0  0
   16.9380   -6.6212   43.7775 C   0  0  2  0  0  0  0  0  0  0  0  0
   15.0672   -9.5789   45.3744 N   0  0  0  0  0  0  0  0  0  0  0  0
   17.2410   -6.2410   42.3726 N   0  0  0  0  0  0  0  0  0  0  0  0
   19.2436   -7.3941   46.7113 O   0  0  0  0  0  0  0  0  0  0  0  0
   16.8951   -8.8844   47.3836 O   0  0  0  0  0  0  0  0  0  0  0  0
  1  2  1  0  0  0  0
  1 12  1  1  0  0  0
  1 13  1  0  0  0  0
  2  3  1  0  0  0  0
  2 10  1  6  0  0  0
  4  3  1  6  0  0  0
  4  5  1  0  0  0  0
  4 14  1  0  0  0  0
  5  6  1  0  0  0  0
  5 13  1  6  0  0  0
  6  7  1  0  0  0  0
  6 15  1  1  0  0  0
  7  8  1  0  0  0  0
  7 11  1  1  0  0  0
  8 14  1  0  0  0  0
  8 16  1  1  0  0  0
  9 11  1  0  0  0  0
 17 16  1  1  0  0  0
 17 18  1  0  0  0  0
 17 24  1  0  0  0  0
 18 19  1  0  0  0  0
 18 25  1  1  0  0  0
 19 20  1  0  0  0  0
 19 26  1  6  0  0  0
 20 21  1  0  0  0  0
 20 23  1  1  0  0  0
 21 22  1  6  0  0  0
 21 24  1  0  0  0  0
 22 27  1  0  0  0  0
 28 12  1  1  0  0  0
 28 29  1  0  0  0  0
 28 33  1  0  0  0  0
 29 30  1  0  0  0  0
 29 36  1  1  0  0  0
 30 31  1  0  0  0  0
 30 37  1  1  0  0  0
 31 32  1  0  0  0  0
 31 34  1  6  0  0  0
 32 33  1  0  0  0  0
 33 35  1  6  0  0  0
M  END
>  <CHROM.1>
-168.37047182,76.83545666,169.90658561,-173.86024336,58.49102897,-69.11702602
20.02177669,-4.05501329,47.83285885,-2.92795376,0.94738615,2.08141417

>  <Name>
2oe5_lig

>  <RI>
0

>  <Rbt.Current_Directory>
/home/itssahil/PROJECTS/Mol_Feturizer/New_Systems/rnas/2oe5

>  <Rbt.Executable>
rbdock ($Id: //depot/dev/client3/rdock/2013.1/src/exe/rbdock.cxx#4 $)

>  <Rbt.Library>
libRbt.so (2013.1, Build901 2013/11/27)

>  <Rbt.Parameter_File>
/export/apps/rDock/src/rDock_2013.1_src/data/scripts/dock_solv.prm

>  <Rbt.Receptor>
prm/pocket_docking_7.prm

>  <SCORE>
-18.0263

>  <SCORE.INTER>
-14.0863

>  <SCORE.INTER.CONST>
1

>  <SCORE.INTER.POLAR>
-0.972225

>  <SCORE.INTER.ROT>
6

>  <SCORE.INTER.SOLV>
11.2777

>  <SCORE.INTER.VDW>
-17.5093

>  <SCORE.INTER.norm>
-0.38071

>  <SCORE.INTRA>
-3.94003

>  <SCORE.INTRA.DIHEDRAL>
-14.171

>  <SCORE.INTRA.DIHEDRAL.0>
16.2083

>  <SCORE.INTRA.POLAR>
0

>  <SCORE.INTRA.POLAR.0>
0

>  <SCORE.INTRA.REPUL>
0

>  <SCORE.INTRA.REPUL.0>
0

>  <SCORE.INTRA.SOLV>
-0.796951

>  <SCORE.INTRA.SOLV.lig_0>
-89.8095

>  <SCORE.INTRA.VDW>
3.54396

>  <SCORE.INTRA.VDW.0>
-3.19502

>  <SCORE.INTRA.norm>
-0.106487

>  <SCORE.RESTR>
0

>  <SCORE.RESTR.CAVITY>
0

>  <SCORE.RESTR.norm>
0

>  <SCORE.SYSTEM>
0

>  <SCORE.SYSTEM.CONST>
0

>  <SCORE.SYSTEM.DIHEDRAL>
0

>  <SCORE.SYSTEM.SOLV>
0

>  <SCORE.SYSTEM.norm>
0

>  <SCORE.heavy>
37

>  <SCORE.norm>
-0.487197

>  <RMSD>
10.477

$$$$
2oe5_lig
 OpenBabel11021811463D
libRbt.so/2013.1/901 2013/11/27
 37 40  0  0  0  0  0  0  0  0999 V2000
   17.7910   -3.9618   44.5630 C   0  0  1  0  0  0  0  0  0  0  0  0
   18.9412   -3.0752   44.0354 C   0  0  1  0  0  0  0  0  0  0  0  0
   20.2402   -3.3529   44.8795 C   0  0  0  0  0  0  0  0  0  0  0  0
   19.8599   -3.0117   46.3377 C   0  0  1  0  0  0  0  0  0  0  0  0
   18.6705   -3.9312   46.8630 C   0  0  1  0  0  0  0  0  0  0  0  0
   18.2772   -3.6093   48.3306 C   0  0  1  0  0  0  0  0  0  0  0  0
   19.5482   -3.8351   49.1979 C   0  0  1  0  0  0  0  0  0  0  0  0
   20.7101   -2.9425   48.6178 C   0  0  2  0  0  0  0  0  0  0  0  0
   19.4745   -4.5164   51.7264 C   0  0  0  0  0  0  0  0  0  0  0  0
   19.2040   -3.3823   42.6106 N   0  0  0  0  0  0  0  0  0  0  0  0
   19.2666   -3.4932   50.6431 N   0  0  0  0  0  0  0  0  0  0  0  0
   18.0746   -5.3614   44.4034 O   0  0  0  0  0  0  0  0  0  0  0  0
   17.5148   -3.7242   45.9878 O   0  0  0  0  0  0  0  0  0  0  0  0
   21.0061   -3.2354   47.2020 O   0  0  0  0  0  0  0  0  0  0  0  0
   17.8354   -2.2489   48.3803 O   0  0  0  0  0  0  0  0  0  0  0  0
   21.9022   -3.1691   49.3436 O   0  0  0  0  0  0  0  0  0  0  0  0
   22.8987   -2.2458   48.9467 C   0  0  2  0  0  0  0  0  0  0  0  0
   24.2263   -2.4792   49.6668 C   0  0  1  0  0  0  0  0  0  0  0  0
   24.0851   -2.2402   51.1952 C   0  0  2  0  0  0  0  0  0  0  0  0
   23.5624   -0.7869   51.3963 C   0  0  1  0  0  0  0  0  0  0  0  0
   22.1850   -0.6589   50.6665 C   0  0  1  0  0  0  0  0  0  0  0  0
   21.6043    0.7350   50.7519 C   0  0  0  0  0  0  0  0  0  0  0  0
   23.4243   -0.5432   52.8814 N   0  0  0  0  0  0  0  0  0  0  0  0
   22.4115   -0.8980   49.2361 O   0  0  0  0  0  0  0  0  0  0  0  0
   24.6340   -3.8348   49.3953 O   0  0  0  0  0  0  0  0  0  0  0  0
   25.3895   -2.3699   51.7892 O   0  0  0  0  0  0  0  0  0  0  0  0
   22.4851    1.6950   50.2774 O   0  0  0  0  0  0  0  0  0  0  0  0
   17.1202   -6.2255   45.0208 C   0  0  1  0  0  0  0  0  0  0  0  0
   15.7637   -6.1733   44.2308 C   0  0  1  0  0  0  0  0  0  0  0  0
   14.7354   -7.1407   44.9202 C   0  0  2  0  0  0  0  0  0  0  0  0
   15.2883   -8.5737   44.8917 C   0  0  1  0  0  0  0  0  0  0  0  0
   16.6433   -8.6274   45.6976 C   0  0  0  0  0  0  0  0  0  0  0  0
   17.6739   -7.6439   45.0157 C   0  0  2  0  0  0  0  0  0  0  0  0
   14.3202   -9.4609   45.5151 N   0  0  0  0  0  0  0  0  0  0  0  0
   18.9605   -7.6487   45.7604 N   0  0  0  0  0  0  0  0  0  0  0  0
   15.2359   -4.8160   44.2546 O   0  0  0  0  0  0  0  0  0  0  0  0
   13.5278   -7.1113   44.2067 O   0  0  0  0  0  0  0  0  0  0  0  0
  1  2  1  0  0  0  0
  1 12  1  1  0  0  0
  1 13  1  0  0  0  0
  2  3  1  0  0  0  0
  2 10  1  6  0  0  0
  4  3  1  6  0  0  0
  4  5  1  0  0  0  0
  4 14  1  0  0  0  0
  5  6  1  0  0  0  0
  5 13  1  6  0  0  0
  6  7  1  0  0  0  0
  6 15  1  6  0  0  0
  7  8  1  0  0  0  0
  7 11  1  1  0  0  0
  8 14  1  0  0  0  0
  8 16  1  1  0  0  0
  9 11  1  0  0  0  0
 17 16  1  1  0  0  0
 17 18  1  0  0  0  0
 17 24  1  0  0  0  0
 18 19  1  0  0  0  0
 18 25  1  1  0  0  0
 19 20  1  0  0  0  0
 19 26  1  1  0  0  0
 20 21  1  0  0  0  0
 20 23  1  1  0  0  0
 21 22  1  6  0  0  0
 21 24  1  0  0  0  0
 22 27  1  0  0  0  0
 28 12  1  6  0  0  0
 28 29  1  0  0  0  0
 28 33  1  0  0  0  0
 29 30  1  0  0  0  0
 29 36  1  1  0  0  0
 30 31  1  0  0  0  0
 30 37  1  6  0  0  0
 31 32  1  0  0  0  0
 31 34  1  1  0  0  0
 32 33  1  0  0  0  0
 33 35  1  1  0  0  0
M  END
>  <CHROM.1>
172.74965095,122.70750965,-172.23311984,-177.96405086,55.16832128,70.52965085
19.60112017,-3.85652933,47.55829427,-3.04405094,0.84432120,2.27938612

>  <Name>
2oe5_lig

>  <RI>
0

>  <Rbt.Current_Directory>
/home/itssahil/PROJECTS/Mol_Feturizer/New_Systems/rnas/2oe5

>  <Rbt.Executable>
rbdock ($Id: //depot/dev/client3/rdock/2013.1/src/exe/rbdock.cxx#4 $)

>  <Rbt.Library>
libRbt.so (2013.1, Build901 2013/11/27)

>  <Rbt.Parameter_File>
/export/apps/rDock/src/rDock_2013.1_src/data/scripts/dock_solv.prm

>  <Rbt.Receptor>
prm/pocket_docking_6.prm

>  <SCORE>
-16.2864

>  <SCORE.INTER>
-9.78993

>  <SCORE.INTER.CONST>
1

>  <SCORE.INTER.POLAR>
-0.245612

>  <SCORE.INTER.ROT>
6

>  <SCORE.INTER.SOLV>
12.5286

>  <SCORE.INTER.VDW>
-17.4841

>  <SCORE.INTER.norm>
-0.264593

>  <SCORE.INTRA>
-6.49652

>  <SCORE.INTRA.DIHEDRAL>
-13.732

>  <SCORE.INTRA.DIHEDRAL.0>
16.2083

>  <SCORE.INTRA.POLAR>
0

>  <SCORE.INTRA.POLAR.0>
0

>  <SCORE.INTRA.REPUL>
0

>  <SCORE.INTRA.REPUL.0>
0

>  <SCORE.INTRA.SOLV>
-2.25

>  <SCORE.INTRA.SOLV.lig_0>
-89.8095

>  <SCORE.INTRA.VDW>
1.49447

>  <SCORE.INTRA.VDW.0>
-3.19502

>  <SCORE.INTRA.norm>
-0.175582

>  <SCORE.RESTR>
0

>  <SCORE.RESTR.CAVITY>
0

>  <SCORE.RESTR.norm>
0

>  <SCORE.SYSTEM>
0

>  <SCORE.SYSTEM.CONST>
0

>  <SCORE.SYSTEM.DIHEDRAL>
0

>  <SCORE.SYSTEM.SOLV>
0

>  <SCORE.SYSTEM.norm>
0

>  <SCORE.heavy>
37

>  <SCORE.norm>
-0.440174

>  <RMSD>
10.545

$$$$
2oe5_lig
 OpenBabel11021811463D
libRbt.so/2013.1/901 2013/11/27
 37 40  0  0  0  0  0  0  0  0999 V2000
   18.1284   -5.8615   46.6480 C   0  0  1  0  0  0  0  0  0  0  0  0
   17.0293   -5.3316   47.5960 C   0  0  1  0  0  0  0  0  0  0  0  0
   17.5334   -4.0116   48.2893 C   0  0  0  0  0  0  0  0  0  0  0  0
   18.8173   -4.4144   49.0489 C   0  0  1  0  0  0  0  0  0  0  0  0
   19.9366   -4.9624   48.0574 C   0  0  1  0  0  0  0  0  0  0  0  0
   21.2392   -5.3664   48.8005 C   0  0  1  0  0  0  0  0  0  0  0  0
   21.7530   -4.0947   49.5337 C   0  0  1  0  0  0  0  0  0  0  0  0
   20.6017   -3.5611   50.4679 C   0  0  2  0  0  0  0  0  0  0  0  0
   24.3122   -4.6458   49.6338 C   0  0  0  0  0  0  0  0  0  0  0  0
   15.7949   -5.0454   46.8294 N   0  0  0  0  0  0  0  0  0  0  0  0
   22.9983   -4.4130   50.3290 N   0  0  0  0  0  0  0  0  0  0  0  0
   18.4107   -4.9386   45.5833 O   0  0  0  0  0  0  0  0  0  0  0  0
   19.3914   -6.1251   47.3538 O   0  0  0  0  0  0  0  0  0  0  0  0
   19.3613   -3.2525   49.7305 O   0  0  0  0  0  0  0  0  0  0  0  0
   20.9154   -6.4146   49.7195 O   0  0  0  0  0  0  0  0  0  0  0  0
   21.0106   -2.3668   51.1049 O   0  0  0  0  0  0  0  0  0  0  0  0
   20.8226   -1.2627   50.2397 C   0  0  2  0  0  0  0  0  0  0  0  0
   22.1053   -0.4559   50.0409 C   0  0  1  0  0  0  0  0  0  0  0  0
   22.5733    0.1910   51.3733 C   0  0  2  0  0  0  0  0  0  0  0  0
   21.4054    1.0765   51.9004 C   0  0  1  0  0  0  0  0  0  0  0  0
   20.1571    0.1592   52.1160 C   0  0  1  0  0  0  0  0  0  0  0  0
   18.9396    0.9268   52.5806 C   0  0  0  0  0  0  0  0  0  0  0  0
   21.8522    1.7133   53.1961 N   0  0  0  0  0  0  0  0  0  0  0  0
   19.7857   -0.4062   50.8134 O   0  0  0  0  0  0  0  0  0  0  0  0
   23.1078   -1.3554   49.5276 O   0  0  0  0  0  0  0  0  0  0  0  0
   23.7159    1.0188   51.0899 O   0  0  0  0  0  0  0  0  0  0  0  0
   18.0053    0.1014   53.1878 O   0  0  0  0  0  0  0  0  0  0  0  0
   17.5089   -5.0257   44.4797 C   0  0  1  0  0  0  0  0  0  0  0  0
   17.1967   -3.5875   43.9311 C   0  0  1  0  0  0  0  0  0  0  0  0
   16.2146   -3.7101   42.7108 C   0  0  2  0  0  0  0  0  0  0  0  0
   16.8792   -4.5452   41.6059 C   0  0  1  0  0  0  0  0  0  0  0  0
   17.1791   -5.9936   42.1540 C   0  0  0  0  0  0  0  0  0  0  0  0
   18.1540   -5.8720   43.3906 C   0  0  2  0  0  0  0  0  0  0  0  0
   15.9687   -4.6352   40.4763 N   0  0  0  0  0  0  0  0  0  0  0  0
   18.4447   -7.2177   43.9516 N   0  0  0  0  0  0  0  0  0  0  0  0
   16.5668   -2.7917   44.9759 O   0  0  0  0  0  0  0  0  0  0  0  0
   15.9475   -2.4287   42.2059 O   0  0  0  0  0  0  0  0  0  0  0  0
  1  2  1  0  0  0  0
  1 12  1  6  0  0  0
  1 13  1  0  0  0  0
  2  3  1  0  0  0  0
  2 10  1  6  0  0  0
  4  3  1  6  0  0  0
  4  5  1  0  0  0  0
  4 14  1  0  0  0  0
  5  6  1  0  0  0  0
  5 13  1  1  0  0  0
  6  7  1  0  0  0  0
  6 15  1  1  0  0  0
  7  8  1  0  0  0  0
  7 11  1  1  0  0  0
  8 14  1  0  0  0  0
  8 16  1  6  0  0  0
  9 11  1  0  0  0  0
 17 16  1  1  0  0  0
 17 18  1  0  0  0  0
 17 24  1  0  0  0  0
 18 19  1  0  0  0  0
 18 25  1  1  0  0  0
 19 20  1  0  0  0  0
 19 26  1  6  0  0  0
 20 21  1  0  0  0  0
 20 23  1  1  0  0  0
 21 22  1  6  0  0  0
 21 24  1  0  0  0  0
 22 27  1  0  0  0  0
 28 12  1  1  0  0  0
 28 29  1  0  0  0  0
 28 33  1  0  0  0  0
 29 30  1  0  0  0  0
 29 36  1  1  0  0  0
 30 31  1  0  0  0  0
 30 37  1  6  0  0  0
 31 32  1  0  0  0  0
 31 34  1  6  0  0  0
 32 33  1  0  0  0  0
 33 35  1  1  0  0  0
M  END
>  <CHROM.1>
-82.71273526,73.21763332,82.23129572,-125.07260459,-159.77694927,141.19897120
19.47126027,-3.18843122,48.00309805,-2.21166118,-0.75430001,0.60605572

>  <Name>
2oe5_lig

>  <RI>
0

>  <Rbt.Current_Directory>
/home/itssahil/PROJECTS/Mol_Feturizer/New_Systems/rnas/2oe5

>  <Rbt.Executable>
rbdock ($Id: //depot/dev/client3/rdock/2013.1/src/exe/rbdock.cxx#4 $)

>  <Rbt.Library>
libRbt.so (2013.1, Build901 2013/11/27)

>  <Rbt.Parameter_File>
/export/apps/rDock/src/rDock_2013.1_src/data/scripts/dock_solv.prm

>  <Rbt.Receptor>
prm/blind_docking_60.prm

>  <SCORE>
-16.0724

>  <SCORE.INTER>
-18.9532

>  <SCORE.INTER.CONST>
1

>  <SCORE.INTER.POLAR>
-2.58058

>  <SCORE.INTER.ROT>
6

>  <SCORE.INTER.SOLV>
10.2777

>  <SCORE.INTER.VDW>
-15.0594

>  <SCORE.INTER.norm>
-0.512248

>  <SCORE.INTRA>
2.88071

>  <SCORE.INTRA.DIHEDRAL>
2.00352

>  <SCORE.INTRA.DIHEDRAL.0>
16.2083

>  <SCORE.INTRA.POLAR>
0

>  <SCORE.INTRA.POLAR.0>
0

>  <SCORE.INTRA.REPUL>
0

>  <SCORE.INTRA.REPUL.0>
0

>  <SCORE.INTRA.SOLV>
1.28078

>  <SCORE.INTRA.SOLV.lig_0>
-89.8095

>  <SCORE.INTRA.VDW>
1.23856

>  <SCORE.INTRA.VDW.0>
-3.19502

>  <SCORE.INTRA.norm>
0.0778571

>  <SCORE.RESTR>
0

>  <SCORE.RESTR.CAVITY>
0

>  <SCORE.RESTR.norm>
0

>  <SCORE.SYSTEM>
0

>  <SCORE.SYSTEM.CONST>
0

>  <SCORE.SYSTEM.DIHEDRAL>
0

>  <SCORE.SYSTEM.SOLV>
0

>  <SCORE.SYSTEM.norm>
0

>  <SCORE.heavy>
37

>  <SCORE.norm>
-0.43439

>  <RMSD>
10.553

$$$$
2oe5_lig
 OpenBabel11021811463D
libRbt.so/2013.1/901 2013/11/27
 37 40  0  0  0  0  0  0  0  0999 V2000
   21.6217    0.5908   53.0590 C   0  0  1  0  0  0  0  0  0  0  0  0
   22.1329   -0.3342   54.1861 C   0  0  1  0  0  0  0  0  0  0  0  0
   20.9365   -0.6991   55.1414 C   0  0  0  0  0  0  0  0  0  0  0  0
   20.4197    0.6527   55.6827 C   0  0  1  0  0  0  0  0  0  0  0  0
   19.9017    1.5946   54.5076 C   0  0  1  0  0  0  0  0  0  0  0  0
   19.3708    2.9569   55.0313 C   0  0  1  0  0  0  0  0  0  0  0  0
   18.2066    2.6400   56.0126 C   0  0  1  0  0  0  0  0  0  0  0  0
   18.7499    1.6722   57.1313 C   0  0  2  0  0  0  0  0  0  0  0  0
   16.8395    4.8626   55.7802 C   0  0  0  0  0  0  0  0  0  0  0  0
   22.6965   -1.5748   53.6060 N   0  0  0  0  0  0  0  0  0  0  0  0
   17.6616    3.9160   56.6121 N   0  0  0  0  0  0  0  0  0  0  0  0
   20.6409   -0.0589   52.2338 O   0  0  0  0  0  0  0  0  0  0  0  0
   21.0147    1.8232   53.5838 O   0  0  0  0  0  0  0  0  0  0  0  0
   19.3055    0.4189   56.5852 O   0  0  0  0  0  0  0  0  0  0  0  0
   20.4508    3.6280   55.6881 O   0  0  0  0  0  0  0  0  0  0  0  0
   17.7015    1.3106   58.0085 O   0  0  0  0  0  0  0  0  0  0  0  0
   18.0428    1.6435   59.3410 C   0  0  2  0  0  0  0  0  0  0  0  0
   17.0049    1.1478   60.3473 C   0  0  1  0  0  0  0  0  0  0  0  0
   15.6342    1.8453   60.1291 C   0  0  2  0  0  0  0  0  0  0  0  0
   15.8662    3.3812   60.2422 C   0  0  1  0  0  0  0  0  0  0  0  0
   16.9028    3.7995   59.1482 C   0  0  1  0  0  0  0  0  0  0  0  0
   17.2457    5.2717   59.1987 C   0  0  0  0  0  0  0  0  0  0  0  0
   14.5369    4.0695   60.0341 N   0  0  0  0  0  0  0  0  0  0  0  0
   18.1608    3.0981   59.4308 O   0  0  0  0  0  0  0  0  0  0  0  0
   16.8866   -0.2790   60.1806 O   0  0  0  0  0  0  0  0  0  0  0  0
   14.7431    1.4141   61.1737 O   0  0  0  0  0  0  0  0  0  0  0  0
   17.7566    5.6443   60.4327 O   0  0  0  0  0  0  0  0  0  0  0  0
   21.1651   -1.1059   51.4168 C   0  0  1  0  0  0  0  0  0  0  0  0
   19.9930   -2.0078   50.8880 C   0  0  1  0  0  0  0  0  0  0  0  0
   20.5928   -3.1428   49.9821 C   0  0  2  0  0  0  0  0  0  0  0  0
   21.3260   -2.5078   48.7909 C   0  0  1  0  0  0  0  0  0  0  0  0
   22.5116   -1.6137   49.3230 C   0  0  0  0  0  0  0  0  0  0  0  0
   21.9129   -0.4811   50.2466 C   0  0  2  0  0  0  0  0  0  0  0  0
   21.8595   -3.5677   47.9513 N   0  0  0  0  0  0  0  0  0  0  0  0
   23.0031    0.3725   50.7877 N   0  0  0  0  0  0  0  0  0  0  0  0
   19.2944   -2.6116   52.0144 O   0  0  0  0  0  0  0  0  0  0  0  0
   19.5472   -3.9399   49.4925 O   0  0  0  0  0  0  0  0  0  0  0  0
  1  2  1  0  0  0  0
  1 12  1  1  0  0  0
  1 13  1  0  0  0  0
  2  3  1  0  0  0  0
  2 10  1  6  0  0  0
  4  3  1  6  0  0  0
  4  5  1  0  0  0  0
  4 14  1  0  0  0  0
  5  6  1  0  0  0  0
  5 13  1  6  0  0  0
  6  7  1  0  0  0  0
  6 15  1  1  0  0  0
  7  8  1  0  0  0  0
  7 11  1  1  0  0  0
  8 14  1  0  0  0  0
  8 16  1  1  0  0  0
  9 11  1  0  0  0  0
 17 16  1  6  0  0  0
 17 18  1  0  0  0  0
 17 24  1  0  0  0  0
 18 19  1  0  0  0  0
 18 25  1  6  0  0  0
 19 20  1  0  0  0  0
 19 26  1  1  0  0  0
 20 21  1  0  0  0  0
 20 23  1  6  0  0  0
 21 22  1  1  0  0  0
 21 24  1  0  0  0  0
 22 27  1  0  0  0  0
 28 12  1  1  0  0  0
 28 29  1  0  0  0  0
 28 33  1  0  0  0  0
 29 30  1  0  0  0  0
 29 36  1  1  0  0  0
 30 31  1  0  0  0  0
 30 37  1  6  0  0  0
 31 32  1  0  0  0  0
 31 34  1  6  0  0  0
 32 33  1  0  0  0  0
 33 35  1  1  0  0  0
M  END
>  <CHROM.1>
-69.50636537,72.31431158,-123.68075406,-174.27988338,58.11237419,163.60848001
19.20227609,0.92956505,55.27623002,-0.83691445,0.91539206,0.45112386

>  <Name>
2oe5_lig

>  <RI>
0

>  <Rbt.Current_Directory>
/home/itssahil/PROJECTS/Mol_Feturizer/New_Systems/rnas/2oe5

>  <Rbt.Executable>
rbdock ($Id: //depot/dev/client3/rdock/2013.1/src/exe/rbdock.cxx#4 $)

>  <Rbt.Library>
libRbt.so (2013.1, Build901 2013/11/27)

>  <Rbt.Parameter_File>
/export/apps/rDock/src/rDock_2013.1_src/data/scripts/dock_solv.prm

>  <Rbt.Receptor>
prm/pocket_docking_8.prm

>  <SCORE>
-20.9368

>  <SCORE.INTER>
-21.6144

>  <SCORE.INTER.CONST>
1

>  <SCORE.INTER.POLAR>
-2.72907

>  <SCORE.INTER.ROT>
6

>  <SCORE.INTER.SOLV>
13.0767

>  <SCORE.INTER.VDW>
-17.2716

>  <SCORE.INTER.norm>
-0.584173

>  <SCORE.INTRA>
0.677638

>  <SCORE.INTRA.DIHEDRAL>
-7.06076

>  <SCORE.INTRA.DIHEDRAL.0>
16.2083

>  <SCORE.INTRA.POLAR>
0

>  <SCORE.INTRA.POLAR.0>
0

>  <SCORE.INTRA.REPUL>
0

>  <SCORE.INTRA.REPUL.0>
0

>  <SCORE.INTRA.SOLV>
4.06079

>  <SCORE.INTRA.SOLV.lig_0>
-89.8095

>  <SCORE.INTRA.VDW>
2.17762

>  <SCORE.INTRA.VDW.0>
-3.19502

>  <SCORE.INTRA.norm>
0.0183145

>  <SCORE.RESTR>
0

>  <SCORE.RESTR.CAVITY>
0

>  <SCORE.RESTR.norm>
0

>  <SCORE.SYSTEM>
0

>  <SCORE.SYSTEM.CONST>
0

>  <SCORE.SYSTEM.DIHEDRAL>
0

>  <SCORE.SYSTEM.SOLV>
0

>  <SCORE.SYSTEM.norm>
0

>  <SCORE.heavy>
37

>  <SCORE.norm>
-0.565858

>  <RMSD>
10.567

$$$$
2oe5_lig
 OpenBabel11021811463D
libRbt.so/2013.1/901 2013/11/27
 37 40  0  0  0  0  0  0  0  0999 V2000
   18.9785   -5.3672   46.6013 C   0  0  1  0  0  0  0  0  0  0  0  0
   18.0499   -4.2914   47.2075 C   0  0  1  0  0  0  0  0  0  0  0  0
   18.9089   -3.0420   47.6298 C   0  0  0  0  0  0  0  0  0  0  0  0
   19.9317   -3.5782   48.6563 C   0  0  1  0  0  0  0  0  0  0  0  0
   20.8765   -4.6888   48.0161 C   0  0  1  0  0  0  0  0  0  0  0  0
   21.9178   -5.2364   49.0301 C   0  0  1  0  0  0  0  0  0  0  0  0
   22.7672   -4.0228   49.5038 C   0  0  1  0  0  0  0  0  0  0  0  0
   21.7916   -2.9318   50.0878 C   0  0  2  0  0  0  0  0  0  0  0  0
   25.2480   -4.2171   50.3227 C   0  0  0  0  0  0  0  0  0  0  0  0
   17.0358   -3.8782   46.2104 N   0  0  0  0  0  0  0  0  0  0  0  0
   23.7789   -4.4604   50.5380 N   0  0  0  0  0  0  0  0  0  0  0  0
   19.6232   -4.9071   45.4023 O   0  0  0  0  0  0  0  0  0  0  0  0
   20.0312   -5.7854   47.5392 O   0  0  0  0  0  0  0  0  0  0  0  0
   20.7771   -2.4882   49.1121 O   0  0  0  0  0  0  0  0  0  0  0  0
   21.2031   -5.8394   50.1135 O   0  0  0  0  0  0  0  0  0  0  0  0
   22.5236   -1.7846   50.4717 O   0  0  0  0  0  0  0  0  0  0  0  0
   21.8705   -1.1229   51.5388 C   0  0  2  0  0  0  0  0  0  0  0  0
   21.2424    0.2006   51.1036 C   0  0  1  0  0  0  0  0  0  0  0  0
   22.3280    1.2134   50.6466 C   0  0  2  0  0  0  0  0  0  0  0  0
   23.3209    1.4030   51.8314 C   0  0  1  0  0  0  0  0  0  0  0  0
   23.9442    0.0097   52.1729 C   0  0  1  0  0  0  0  0  0  0  0  0
   24.8915    0.0646   53.3506 C   0  0  0  0  0  0  0  0  0  0  0  0
   24.3804    2.3896   51.3977 N   0  0  0  0  0  0  0  0  0  0  0  0
   22.8538   -0.8786   52.5929 O   0  0  0  0  0  0  0  0  0  0  0  0
   20.3252   -0.0875   50.0296 O   0  0  0  0  0  0  0  0  0  0  0  0
   21.6776    2.4642   50.3578 O   0  0  0  0  0  0  0  0  0  0  0  0
   24.2694    0.5369   54.4963 O   0  0  0  0  0  0  0  0  0  0  0  0
   18.7644   -4.8457   44.2633 C   0  0  1  0  0  0  0  0  0  0  0  0
   19.3537   -3.8472   43.2038 C   0  0  1  0  0  0  0  0  0  0  0  0
   18.3996   -3.8069   41.9562 C   0  0  2  0  0  0  0  0  0  0  0  0
   18.3098   -5.2111   41.3399 C   0  0  1  0  0  0  0  0  0  0  0  0
   17.7045   -6.2098   42.4003 C   0  0  0  0  0  0  0  0  0  0  0  0
   18.6537   -6.2404   43.6623 C   0  0  2  0  0  0  0  0  0  0  0  0
   17.4400   -5.1564   40.1766 N   0  0  0  0  0  0  0  0  0  0  0  0
   18.1054   -7.1559   44.6973 N   0  0  0  0  0  0  0  0  0  0  0  0
   19.4413   -2.5141   43.7842 O   0  0  0  0  0  0  0  0  0  0  0  0
   18.9321   -2.9299   40.9993 O   0  0  0  0  0  0  0  0  0  0  0  0
  1  2  1  0  0  0  0
  1 12  1  6  0  0  0
  1 13  1  0  0  0  0
  2  3  1  0  0  0  0
  2 10  1  6  0  0  0
  4  3  1  6  0  0  0
  4  5  1  0  0  0  0
  4 14  1  0  0  0  0
  5  6  1  0  0  0  0
  5 13  1  1  0  0  0
  6  7  1  0  0  0  0
  6 15  1  1  0  0  0
  7  8  1  0  0  0  0
  7 11  1  1  0  0  0
  8 14  1  0  0  0  0
  8 16  1  6  0  0  0
  9 11  1  0  0  0  0
 17 16  1  6  0  0  0
 17 18  1  0  0  0  0
 17 24  1  0  0  0  0
 18 19  1  0  0  0  0
 18 25  1  6  0  0  0
 19 20  1  0  0  0  0
 19 26  1  1  0  0  0
 20 21  1  0  0  0  0
 20 23  1  6  0  0  0
 21 22  1  1  0  0  0
 21 24  1  0  0  0  0
 22 27  1  0  0  0  0
 28 12  1  1  0  0  0
 28 29  1  0  0  0  0
 28 33  1  0  0  0  0
 29 30  1  0  0  0  0
 29 36  1  1  0  0  0
 30 31  1  0  0  0  0
 30 37  1  6  0  0  0
 31 32  1  0  0  0  0
 31 34  1  6  0  0  0
 32 33  1  0  0  0  0
 33 35  1  1  0  0  0
M  END
>  <CHROM.1>
-74.10771396,122.93337195,-150.92509700,-108.91261431,58.47253527,158.00708158
20.82674772,-2.89280491,47.94553247,-2.72781440,-1.07208336,-0.03648529

>  <Name>
2oe5_lig

>  <RI>
0

>  <Rbt.Current_Directory>
/home/itssahil/PROJECTS/Mol_Feturizer/New_Systems/rnas/2oe5

>  <Rbt.Executable>
rbdock ($Id: //depot/dev/client3/rdock/2013.1/src/exe/rbdock.cxx#4 $)

>  <Rbt.Library>
libRbt.so (2013.1, Build901 2013/11/27)

>  <Rbt.Parameter_File>
/export/apps/rDock/src/rDock_2013.1_src/data/scripts/dock_solv.prm

>  <Rbt.Receptor>
prm/blind_docking_60.prm

>  <SCORE>
-18.9063

>  <SCORE.INTER>
-19.6702

>  <SCORE.INTER.CONST>
1

>  <SCORE.INTER.POLAR>
-1.79331

>  <SCORE.INTER.ROT>
6

>  <SCORE.INTER.SOLV>
17.5686

>  <SCORE.INTER.VDW>
-20.592

>  <SCORE.INTER.norm>
-0.531627

>  <SCORE.INTRA>
0.592764

>  <SCORE.INTRA.DIHEDRAL>
-1.84764

>  <SCORE.INTRA.DIHEDRAL.0>
16.2083

>  <SCORE.INTRA.POLAR>
0

>  <SCORE.INTRA.POLAR.0>
0

>  <SCORE.INTRA.REPUL>
0

>  <SCORE.INTRA.REPUL.0>
0

>  <SCORE.INTRA.SOLV>
1.99895

>  <SCORE.INTRA.SOLV.lig_0>
-89.8095

>  <SCORE.INTRA.VDW>
0.517109

>  <SCORE.INTRA.VDW.0>
-3.19502

>  <SCORE.INTRA.norm>
0.0160207

>  <SCORE.RESTR>
0.171133

>  <SCORE.RESTR.CAVITY>
0.171133

>  <SCORE.RESTR.norm>
0.00462522

>  <SCORE.SYSTEM>
0

>  <SCORE.SYSTEM.CONST>
0

>  <SCORE.SYSTEM.DIHEDRAL>
0

>  <SCORE.SYSTEM.SOLV>
0

>  <SCORE.SYSTEM.norm>
0

>  <SCORE.heavy>
37

>  <SCORE.norm>
-0.510981

>  <RMSD>
10.610

$$$$
2oe5_lig
 OpenBabel11021811463D
libRbt.so/2013.1/901 2013/11/27
 37 40  0  0  0  0  0  0  0  0999 V2000
   17.7600   -4.7405   44.9891 C   0  0  1  0  0  0  0  0  0  0  0  0
   17.9094   -3.2270   44.7164 C   0  0  1  0  0  0  0  0  0  0  0  0
   19.1795   -2.6860   45.4723 C   0  0  0  0  0  0  0  0  0  0  0  0
   18.9254   -2.9894   46.9659 C   0  0  1  0  0  0  0  0  0  0  0  0
   18.7690   -4.5525   47.2275 C   0  0  1  0  0  0  0  0  0  0  0  0
   18.5199   -4.8800   48.7252 C   0  0  1  0  0  0  0  0  0  0  0  0
   19.7389   -4.3266   49.5166 C   0  0  1  0  0  0  0  0  0  0  0  0
   19.8839   -2.7908   49.1948 C   0  0  2  0  0  0  0  0  0  0  0  0
   19.6462   -5.9461   51.5736 C   0  0  0  0  0  0  0  0  0  0  0  0
   18.0616   -2.9874   43.2628 N   0  0  0  0  0  0  0  0  0  0  0  0
   19.5535   -4.5588   50.9985 N   0  0  0  0  0  0  0  0  0  0  0  0
   18.8737   -5.4913   44.4784 O   0  0  0  0  0  0  0  0  0  0  0  0
   17.6447   -5.0379   46.4247 O   0  0  0  0  0  0  0  0  0  0  0  0
   20.0521   -2.5201   47.7538 O   0  0  0  0  0  0  0  0  0  0  0  0
   17.2991   -4.2448   49.1182 O   0  0  0  0  0  0  0  0  0  0  0  0
   21.0222   -2.2653   49.8485 O   0  0  0  0  0  0  0  0  0  0  0  0
   21.0594   -0.8575   49.7087 C   0  0  2  0  0  0  0  0  0  0  0  0
   22.3691   -0.2577   50.2191 C   0  0  1  0  0  0  0  0  0  0  0  0
   22.5319   -0.4842   51.7472 C   0  0  2  0  0  0  0  0  0  0  0  0
   21.2920    0.1447   52.4493 C   0  0  1  0  0  0  0  0  0  0  0  0
   20.0097   -0.5613   51.8985 C   0  0  1  0  0  0  0  0  0  0  0  0
   18.7334    0.0088   52.4761 C   0  0  0  0  0  0  0  0  0  0  0  0
   21.4423   -0.0678   53.9380 N   0  0  0  0  0  0  0  0  0  0  0  0
   19.9357   -0.2959   50.4568 O   0  0  0  0  0  0  0  0  0  0  0  0
   23.4447   -0.8824   49.4906 O   0  0  0  0  0  0  0  0  0  0  0  0
   23.7252    0.1975   52.1744 O   0  0  0  0  0  0  0  0  0  0  0  0
   18.5983    1.3615   52.2033 O   0  0  0  0  0  0  0  0  0  0  0  0
   18.6539   -6.9012   44.4267 C   0  0  1  0  0  0  0  0  0  0  0  0
   18.6097   -7.4881   45.8829 C   0  0  1  0  0  0  0  0  0  0  0  0
   18.3539   -9.0360   45.8004 C   0  0  2  0  0  0  0  0  0  0  0  0
   17.0081   -9.2922   45.1053 C   0  0  1  0  0  0  0  0  0  0  0  0
   17.0591   -8.7149   43.6382 C   0  0  0  0  0  0  0  0  0  0  0  0
   17.3316   -7.1613   43.7178 C   0  0  2  0  0  0  0  0  0  0  0  0
   16.7748  -10.7260   45.0523 N   0  0  0  0  0  0  0  0  0  0  0  0
   17.4092   -6.5813   42.3512 N   0  0  0  0  0  0  0  0  0  0  0  0
   19.8838   -7.2468   46.5461 O   0  0  0  0  0  0  0  0  0  0  0  0
   18.2952   -9.5615   47.0999 O   0  0  0  0  0  0  0  0  0  0  0  0
  1  2  1  0  0  0  0
  1 12  1  1  0  0  0
  1 13  1  0  0  0  0
  2  3  1  0  0  0  0
  2 10  1  6  0  0  0
  4  3  1  6  0  0  0
  4  5  1  0  0  0  0
  4 14  1  0  0  0  0
  5  6  1  0  0  0  0
  5 13  1  6  0  0  0
  6  7  1  0  0  0  0
  6 15  1  1  0  0  0
  7  8  1  0  0  0  0
  7 11  1  1  0  0  0
  8 14  1  0  0  0  0
  8 16  1  1  0  0  0
  9 11  1  0  0  0  0
 17 16  1  1  0  0  0
 17 18  1  0  0  0  0
 17 24  1  0  0  0  0
 18 19  1  0  0  0  0
 18 25  1  6  0  0  0
 19 20  1  0  0  0  0
 19 26  1  1  0  0  0
 20 21  1  0  0  0  0
 20 23  1  1  0  0  0
 21 22  1  1  0  0  0
 21 24  1  0  0  0  0
 22 27  1  0  0  0  0
 28 12  1  1  0  0  0
 28 29  1  0  0  0  0
 28 33  1  0  0  0  0
 29 30  1  0  0  0  0
 29 36  1  6  0  0  0
 30 31  1  0  0  0  0
 30 37  1  1  0  0  0
 31 32  1  0  0  0  0
 31 34  1  6  0  0  0
 32 33  1  0  0  0  0
 33 35  1  6  0  0  0
M  END
>  <CHROM.1>
-166.45271909,71.02692002,-172.32044931,-171.69252750,59.29653506,-69.87450698
19.35764417,-3.96130221,48.06009779,3.10519632,1.24541058,2.36817939

>  <Name>
2oe5_lig

>  <RI>
0

>  <Rbt.Current_Directory>
/home/itssahil/PROJECTS/Mol_Feturizer/New_Systems/rnas/2oe5

>  <Rbt.Executable>
rbdock ($Id: //depot/dev/client3/rdock/2013.1/src/exe/rbdock.cxx#4 $)

>  <Rbt.Library>
libRbt.so (2013.1, Build901 2013/11/27)

>  <Rbt.Parameter_File>
/export/apps/rDock/src/rDock_2013.1_src/data/scripts/dock_solv.prm

>  <Rbt.Receptor>
prm/pocket_docking_8.prm

>  <SCORE>
-24.3261

>  <SCORE.INTER>
-19.4313

>  <SCORE.INTER.CONST>
1

>  <SCORE.INTER.POLAR>
-1.85432

>  <SCORE.INTER.ROT>
6

>  <SCORE.INTER.SOLV>
11.7404

>  <SCORE.INTER.VDW>
-18.2867

>  <SCORE.INTER.norm>
-0.525171

>  <SCORE.INTRA>
-4.89478

>  <SCORE.INTRA.DIHEDRAL>
-14.0645

>  <SCORE.INTRA.DIHEDRAL.0>
16.2083

>  <SCORE.INTRA.POLAR>
0

>  <SCORE.INTRA.POLAR.0>
0

>  <SCORE.INTRA.REPUL>
0

>  <SCORE.INTRA.REPUL.0>
0

>  <SCORE.INTRA.SOLV>
-0.584639

>  <SCORE.INTRA.SOLV.lig_0>
-89.8095

>  <SCORE.INTRA.VDW>
2.42982

>  <SCORE.INTRA.VDW.0>
-3.19502

>  <SCORE.INTRA.norm>
-0.132291

>  <SCORE.RESTR>
0

>  <SCORE.RESTR.CAVITY>
0

>  <SCORE.RESTR.norm>
0

>  <SCORE.SYSTEM>
0

>  <SCORE.SYSTEM.CONST>
0

>  <SCORE.SYSTEM.DIHEDRAL>
0

>  <SCORE.SYSTEM.SOLV>
0

>  <SCORE.SYSTEM.norm>
0

>  <SCORE.heavy>
37

>  <SCORE.norm>
-0.657463

>  <RMSD>
10.619

$$$$
2oe5_lig
 OpenBabel11021811463D
libRbt.so/2013.1/901 2013/11/27
 37 40  0  0  0  0  0  0  0  0999 V2000
   22.9221   -0.7069   54.6974 C   0  0  1  0  0  0  0  0  0  0  0  0
   23.4077   -1.0970   56.1114 C   0  0  1  0  0  0  0  0  0  0  0  0
   22.1627   -1.2723   57.0582 C   0  0  0  0  0  0  0  0  0  0  0  0
   21.4429    0.0949   57.0430 C   0  0  1  0  0  0  0  0  0  0  0  0
   20.9540    0.4829   55.5778 C   0  0  1  0  0  0  0  0  0  0  0  0
   20.2208    1.8516   55.5415 C   0  0  1  0  0  0  0  0  0  0  0  0
   18.9995    1.7344   56.4972 C   0  0  1  0  0  0  0  0  0  0  0  0
   19.5225    1.3063   57.9208 C   0  0  2  0  0  0  0  0  0  0  0  0
   17.8219    3.7454   55.3005 C   0  0  0  0  0  0  0  0  0  0  0  0
   24.1657   -2.3680   56.0533 N   0  0  0  0  0  0  0  0  0  0  0  0
   18.2540    3.0476   56.5616 N   0  0  0  0  0  0  0  0  0  0  0  0
   22.1153   -1.7367   54.1030 O   0  0  0  0  0  0  0  0  0  0  0  0
   22.1282    0.5310   54.7042 O   0  0  0  0  0  0  0  0  0  0  0  0
   20.2703    0.0342   57.8984 O   0  0  0  0  0  0  0  0  0  0  0  0
   21.1417    2.8566   55.9776 O   0  0  0  0  0  0  0  0  0  0  0  0
   18.4319    1.1279   58.8028 O   0  0  0  0  0  0  0  0  0  0  0  0
   18.8658    1.2404   60.1452 C   0  0  2  0  0  0  0  0  0  0  0  0
   17.7202    1.0691   61.1420 C   0  0  1  0  0  0  0  0  0  0  0  0
   16.6723    2.2061   60.9933 C   0  0  2  0  0  0  0  0  0  0  0  0
   17.4174    3.5594   61.1911 C   0  0  1  0  0  0  0  0  0  0  0  0
   18.5353    3.6641   60.1023 C   0  0  1  0  0  0  0  0  0  0  0  0
   19.3626    4.9236   60.2316 C   0  0  0  0  0  0  0  0  0  0  0  0
   16.4052    4.6729   61.0511 N   0  0  0  0  0  0  0  0  0  0  0  0
   19.4759    2.5580   60.3174 O   0  0  0  0  0  0  0  0  0  0  0  0
   17.1195   -0.2176   60.8947 O   0  0  0  0  0  0  0  0  0  0  0  0
   15.6867    2.0425   62.0291 O   0  0  0  0  0  0  0  0  0  0  0  0
   20.0649    4.9636   61.4265 O   0  0  0  0  0  0  0  0  0  0  0  0
   22.0692   -1.6931   52.6766 C   0  0  1  0  0  0  0  0  0  0  0  0
   23.4739   -2.0732   52.0855 C   0  0  1  0  0  0  0  0  0  0  0  0
   23.3945   -2.0312   50.5169 C   0  0  2  0  0  0  0  0  0  0  0  0
   22.3460   -3.0448   50.0341 C   0  0  1  0  0  0  0  0  0  0  0  0
   20.9334   -2.6535   50.6169 C   0  0  0  0  0  0  0  0  0  0  0  0
   21.0146   -2.6798   52.1940 C   0  0  2  0  0  0  0  0  0  0  0  0
   22.2958   -3.0096   48.5818 N   0  0  0  0  0  0  0  0  0  0  0  0
   19.7056   -2.2942   52.7837 N   0  0  0  0  0  0  0  0  0  0  0  0
   24.4716   -1.1149   52.5413 O   0  0  0  0  0  0  0  0  0  0  0  0
   24.6424   -2.3882   49.9844 O   0  0  0  0  0  0  0  0  0  0  0  0
  1  2  1  0  0  0  0
  1 12  1  1  0  0  0
  1 13  1  0  0  0  0
  2  3  1  0  0  0  0
  2 10  1  6  0  0  0
  4  3  1  6  0  0  0
  4  5  1  0  0  0  0
  4 14  1  0  0  0  0
  5  6  1  0  0  0  0
  5 13  1  6  0  0  0
  6  7  1  0  0  0  0
  6 15  1  1  0  0  0
  7  8  1  0  0  0  0
  7 11  1  1  0  0  0
  8 14  1  0  0  0  0
  8 16  1  1  0  0  0
  9 11  1  0  0  0  0
 17 16  1  6  0  0  0
 17 18  1  0  0  0  0
 17 24  1  0  0  0  0
 18 19  1  0  0  0  0
 18 25  1  6  0  0  0
 19 20  1  0  0  0  0
 19 26  1  1  0  0  0
 20 21  1  0  0  0  0
 20 23  1  6  0  0  0
 21 22  1  1  0  0  0
 21 24  1  0  0  0  0
 22 27  1  0  0  0  0
 28 12  1  1  0  0  0
 28 29  1  0  0  0  0
 28 33  1  0  0  0  0
 29 30  1  0  0  0  0
 29 36  1  1  0  0  0
 30 31  1  0  0  0  0
 30 37  1  6  0  0  0
 31 32  1  0  0  0  0
 31 34  1  6  0  0  0
 32 33  1  0  0  0  0
 33 35  1  1  0  0  0
M  END
>  <CHROM.1>
-157.01384451,51.56729932,-158.21449222,179.43173912,63.51939703,68.66408002
20.41752840,0.49583219,56.29288877,-1.07292805,-0.43956075,1.28349029

>  <Name>
2oe5_lig

>  <RI>
0

>  <Rbt.Current_Directory>
/home/itssahil/PROJECTS/Mol_Feturizer/New_Systems/rnas/2oe5

>  <Rbt.Executable>
rbdock ($Id: //depot/dev/client3/rdock/2013.1/src/exe/rbdock.cxx#4 $)

>  <Rbt.Library>
libRbt.so (2013.1, Build901 2013/11/27)

>  <Rbt.Parameter_File>
/export/apps/rDock/src/rDock_2013.1_src/data/scripts/dock_solv.prm

>  <Rbt.Receptor>
prm/pocket_docking_6.prm

>  <SCORE>
-15.1652

>  <SCORE.INTER>
-10.5581

>  <SCORE.INTER.CONST>
1

>  <SCORE.INTER.POLAR>
-1.81297

>  <SCORE.INTER.ROT>
6

>  <SCORE.INTER.SOLV>
13.9749

>  <SCORE.INTER.VDW>
-13.2538

>  <SCORE.INTER.norm>
-0.285355

>  <SCORE.INTRA>
-4.60708

>  <SCORE.INTRA.DIHEDRAL>
-11.2863

>  <SCORE.INTRA.DIHEDRAL.0>
16.2083

>  <SCORE.INTRA.POLAR>
0

>  <SCORE.INTRA.POLAR.0>
0

>  <SCORE.INTRA.REPUL>
0

>  <SCORE.INTRA.REPUL.0>
0

>  <SCORE.INTRA.SOLV>
-1.31496

>  <SCORE.INTRA.SOLV.lig_0>
-89.8095

>  <SCORE.INTRA.VDW>
1.69355

>  <SCORE.INTRA.VDW.0>
-3.19502

>  <SCORE.INTRA.norm>
-0.124516

>  <SCORE.RESTR>
0

>  <SCORE.RESTR.CAVITY>
0

>  <SCORE.RESTR.norm>
0

>  <SCORE.SYSTEM>
0

>  <SCORE.SYSTEM.CONST>
0

>  <SCORE.SYSTEM.DIHEDRAL>
0

>  <SCORE.SYSTEM.SOLV>
0

>  <SCORE.SYSTEM.norm>
0

>  <SCORE.heavy>
37

>  <SCORE.norm>
-0.40987

>  <RMSD>
10.676

$$$$
2oe5_lig
 OpenBabel11021811463D
libRbt.so/2013.1/901 2013/11/27
 37 40  0  0  0  0  0  0  0  0999 V2000
   17.4039   -3.2288   43.7740 C   0  0  1  0  0  0  0  0  0  0  0  0
   18.8137   -2.7653   43.3438 C   0  0  1  0  0  0  0  0  0  0  0  0
   19.8903   -3.4600   44.2577 C   0  0  0  0  0  0  0  0  0  0  0  0
   19.5451   -3.0231   45.6990 C   0  0  1  0  0  0  0  0  0  0  0  0
   18.0876   -3.5048   46.1236 C   0  0  1  0  0  0  0  0  0  0  0  0
   17.7232   -3.0818   47.5729 C   0  0  1  0  0  0  0  0  0  0  0  0
   18.7889   -3.7185   48.5099 C   0  0  1  0  0  0  0  0  0  0  0  0
   20.2151   -3.2528   48.0281 C   0  0  2  0  0  0  0  0  0  0  0  0
   19.1581   -4.0843   51.0775 C   0  0  0  0  0  0  0  0  0  0  0  0
   19.0571   -3.1318   41.9296 N   0  0  0  0  0  0  0  0  0  0  0  0
   18.5378   -3.3132   49.9442 N   0  0  0  0  0  0  0  0  0  0  0  0
   17.2241   -4.6428   43.5920 O   0  0  0  0  0  0  0  0  0  0  0  0
   17.1252   -2.9237   45.1854 O   0  0  0  0  0  0  0  0  0  0  0  0
   20.4939   -3.6168   46.6253 O   0  0  0  0  0  0  0  0  0  0  0  0
   17.7485   -1.6522   47.6345 O   0  0  0  0  0  0  0  0  0  0  0  0
   21.2156   -3.8633   48.8190 O   0  0  0  0  0  0  0  0  0  0  0  0
   22.4409   -3.1693   48.6780 C   0  0  2  0  0  0  0  0  0  0  0  0
   23.5435   -3.7525   49.5610 C   0  0  1  0  0  0  0  0  0  0  0  0
   23.1980   -3.5951   51.0673 C   0  0  2  0  0  0  0  0  0  0  0  0
   22.9752   -2.0782   51.3414 C   0  0  1  0  0  0  0  0  0  0  0  0
   21.8036   -1.5851   50.4300 C   0  0  1  0  0  0  0  0  0  0  0  0
   21.5320   -0.1044   50.5753 C   0  0  0  0  0  0  0  0  0  0  0  0
   22.6410   -1.9139   52.8061 N   0  0  0  0  0  0  0  0  0  0  0  0
   22.2143   -1.7691   49.0329 O   0  0  0  0  0  0  0  0  0  0  0  0
   23.6890   -5.1431   49.2108 O   0  0  0  0  0  0  0  0  0  0  0  0
   24.3222   -4.0635   51.8340 O   0  0  0  0  0  0  0  0  0  0  0  0
   20.3547    0.2722   49.9469 O   0  0  0  0  0  0  0  0  0  0  0  0
   16.0776   -5.1766   44.2548 C   0  0  1  0  0  0  0  0  0  0  0  0
   14.7794   -4.8206   43.4455 C   0  0  1  0  0  0  0  0  0  0  0  0
   13.5347   -5.4291   44.1864 C   0  0  2  0  0  0  0  0  0  0  0  0
   13.6859   -6.9558   44.2638 C   0  0  1  0  0  0  0  0  0  0  0  0
   14.9822   -7.3118   45.0890 C   0  0  0  0  0  0  0  0  0  0  0  0
   16.2336   -6.6880   44.3546 C   0  0  2  0  0  0  0  0  0  0  0  0
   12.5201   -7.5077   44.9341 N   0  0  0  0  0  0  0  0  0  0  0  0
   17.4768   -6.9829   45.1145 N   0  0  0  0  0  0  0  0  0  0  0  0
   14.6324   -3.3736   43.3691 O   0  0  0  0  0  0  0  0  0  0  0  0
   12.3745   -5.1292   43.4569 O   0  0  0  0  0  0  0  0  0  0  0  0
  1  2  1  0  0  0  0
  1 12  1  1  0  0  0
  1 13  1  0  0  0  0
  2  3  1  0  0  0  0
  2 10  1  6  0  0  0
  4  3  1  6  0  0  0
  4  5  1  0  0  0  0
  4 14  1  0  0  0  0
  5  6  1  0  0  0  0
  5 13  1  6  0  0  0
  6  7  1  0  0  0  0
  6 15  1  6  0  0  0
  7  8  1  0  0  0  0
  7 11  1  1  0  0  0
  8 14  1  0  0  0  0
  8 16  1  1  0  0  0
  9 11  1  0  0  0  0
 17 16  1  1  0  0  0
 17 18  1  0  0  0  0
 17 24  1  0  0  0  0
 18 19  1  0  0  0  0
 18 25  1  6  0  0  0
 19 20  1  0  0  0  0
 19 26  1  1  0  0  0
 20 21  1  0  0  0  0
 20 23  1  1  0  0  0
 21 22  1  6  0  0  0
 21 24  1  0  0  0  0
 22 27  1  0  0  0  0
 28 12  1  6  0  0  0
 28 29  1  0  0  0  0
 28 33  1  0  0  0  0
 29 30  1  0  0  0  0
 29 36  1  1  0  0  0
 30 31  1  0  0  0  0
 30 37  1  6  0  0  0
 31 32  1  0  0  0  0
 31 34  1  1  0  0  0
 32 33  1  0  0  0  0
 33 35  1  1  0  0  0
M  END
>  <CHROM.1>
165.97145944,162.33333997,-162.46078217,177.49612348,-169.52464039,76.97610150
18.83132286,-3.74753183,47.02450260,-2.61634472,0.58056794,1.93784349

>  <Name>
2oe5_lig

>  <RI>
0

>  <Rbt.Current_Directory>
/home/itssahil/PROJECTS/Mol_Feturizer/New_Systems/rnas/2oe5

>  <Rbt.Executable>
rbdock ($Id: //depot/dev/client3/rdock/2013.1/src/exe/rbdock.cxx#4 $)

>  <Rbt.Library>
libRbt.so (2013.1, Build901 2013/11/27)

>  <Rbt.Parameter_File>
/export/apps/rDock/src/rDock_2013.1_src/data/scripts/dock_solv.prm

>  <Rbt.Receptor>
prm/blind_docking_100.prm

>  <SCORE>
-23.07

>  <SCORE.INTER>
-16.9986

>  <SCORE.INTER.CONST>
1

>  <SCORE.INTER.POLAR>
-2.6757

>  <SCORE.INTER.ROT>
6

>  <SCORE.INTER.SOLV>
15.754

>  <SCORE.INTER.VDW>
-15.2647

>  <SCORE.INTER.norm>
-0.45942

>  <SCORE.INTRA>
-6.07145

>  <SCORE.INTRA.DIHEDRAL>
-11.8155

>  <SCORE.INTRA.DIHEDRAL.0>
16.2083

>  <SCORE.INTRA.POLAR>
0

>  <SCORE.INTRA.POLAR.0>
0

>  <SCORE.INTRA.REPUL>
0.00959008

>  <SCORE.INTRA.REPUL.0>
0

>  <SCORE.INTRA.SOLV>
-1.66853

>  <SCORE.INTRA.SOLV.lig_0>
-89.8095

>  <SCORE.INTRA.VDW>
0.622599

>  <SCORE.INTRA.VDW.0>
-3.19502

>  <SCORE.INTRA.norm>
-0.164093

>  <SCORE.RESTR>
0

>  <SCORE.RESTR.CAVITY>
0

>  <SCORE.RESTR.norm>
0

>  <SCORE.SYSTEM>
0

>  <SCORE.SYSTEM.CONST>
0

>  <SCORE.SYSTEM.DIHEDRAL>
0

>  <SCORE.SYSTEM.SOLV>
0

>  <SCORE.SYSTEM.norm>
0

>  <SCORE.heavy>
37

>  <SCORE.norm>
-0.623514

>  <RMSD>
10.699

$$$$
2oe5_lig
 OpenBabel11021811463D
libRbt.so/2013.1/901 2013/11/27
 37 40  0  0  0  0  0  0  0  0999 V2000
   17.8722   -5.0536   45.0930 C   0  0  1  0  0  0  0  0  0  0  0  0
   18.2912   -3.6540   44.5902 C   0  0  1  0  0  0  0  0  0  0  0  0
   19.5613   -3.1748   45.3866 C   0  0  0  0  0  0  0  0  0  0  0  0
   19.1306   -3.1590   46.8704 C   0  0  1  0  0  0  0  0  0  0  0  0
   18.6976   -4.6079   47.3699 C   0  0  1  0  0  0  0  0  0  0  0  0
   18.2675   -4.6155   48.8622 C   0  0  1  0  0  0  0  0  0  0  0  0
   19.4864   -4.1103   49.6854 C   0  0  1  0  0  0  0  0  0  0  0  0
   19.9090   -2.6973   49.1303 C   0  0  2  0  0  0  0  0  0  0  0  0
   20.1198   -3.4857   52.1494 C   0  0  0  0  0  0  0  0  0  0  0  0
   18.6078   -3.7095   43.1445 N   0  0  0  0  0  0  0  0  0  0  0  0
   19.1358   -4.0375   51.1538 N   0  0  0  0  0  0  0  0  0  0  0  0
   18.8882   -6.0395   44.8471 O   0  0  0  0  0  0  0  0  0  0  0  0
   17.5839   -5.0629   46.5350 O   0  0  0  0  0  0  0  0  0  0  0  0
   20.2453   -2.7227   47.6936 O   0  0  0  0  0  0  0  0  0  0  0  0
   17.1377   -3.7479   48.9998 O   0  0  0  0  0  0  0  0  0  0  0  0
   21.0561   -2.2327   49.8140 O   0  0  0  0  0  0  0  0  0  0  0  0
   21.2788   -0.8660   49.5218 C   0  0  2  0  0  0  0  0  0  0  0  0
   22.6319   -0.3753   50.0357 C   0  0  1  0  0  0  0  0  0  0  0  0
   22.7002   -0.4402   51.5863 C   0  0  2  0  0  0  0  0  0  0  0  0
   21.5225    0.4131   52.1437 C   0  0  1  0  0  0  0  0  0  0  0  0
   20.1846   -0.1904   51.6030 C   0  0  1  0  0  0  0  0  0  0  0  0
   18.9686    0.5949   52.0414 C   0  0  0  0  0  0  0  0  0  0  0  0
   21.5817    0.3589   53.6528 N   0  0  0  0  0  0  0  0  0  0  0  0
   20.2057   -0.0879   50.1390 O   0  0  0  0  0  0  0  0  0  0  0  0
   23.6484   -1.2074   49.4423 O   0  0  0  0  0  0  0  0  0  0  0  0
   23.9518    0.1357   52.0020 O   0  0  0  0  0  0  0  0  0  0  0  0
   18.8093    0.5803   53.4187 O   0  0  0  0  0  0  0  0  0  0  0  0
   18.5167   -7.3672   45.2184 C   0  0  1  0  0  0  0  0  0  0  0  0
   17.6675   -8.0240   44.0719 C   0  0  1  0  0  0  0  0  0  0  0  0
   17.2825   -9.4866   44.4974 C   0  0  2  0  0  0  0  0  0  0  0  0
   18.5635  -10.3054   44.7174 C   0  0  1  0  0  0  0  0  0  0  0  0
   19.4082   -9.6528   45.8787 C   0  0  0  0  0  0  0  0  0  0  0  0
   19.7834   -8.1769   45.4601 C   0  0  2  0  0  0  0  0  0  0  0  0
   18.1937  -11.6604   45.0920 N   0  0  0  0  0  0  0  0  0  0  0  0
   20.5635   -7.5175   46.5403 N   0  0  0  0  0  0  0  0  0  0  0  0
   16.4518   -7.2504   43.8594 O   0  0  0  0  0  0  0  0  0  0  0  0
   16.5393  -10.0836   43.4680 O   0  0  0  0  0  0  0  0  0  0  0  0
  1  2  1  0  0  0  0
  1 12  1  1  0  0  0
  1 13  1  0  0  0  0
  2  3  1  0  0  0  0
  2 10  1  6  0  0  0
  4  3  1  6  0  0  0
  4  5  1  0  0  0  0
  4 14  1  0  0  0  0
  5  6  1  0  0  0  0
  5 13  1  6  0  0  0
  6  7  1  0  0  0  0
  6 15  1  6  0  0  0
  7  8  1  0  0  0  0
  7 11  1  1  0  0  0
  8 14  1  0  0  0  0
  8 16  1  1  0  0  0
  9 11  1  0  0  0  0
 17 16  1  1  0  0  0
 17 18  1  0  0  0  0
 17 24  1  0  0  0  0
 18 19  1  0  0  0  0
 18 25  1  6  0  0  0
 19 20  1  0  0  0  0
 19 26  1  1  0  0  0
 20 21  1  0  0  0  0
 20 23  1  1  0  0  0
 21 22  1  1  0  0  0
 21 24  1  0  0  0  0
 22 27  1  0  0  0  0
 28 12  1  6  0  0  0
 28 29  1  0  0  0  0
 28 33  1  0  0  0  0
 29 30  1  0  0  0  0
 29 36  1  1  0  0  0
 30 31  1  0  0  0  0
 30 37  1  6  0  0  0
 31 32  1  0  0  0  0
 31 34  1  1  0  0  0
 32 33  1  0  0  0  0
 33 35  1  1  0  0  0
M  END
>  <CHROM.1>
-176.32079709,-175.75869092,-168.03853865,-170.10118169,-63.14492729,82.66090412
19.52593405,-4.09230323,48.01938261,2.71083906,1.24755003,2.73833775

>  <Name>
2oe5_lig

>  <RI>
0

>  <Rbt.Current_Directory>
/home/itssahil/PROJECTS/Mol_Feturizer/New_Systems/rnas/2oe5

>  <Rbt.Executable>
rbdock ($Id: //depot/dev/client3/rdock/2013.1/src/exe/rbdock.cxx#4 $)

>  <Rbt.Library>
libRbt.so (2013.1, Build901 2013/11/27)

>  <Rbt.Parameter_File>
/export/apps/rDock/src/rDock_2013.1_src/data/scripts/dock_solv.prm

>  <Rbt.Receptor>
prm/pocket_docking_6.prm

>  <SCORE>
-21.3662

>  <SCORE.INTER>
-15.8851

>  <SCORE.INTER.CONST>
1

>  <SCORE.INTER.POLAR>
-1.82374

>  <SCORE.INTER.ROT>
6

>  <SCORE.INTER.SOLV>
10.8735

>  <SCORE.INTER.VDW>
-15.7354

>  <SCORE.INTER.norm>
-0.429326

>  <SCORE.INTRA>
-5.48719

>  <SCORE.INTRA.DIHEDRAL>
-12.5928

>  <SCORE.INTRA.DIHEDRAL.0>
16.2083

>  <SCORE.INTRA.POLAR>
0

>  <SCORE.INTRA.POLAR.0>
0

>  <SCORE.INTRA.REPUL>
0

>  <SCORE.INTRA.REPUL.0>
0

>  <SCORE.INTRA.SOLV>
-0.799426

>  <SCORE.INTRA.SOLV.lig_0>
-89.8095

>  <SCORE.INTRA.VDW>
1.20891

>  <SCORE.INTRA.VDW.0>
-3.19502

>  <SCORE.INTRA.norm>
-0.148302

>  <SCORE.RESTR>
0.00610315

>  <SCORE.RESTR.CAVITY>
0.00610315

>  <SCORE.RESTR.norm>
0.00016495

>  <SCORE.SYSTEM>
0

>  <SCORE.SYSTEM.CONST>
0

>  <SCORE.SYSTEM.DIHEDRAL>
0

>  <SCORE.SYSTEM.SOLV>
0

>  <SCORE.SYSTEM.norm>
0

>  <SCORE.heavy>
37

>  <SCORE.norm>
-0.577464

>  <RMSD>
10.803

$$$$
2oe5_lig
 OpenBabel11021811463D
libRbt.so/2013.1/901 2013/11/27
 37 40  0  0  0  0  0  0  0  0999 V2000
   17.6365   -5.5095   46.0689 C   0  0  1  0  0  0  0  0  0  0  0  0
   16.6576   -5.6131   47.2598 C   0  0  1  0  0  0  0  0  0  0  0  0
   16.6446   -4.2474   48.0419 C   0  0  0  0  0  0  0  0  0  0  0  0
   18.1033   -4.0262   48.5008 C   0  0  1  0  0  0  0  0  0  0  0  0
   19.0984   -3.9268   47.2613 C   0  0  1  0  0  0  0  0  0  0  0  0
   20.5702   -3.6969   47.7008 C   0  0  1  0  0  0  0  0  0  0  0  0
   20.5965   -2.3709   48.5129 C   0  0  1  0  0  0  0  0  0  0  0  0
   19.5678   -2.4953   49.7001 C   0  0  2  0  0  0  0  0  0  0  0  0
   23.0946   -1.7137   48.0765 C   0  0  0  0  0  0  0  0  0  0  0  0
   15.2929   -5.9128   46.7685 N   0  0  0  0  0  0  0  0  0  0  0  0
   21.9914   -2.0955   49.0257 N   0  0  0  0  0  0  0  0  0  0  0  0
   17.2236   -4.5137   45.1187 O   0  0  0  0  0  0  0  0  0  0  0  0
   19.0020   -5.1735   46.4994 O   0  0  0  0  0  0  0  0  0  0  0  0
   18.1942   -2.7796   49.2414 O   0  0  0  0  0  0  0  0  0  0  0  0
   20.9721   -4.8156   48.4978 O   0  0  0  0  0  0  0  0  0  0  0  0
   19.5175   -1.2826   50.4253 O   0  0  0  0  0  0  0  0  0  0  0  0
   19.3753   -1.5461   51.8085 C   0  0  2  0  0  0  0  0  0  0  0  0
   19.4219   -0.2714   52.6502 C   0  0  1  0  0  0  0  0  0  0  0  0
   20.8087    0.4206   52.5440 C   0  0  2  0  0  0  0  0  0  0  0  0
   21.8840   -0.6126   52.9936 C   0  0  1  0  0  0  0  0  0  0  0  0
   21.7900   -1.8561   52.0496 C   0  0  1  0  0  0  0  0  0  0  0  0
   22.7599   -2.9532   52.4279 C   0  0  0  0  0  0  0  0  0  0  0  0
   23.2377    0.0523   52.8966 N   0  0  0  0  0  0  0  0  0  0  0  0
   20.4553   -2.4443   52.2141 O   0  0  0  0  0  0  0  0  0  0  0  0
   18.3764    0.5999   52.1754 O   0  0  0  0  0  0  0  0  0  0  0  0
   20.8157    1.5454   53.4417 O   0  0  0  0  0  0  0  0  0  0  0  0
   22.6025   -3.3544   53.7458 O   0  0  0  0  0  0  0  0  0  0  0  0
   16.1384   -4.9173   44.2831 C   0  0  1  0  0  0  0  0  0  0  0  0
   15.4223   -3.6515   43.6900 C   0  0  1  0  0  0  0  0  0  0  0  0
   14.2423   -4.1207   42.7650 C   0  0  2  0  0  0  0  0  0  0  0  0
   14.8044   -4.9739   41.6179 C   0  0  1  0  0  0  0  0  0  0  0  0
   15.5107   -6.2520   42.2145 C   0  0  0  0  0  0  0  0  0  0  0  0
   16.6878   -5.7828   43.1571 C   0  0  2  0  0  0  0  0  0  0  0  0
   13.7058   -5.3857   40.7596 N   0  0  0  0  0  0  0  0  0  0  0  0
   17.3670   -6.9605   43.7585 N   0  0  0  0  0  0  0  0  0  0  0  0
   14.8882   -2.8389   44.7744 O   0  0  0  0  0  0  0  0  0  0  0  0
   13.6113   -2.9932   42.2183 O   0  0  0  0  0  0  0  0  0  0  0  0
  1  2  1  0  0  0  0
  1 12  1  6  0  0  0
  1 13  1  0  0  0  0
  2  3  1  0  0  0  0
  2 10  1  6  0  0  0
  4  3  1  6  0  0  0
  4  5  1  0  0  0  0
  4 14  1  0  0  0  0
  5  6  1  0  0  0  0
  5 13  1  1  0  0  0
  6  7  1  0  0  0  0
  6 15  1  1  0  0  0
  7  8  1  0  0  0  0
  7 11  1  1  0  0  0
  8 14  1  0  0  0  0
  8 16  1  6  0  0  0
  9 11  1  0  0  0  0
 17 16  1  6  0  0  0
 17 18  1  0  0  0  0
 17 24  1  0  0  0  0
 18 19  1  0  0  0  0
 18 25  1  6  0  0  0
 19 20  1  0  0  0  0
 19 26  1  1  0  0  0
 20 21  1  0  0  0  0
 20 23  1  6  0  0  0
 21 22  1  1  0  0  0
 21 24  1  0  0  0  0
 22 27  1  0  0  0  0
 28 12  1  1  0  0  0
 28 29  1  0  0  0  0
 28 33  1  0  0  0  0
 29 30  1  0  0  0  0
 29 36  1  1  0  0  0
 30 31  1  0  0  0  0
 30 37  1  6  0  0  0
 31 32  1  0  0  0  0
 31 34  1  6  0  0  0
 32 33  1  0  0  0  0
 33 35  1  1  0  0  0
M  END
>  <CHROM.1>
-76.14760667,69.86859316,-142.38578913,175.66414582,55.68091316,158.81732152
18.61569266,-3.17088070,48.01614828,-2.21939847,-0.52699631,0.79624183

>  <Name>
2oe5_lig

>  <RI>
0

>  <Rbt.Current_Directory>
/home/itssahil/PROJECTS/Mol_Feturizer/New_Systems/rnas/2oe5

>  <Rbt.Executable>
rbdock ($Id: //depot/dev/client3/rdock/2013.1/src/exe/rbdock.cxx#4 $)

>  <Rbt.Library>
libRbt.so (2013.1, Build901 2013/11/27)

>  <Rbt.Parameter_File>
/export/apps/rDock/src/rDock_2013.1_src/data/scripts/dock_solv.prm

>  <Rbt.Receptor>
prm/blind_docking_60.prm

>  <SCORE>
-16.0568

>  <SCORE.INTER>
-14.42

>  <SCORE.INTER.CONST>
1

>  <SCORE.INTER.POLAR>
-1.57942

>  <SCORE.INTER.ROT>
6

>  <SCORE.INTER.SOLV>
9.22768

>  <SCORE.INTER.VDW>
-15.0245

>  <SCORE.INTER.norm>
-0.389729

>  <SCORE.INTRA>
-1.6368

>  <SCORE.INTRA.DIHEDRAL>
-7.719

>  <SCORE.INTRA.DIHEDRAL.0>
16.2083

>  <SCORE.INTRA.POLAR>
0

>  <SCORE.INTRA.POLAR.0>
0

>  <SCORE.INTRA.REPUL>
0

>  <SCORE.INTRA.REPUL.0>
0

>  <SCORE.INTRA.SOLV>
2.72782

>  <SCORE.INTRA.SOLV.lig_0>
-89.8095

>  <SCORE.INTRA.VDW>
0.85879

>  <SCORE.INTRA.VDW.0>
-3.19502

>  <SCORE.INTRA.norm>
-0.0442378

>  <SCORE.RESTR>
0

>  <SCORE.RESTR.CAVITY>
0

>  <SCORE.RESTR.norm>
0

>  <SCORE.SYSTEM>
0

>  <SCORE.SYSTEM.CONST>
0

>  <SCORE.SYSTEM.DIHEDRAL>
0

>  <SCORE.SYSTEM.SOLV>
0

>  <SCORE.SYSTEM.norm>
0

>  <SCORE.heavy>
37

>  <SCORE.norm>
-0.433966

>  <RMSD>
10.810

$$$$
2oe5_lig
 OpenBabel11021811463D
libRbt.so/2013.1/901 2013/11/27
 37 40  0  0  0  0  0  0  0  0999 V2000
   17.1894   -4.1811   45.1148 C   0  0  1  0  0  0  0  0  0  0  0  0
   16.7537   -4.7173   46.4968 C   0  0  1  0  0  0  0  0  0  0  0  0
   17.2611   -3.7362   47.6181 C   0  0  0  0  0  0  0  0  0  0  0  0
   18.7980   -3.6989   47.4626 C   0  0  1  0  0  0  0  0  0  0  0  0
   19.2285   -3.1487   46.0314 C   0  0  1  0  0  0  0  0  0  0  0  0
   20.7709   -3.0962   45.8569 C   0  0  1  0  0  0  0  0  0  0  0  0
   21.3195   -2.1631   46.9736 C   0  0  1  0  0  0  0  0  0  0  0  0
   20.8340   -2.7173   48.3665 C   0  0  2  0  0  0  0  0  0  0  0  0
   23.5962   -1.2119   47.8538 C   0  0  0  0  0  0  0  0  0  0  0  0
   15.2773   -4.8156   46.5590 N   0  0  0  0  0  0  0  0  0  0  0  0
   22.8281   -2.0954   46.9086 N   0  0  0  0  0  0  0  0  0  0  0  0
   16.5964   -2.9054   44.8218 O   0  0  0  0  0  0  0  0  0  0  0  0
   18.6483   -4.0267   45.0131 O   0  0  0  0  0  0  0  0  0  0  0  0
   19.3647   -2.8133   48.4651 O   0  0  0  0  0  0  0  0  0  0  0  0
   21.2747   -4.4297   45.9843 O   0  0  0  0  0  0  0  0  0  0  0  0
   21.2615   -1.8575   49.4044 O   0  0  0  0  0  0  0  0  0  0  0  0
   20.7867   -2.3253   50.6529 C   0  0  2  0  0  0  0  0  0  0  0  0
   20.5321   -1.1872   51.6407 C   0  0  1  0  0  0  0  0  0  0  0  0
   21.8512   -0.4484   51.9974 C   0  0  2  0  0  0  0  0  0  0  0  0
   22.8405   -1.5056   52.5712 C   0  0  1  0  0  0  0  0  0  0  0  0
   23.0738   -2.5991   51.4775 C   0  0  1  0  0  0  0  0  0  0  0  0
   23.9840   -3.7120   51.9468 C   0  0  0  0  0  0  0  0  0  0  0  0
   24.1272   -0.7958   52.9244 N   0  0  0  0  0  0  0  0  0  0  0  0
   21.7831   -3.2425   51.2042 O   0  0  0  0  0  0  0  0  0  0  0  0
   19.5885   -0.2855   51.0289 O   0  0  0  0  0  0  0  0  0  0  0  0
   21.5538    0.5321   53.0080 O   0  0  0  0  0  0  0  0  0  0  0  0
   24.2483   -4.6271   50.9391 O   0  0  0  0  0  0  0  0  0  0  0  0
   16.4345   -2.6421   43.4279 C   0  0  1  0  0  0  0  0  0  0  0  0
   17.7750   -2.9469   42.6681 C   0  0  1  0  0  0  0  0  0  0  0  0
   17.5682   -2.6629   41.1367 C   0  0  2  0  0  0  0  0  0  0  0  0
   16.4562   -3.5748   40.5966 C   0  0  1  0  0  0  0  0  0  0  0  0
   15.1075   -3.2575   41.3506 C   0  0  0  0  0  0  0  0  0  0  0  0
   15.3173   -3.5274   42.8926 C   0  0  2  0  0  0  0  0  0  0  0  0
   16.2878   -3.3157   39.1762 N   0  0  0  0  0  0  0  0  0  0  0  0
   14.0722   -3.2184   43.6437 N   0  0  0  0  0  0  0  0  0  0  0  0
   18.8326   -2.0847   43.1776 O   0  0  0  0  0  0  0  0  0  0  0  0
   18.7579   -2.9515   40.4516 O   0  0  0  0  0  0  0  0  0  0  0  0
  1  2  1  0  0  0  0
  1 12  1  1  0  0  0
  1 13  1  0  0  0  0
  2  3  1  0  0  0  0
  2 10  1  6  0  0  0
  4  3  1  6  0  0  0
  4  5  1  0  0  0  0
  4 14  1  0  0  0  0
  5  6  1  0  0  0  0
  5 13  1  6  0  0  0
  6  7  1  0  0  0  0
  6 15  1  1  0  0  0
  7  8  1  0  0  0  0
  7 11  1  1  0  0  0
  8 14  1  0  0  0  0
  8 16  1  1  0  0  0
  9 11  1  0  0  0  0
 17 16  1  6  0  0  0
 17 18  1  0  0  0  0
 17 24  1  0  0  0  0
 18 19  1  0  0  0  0
 18 25  1  6  0  0  0
 19 20  1  0  0  0  0
 19 26  1  1  0  0  0
 20 21  1  0  0  0  0
 20 23  1  6  0  0  0
 21 22  1  1  0  0  0
 21 24  1  0  0  0  0
 22 27  1  0  0  0  0
 28 12  1  1  0  0  0
 28 29  1  0  0  0  0
 28 33  1  0  0  0  0
 29 30  1  0  0  0  0
 29 36  1  1  0  0  0
 30 31  1  0  0  0  0
 30 37  1  6  0  0  0
 31 32  1  0  0  0  0
 31 34  1  6  0  0  0
 32 33  1  0  0  0  0
 33 35  1  1  0  0  0
M  END
>  <CHROM.1>
-152.74006077,177.59710294,177.89354921,-149.20129450,-176.16009974,-48.82213843
19.55643045,-2.74689911,46.97561437,2.13914474,-0.06316325,-1.69247132

>  <Name>
2oe5_lig

>  <RI>
0

>  <Rbt.Current_Directory>
/home/itssahil/PROJECTS/Mol_Feturizer/New_Systems/rnas/2oe5

>  <Rbt.Executable>
rbdock ($Id: //depot/dev/client3/rdock/2013.1/src/exe/rbdock.cxx#4 $)

>  <Rbt.Library>
libRbt.so (2013.1, Build901 2013/11/27)

>  <Rbt.Parameter_File>
/export/apps/rDock/src/rDock_2013.1_src/data/scripts/dock_solv.prm

>  <Rbt.Receptor>
prm/blind_docking_60.prm

>  <SCORE>
-24.9041

>  <SCORE.INTER>
-22.6169

>  <SCORE.INTER.CONST>
1

>  <SCORE.INTER.POLAR>
-2.7639

>  <SCORE.INTER.ROT>
6

>  <SCORE.INTER.SOLV>
15.6968

>  <SCORE.INTER.VDW>
-18.6972

>  <SCORE.INTER.norm>
-0.611267

>  <SCORE.INTRA>
-2.28718

>  <SCORE.INTRA.DIHEDRAL>
-8.64496

>  <SCORE.INTRA.DIHEDRAL.0>
16.2083

>  <SCORE.INTRA.POLAR>
0

>  <SCORE.INTRA.POLAR.0>
0

>  <SCORE.INTRA.REPUL>
0

>  <SCORE.INTRA.REPUL.0>
0

>  <SCORE.INTRA.SOLV>
-1.00644

>  <SCORE.INTRA.SOLV.lig_0>
-89.8095

>  <SCORE.INTRA.VDW>
2.53852

>  <SCORE.INTRA.VDW.0>
-3.19502

>  <SCORE.INTRA.norm>
-0.0618158

>  <SCORE.RESTR>
0

>  <SCORE.RESTR.CAVITY>
0

>  <SCORE.RESTR.norm>
0

>  <SCORE.SYSTEM>
0

>  <SCORE.SYSTEM.CONST>
0

>  <SCORE.SYSTEM.DIHEDRAL>
0

>  <SCORE.SYSTEM.SOLV>
0

>  <SCORE.SYSTEM.norm>
0

>  <SCORE.heavy>
37

>  <SCORE.norm>
-0.673083

>  <RMSD>
10.842

$$$$
2oe5_lig
 OpenBabel11021811463D
libRbt.so/2013.1/901 2013/11/27
 37 40  0  0  0  0  0  0  0  0999 V2000
   17.2117   -4.1774   45.0697 C   0  0  1  0  0  0  0  0  0  0  0  0
   16.7668   -4.7337   46.4408 C   0  0  1  0  0  0  0  0  0  0  0  0
   17.2600   -3.7651   47.5792 C   0  0  0  0  0  0  0  0  0  0  0  0
   18.7979   -3.7187   47.4374 C   0  0  1  0  0  0  0  0  0  0  0  0
   19.2380   -3.1478   46.0173 C   0  0  1  0  0  0  0  0  0  0  0  0
   20.7816   -3.0859   45.8568 C   0  0  1  0  0  0  0  0  0  0  0  0
   21.3163   -2.1651   46.9903 C   0  0  1  0  0  0  0  0  0  0  0  0
   20.8215   -2.7397   48.3716 C   0  0  2  0  0  0  0  0  0  0  0  0
   23.5833   -1.2460   47.9278 C   0  0  0  0  0  0  0  0  0  0  0  0
   15.2903   -4.8396   46.4890 N   0  0  0  0  0  0  0  0  0  0  0  0
   22.8250   -2.0896   46.9392 N   0  0  0  0  0  0  0  0  0  0  0  0
   16.6153   -2.9007   44.7884 O   0  0  0  0  0  0  0  0  0  0  0  0
   18.6707   -4.0150   44.9827 O   0  0  0  0  0  0  0  0  0  0  0  0
   19.3519   -2.8438   48.4563 O   0  0  0  0  0  0  0  0  0  0  0  0
   21.2905   -4.4186   45.9711 O   0  0  0  0  0  0  0  0  0  0  0  0
   21.2361   -1.8917   49.4243 O   0  0  0  0  0  0  0  0  0  0  0  0
   20.7382   -2.3683   50.6604 C   0  0  2  0  0  0  0  0  0  0  0  0
   20.4758   -1.2382   51.6552 C   0  0  1  0  0  0  0  0  0  0  0  0
   21.7942   -0.5123   52.0402 C   0  0  2  0  0  0  0  0  0  0  0  0
   22.7668   -1.5822   52.6190 C   0  0  1  0  0  0  0  0  0  0  0  0
   23.0098   -2.6666   51.5184 C   0  0  1  0  0  0  0  0  0  0  0  0
   23.9046   -3.7906   51.9910 C   0  0  0  0  0  0  0  0  0  0  0  0
   24.0526   -0.8852   52.9997 N   0  0  0  0  0  0  0  0  0  0  0  0
   21.7191   -3.2980   51.2183 O   0  0  0  0  0  0  0  0  0  0  0  0
   19.5485   -0.3238   51.0376 O   0  0  0  0  0  0  0  0  0  0  0  0
   21.4877    0.4603   53.0556 O   0  0  0  0  0  0  0  0  0  0  0  0
   24.2430   -4.6540   50.9602 O   0  0  0  0  0  0  0  0  0  0  0  0
   16.4469   -2.6278   43.3971 C   0  0  1  0  0  0  0  0  0  0  0  0
   17.7915   -2.9022   42.6330 C   0  0  1  0  0  0  0  0  0  0  0  0
   17.5777   -2.6081   41.1045 C   0  0  2  0  0  0  0  0  0  0  0  0
   16.4812   -3.5345   40.5575 C   0  0  1  0  0  0  0  0  0  0  0  0
   15.1281   -3.2478   41.3160 C   0  0  0  0  0  0  0  0  0  0  0  0
   15.3446   -3.5278   42.8551 C   0  0  2  0  0  0  0  0  0  0  0  0
   16.3064   -3.2658   39.1397 N   0  0  0  0  0  0  0  0  0  0  0  0
   14.0953   -3.2474   43.6105 N   0  0  0  0  0  0  0  0  0  0  0  0
   18.8345   -2.0262   43.1489 O   0  0  0  0  0  0  0  0  0  0  0  0
   18.7714   -2.8697   40.4153 O   0  0  0  0  0  0  0  0  0  0  0  0
  1  2  1  0  0  0  0
  1 12  1  1  0  0  0
  1 13  1  0  0  0  0
  2  3  1  0  0  0  0
  2 10  1  6  0  0  0
  4  3  1  6  0  0  0
  4  5  1  0  0  0  0
  4 14  1  0  0  0  0
  5  6  1  0  0  0  0
  5 13  1  6  0  0  0
  6  7  1  0  0  0  0
  6 15  1  1  0  0  0
  7  8  1  0  0  0  0
  7 11  1  1  0  0  0
  8 14  1  0  0  0  0
  8 16  1  1  0  0  0
  9 11  1  0  0  0  0
 17 16  1  6  0  0  0
 17 18  1  0  0  0  0
 17 24  1  0  0  0  0
 18 19  1  0  0  0  0
 18 25  1  6  0  0  0
 19 20  1  0  0  0  0
 19 26  1  1  0  0  0
 20 21  1  0  0  0  0
 20 23  1  6  0  0  0
 21 22  1  1  0  0  0
 21 24  1  0  0  0  0
 22 27  1  0  0  0  0
 28 12  1  1  0  0  0
 28 29  1  0  0  0  0
 28 33  1  0  0  0  0
 29 30  1  0  0  0  0
 29 36  1  1  0  0  0
 30 31  1  0  0  0  0
 30 37  1  6  0  0  0
 31 32  1  0  0  0  0
 31 34  1  6  0  0  0
 32 33  1  0  0  0  0
 33 35  1  1  0  0  0
M  END
>  <CHROM.1>
-151.90878685,179.36828483,177.13016917,-149.32439801,-172.59436790,-49.75164614
19.54532154,-2.76034848,46.97138412,2.13070987,-0.06646962,-1.68066686

>  <Name>
2oe5_lig

>  <RI>
0

>  <Rbt.Current_Directory>
/home/itssahil/PROJECTS/Mol_Feturizer/New_Systems/rnas/2oe5

>  <Rbt.Executable>
rbdock ($Id: //depot/dev/client3/rdock/2013.1/src/exe/rbdock.cxx#4 $)

>  <Rbt.Library>
libRbt.so (2013.1, Build901 2013/11/27)

>  <Rbt.Parameter_File>
/export/apps/rDock/src/rDock_2013.1_src/data/scripts/dock_solv.prm

>  <Rbt.Receptor>
prm/blind_docking_60.prm

>  <SCORE>
-24.9039

>  <SCORE.INTER>
-22.7412

>  <SCORE.INTER.CONST>
1

>  <SCORE.INTER.POLAR>
-2.71252

>  <SCORE.INTER.ROT>
6

>  <SCORE.INTER.SOLV>
15.5085

>  <SCORE.INTER.VDW>
-18.8885

>  <SCORE.INTER.norm>
-0.614626

>  <SCORE.INTRA>
-2.16272

>  <SCORE.INTRA.DIHEDRAL>
-8.45478

>  <SCORE.INTRA.DIHEDRAL.0>
16.2083

>  <SCORE.INTRA.POLAR>
0

>  <SCORE.INTRA.POLAR.0>
0

>  <SCORE.INTRA.REPUL>
0

>  <SCORE.INTRA.REPUL.0>
0

>  <SCORE.INTRA.SOLV>
-0.918733

>  <SCORE.INTRA.SOLV.lig_0>
-89.8095

>  <SCORE.INTRA.VDW>
2.52404

>  <SCORE.INTRA.VDW.0>
-3.19502

>  <SCORE.INTRA.norm>
-0.0584518

>  <SCORE.RESTR>
0

>  <SCORE.RESTR.CAVITY>
0

>  <SCORE.RESTR.norm>
0

>  <SCORE.SYSTEM>
0

>  <SCORE.SYSTEM.CONST>
0

>  <SCORE.SYSTEM.DIHEDRAL>
0

>  <SCORE.SYSTEM.SOLV>
0

>  <SCORE.SYSTEM.norm>
0

>  <SCORE.heavy>
37

>  <SCORE.norm>
-0.673078

>  <RMSD>
10.850

$$$$
2oe5_lig
 OpenBabel11021811463D
libRbt.so/2013.1/901 2013/11/27
 37 40  0  0  0  0  0  0  0  0999 V2000
   17.1725   -4.1759   44.7090 C   0  0  1  0  0  0  0  0  0  0  0  0
   16.6247   -4.9808   45.9087 C   0  0  1  0  0  0  0  0  0  0  0  0
   17.0224   -4.2540   47.2469 C   0  0  0  0  0  0  0  0  0  0  0  0
   18.5664   -4.1967   47.2367 C   0  0  1  0  0  0  0  0  0  0  0  0
   19.1133   -3.3680   45.9915 C   0  0  1  0  0  0  0  0  0  0  0  0
   20.6644   -3.2918   45.9663 C   0  0  1  0  0  0  0  0  0  0  0  0
   21.1040   -2.6114   47.2938 C   0  0  1  0  0  0  0  0  0  0  0  0
   20.5058   -3.4358   48.4961 C   0  0  2  0  0  0  0  0  0  0  0  0
   23.2858   -1.4926   48.2164 C   0  0  0  0  0  0  0  0  0  0  0  0
   15.1495   -5.0791   45.8208 N   0  0  0  0  0  0  0  0  0  0  0  0
   22.6117   -2.5426   47.3756 N   0  0  0  0  0  0  0  0  0  0  0  0
   16.5934   -2.8630   44.6331 O   0  0  0  0  0  0  0  0  0  0  0  0
   18.6330   -4.0144   44.7685 O   0  0  0  0  0  0  0  0  0  0  0  0
   19.0345   -3.5394   48.4448 O   0  0  0  0  0  0  0  0  0  0  0  0
   21.1696   -4.6267   45.8613 O   0  0  0  0  0  0  0  0  0  0  0  0
   20.8324   -2.8101   49.7213 O   0  0  0  0  0  0  0  0  0  0  0  0
   21.0301   -3.7835   50.7295 C   0  0  2  0  0  0  0  0  0  0  0  0
   20.6482   -3.2684   52.1167 C   0  0  1  0  0  0  0  0  0  0  0  0
   21.5652   -2.0920   52.5504 C   0  0  2  0  0  0  0  0  0  0  0  0
   23.0360   -2.6023   52.5044 C   0  0  1  0  0  0  0  0  0  0  0  0
   23.3469   -3.0624   51.0423 C   0  0  1  0  0  0  0  0  0  0  0  0
   24.7409   -3.6292   50.8906 C   0  0  0  0  0  0  0  0  0  0  0  0
   23.9369   -1.4651   52.9279 N   0  0  0  0  0  0  0  0  0  0  0  0
   22.4401   -4.1703   50.7184 O   0  0  0  0  0  0  0  0  0  0  0  0
   19.2700   -2.8501   52.0593 O   0  0  0  0  0  0  0  0  0  0  0  0
   21.2215   -1.7331   53.9010 O   0  0  0  0  0  0  0  0  0  0  0  0
   24.9734   -4.1008   49.6076 O   0  0  0  0  0  0  0  0  0  0  0  0
   16.3379   -2.4127   43.3025 C   0  0  1  0  0  0  0  0  0  0  0  0
   17.5715   -2.7331   42.3846 C   0  0  1  0  0  0  0  0  0  0  0  0
   17.2616   -2.2410   40.9251 C   0  0  2  0  0  0  0  0  0  0  0  0
   16.0236   -2.9784   40.3926 C   0  0  1  0  0  0  0  0  0  0  0  0
   14.7825   -2.6443   41.3070 C   0  0  0  0  0  0  0  0  0  0  0  0
   15.0977   -3.1239   42.7784 C   0  0  2  0  0  0  0  0  0  0  0  0
   15.7590   -2.5284   39.0359 N   0  0  0  0  0  0  0  0  0  0  0  0
   13.9582   -2.8064   43.6789 N   0  0  0  0  0  0  0  0  0  0  0  0
   18.7481   -2.0363   42.8863 O   0  0  0  0  0  0  0  0  0  0  0  0
   18.3538   -2.5420   40.0976 O   0  0  0  0  0  0  0  0  0  0  0  0
  1  2  1  0  0  0  0
  1 12  1  1  0  0  0
  1 13  1  0  0  0  0
  2  3  1  0  0  0  0
  2 10  1  6  0  0  0
  4  3  1  1  0  0  0
  4  5  1  0  0  0  0
  4 14  1  0  0  0  0
  5  6  1  0  0  0  0
  5 13  1  6  0  0  0
  6  7  1  0  0  0  0
  6 15  1  1  0  0  0
  7  8  1  0  0  0  0
  7 11  1  1  0  0  0
  8 14  1  0  0  0  0
  8 16  1  1  0  0  0
  9 11  1  0  0  0  0
 17 16  1  6  0  0  0
 17 18  1  0  0  0  0
 17 24  1  0  0  0  0
 18 19  1  0  0  0  0
 18 25  1  6  0  0  0
 19 20  1  0  0  0  0
 19 26  1  1  0  0  0
 20 21  1  0  0  0  0
 20 23  1  6  0  0  0
 21 22  1  1  0  0  0
 21 24  1  0  0  0  0
 22 27  1  0  0  0  0
 28 12  1  1  0  0  0
 28 29  1  0  0  0  0
 28 33  1  0  0  0  0
 29 30  1  0  0  0  0
 29 36  1  1  0  0  0
 30 31  1  0  0  0  0
 30 37  1  6  0  0  0
 31 32  1  0  0  0  0
 31 34  1  6  0  0  0
 32 33  1  0  0  0  0
 33 35  1  1  0  0  0
M  END
>  <CHROM.1>
-142.50443883,155.08229446,-146.12917989,-149.33851274,176.61659415,-44.58127268
19.45556893,-3.13529911,46.88663307,2.15936686,-0.11238272,-1.51017805

>  <Name>
2oe5_lig

>  <RI>
0

>  <Rbt.Current_Directory>
/home/itssahil/PROJECTS/Mol_Feturizer/New_Systems/rnas/2oe5

>  <Rbt.Executable>
rbdock ($Id: //depot/dev/client3/rdock/2013.1/src/exe/rbdock.cxx#4 $)

>  <Rbt.Library>
libRbt.so (2013.1, Build901 2013/11/27)

>  <Rbt.Parameter_File>
/export/apps/rDock/src/rDock_2013.1_src/data/scripts/dock_solv.prm

>  <Rbt.Receptor>
prm/blind_docking_60.prm

>  <SCORE>
-24.4754

>  <SCORE.INTER>
-24.6506

>  <SCORE.INTER.CONST>
1

>  <SCORE.INTER.POLAR>
-3.00055

>  <SCORE.INTER.ROT>
6

>  <SCORE.INTER.SOLV>
14.2455

>  <SCORE.INTER.VDW>
-18.7804

>  <SCORE.INTER.norm>
-0.666232

>  <SCORE.INTRA>
0.175158

>  <SCORE.INTRA.DIHEDRAL>
-1.58996

>  <SCORE.INTRA.DIHEDRAL.0>
16.2083

>  <SCORE.INTRA.POLAR>
0

>  <SCORE.INTRA.POLAR.0>
0

>  <SCORE.INTRA.REPUL>
0

>  <SCORE.INTRA.REPUL.0>
0

>  <SCORE.INTRA.SOLV>
0.521945

>  <SCORE.INTRA.SOLV.lig_0>
-89.8095

>  <SCORE.INTRA.VDW>
0.709166

>  <SCORE.INTRA.VDW.0>
-3.19502

>  <SCORE.INTRA.norm>
0.00473401

>  <SCORE.RESTR>
0

>  <SCORE.RESTR.CAVITY>
0

>  <SCORE.RESTR.norm>
0

>  <SCORE.SYSTEM>
0

>  <SCORE.SYSTEM.CONST>
0

>  <SCORE.SYSTEM.DIHEDRAL>
0

>  <SCORE.SYSTEM.SOLV>
0

>  <SCORE.SYSTEM.norm>
0

>  <SCORE.heavy>
37

>  <SCORE.norm>
-0.661498

>  <RMSD>
10.896

$$$$
2oe5_lig
 OpenBabel11021811463D
libRbt.so/2013.1/901 2013/11/27
 37 40  0  0  0  0  0  0  0  0999 V2000
   17.6418   -3.9199   44.7923 C   0  0  1  0  0  0  0  0  0  0  0  0
   18.5696   -2.7045   44.5700 C   0  0  1  0  0  0  0  0  0  0  0  0
   19.9717   -2.9950   45.2233 C   0  0  0  0  0  0  0  0  0  0  0  0
   19.6806   -3.2431   46.7204 C   0  0  1  0  0  0  0  0  0  0  0  0
   18.7196   -4.4956   46.9303 C   0  0  1  0  0  0  0  0  0  0  0  0
   18.4200   -4.7671   48.4299 C   0  0  1  0  0  0  0  0  0  0  0  0
   19.7881   -5.0229   49.1239 C   0  0  1  0  0  0  0  0  0  0  0  0
   20.7213   -3.7821   48.8541 C   0  0  2  0  0  0  0  0  0  0  0  0
   20.5782   -6.0672   51.3928 C   0  0  0  0  0  0  0  0  0  0  0  0
   18.7428   -2.4588   43.1198 N   0  0  0  0  0  0  0  0  0  0  0  0
   19.5925   -5.2470   50.6058 N   0  0  0  0  0  0  0  0  0  0  0  0
   18.1413   -5.1026   44.1469 O   0  0  0  0  0  0  0  0  0  0  0  0
   17.4672   -4.2323   46.2187 O   0  0  0  0  0  0  0  0  0  0  0  0
   20.9255   -3.5199   47.4163 O   0  0  0  0  0  0  0  0  0  0  0  0
   17.7614   -3.6140   48.9636 O   0  0  0  0  0  0  0  0  0  0  0  0
   21.9985   -4.0063   49.4178 O   0  0  0  0  0  0  0  0  0  0  0  0
   22.8695   -2.9388   49.0941 C   0  0  2  0  0  0  0  0  0  0  0  0
   24.2273   -3.0678   49.7834 C   0  0  1  0  0  0  0  0  0  0  0  0
   24.0836   -2.9757   51.3274 C   0  0  2  0  0  0  0  0  0  0  0  0
   23.3926   -1.6186   51.6539 C   0  0  1  0  0  0  0  0  0  0  0  0
   21.9980   -1.5990   50.9463 C   0  0  1  0  0  0  0  0  0  0  0  0
   21.2546   -0.2981   51.1529 C   0  0  0  0  0  0  0  0  0  0  0  0
   23.2507   -1.5177   53.1552 N   0  0  0  0  0  0  0  0  0  0  0  0
   22.2279   -1.6890   49.4994 O   0  0  0  0  0  0  0  0  0  0  0  0
   24.7913   -4.3364   49.3957 O   0  0  0  0  0  0  0  0  0  0  0  0
   25.4038   -2.9945   51.9000 O   0  0  0  0  0  0  0  0  0  0  0  0
   19.9982   -0.3187   50.5668 O   0  0  0  0  0  0  0  0  0  0  0  0
   17.2641   -6.2264   44.2256 C   0  0  1  0  0  0  0  0  0  0  0  0
   16.0457   -6.0212   43.2558 C   0  0  1  0  0  0  0  0  0  0  0  0
   15.1032   -7.2746   43.3500 C   0  0  2  0  0  0  0  0  0  0  0  0
   15.8836   -8.5297   42.9312 C   0  0  1  0  0  0  0  0  0  0  0  0
   17.0984   -8.7425   43.9146 C   0  0  0  0  0  0  0  0  0  0  0  0
   18.0396   -7.4768   43.8334 C   0  0  2  0  0  0  0  0  0  0  0  0
   14.9959   -9.6785   43.0046 N   0  0  0  0  0  0  0  0  0  0  0  0
   19.1884   -7.6284   44.7646 N   0  0  0  0  0  0  0  0  0  0  0  0
   15.3030   -4.8315   43.6489 O   0  0  0  0  0  0  0  0  0  0  0  0
   14.0229   -7.1037   42.4714 O   0  0  0  0  0  0  0  0  0  0  0  0
  1  2  1  0  0  0  0
  1 12  1  6  0  0  0
  1 13  1  0  0  0  0
  2  3  1  0  0  0  0
  2 10  1  6  0  0  0
  4  3  1  6  0  0  0
  4  5  1  0  0  0  0
  4 14  1  0  0  0  0
  5  6  1  0  0  0  0
  5 13  1  6  0  0  0
  6  7  1  0  0  0  0
  6 15  1  1  0  0  0
  7  8  1  0  0  0  0
  7 11  1  1  0  0  0
  8 14  1  0  0  0  0
  8 16  1  1  0  0  0
  9 11  1  0  0  0  0
 17 16  1  1  0  0  0
 17 18  1  0  0  0  0
 17 24  1  0  0  0  0
 18 19  1  0  0  0  0
 18 25  1  1  0  0  0
 19 20  1  0  0  0  0
 19 26  1  1  0  0  0
 20 21  1  0  0  0  0
 20 23  1  1  0  0  0
 21 22  1  6  0  0  0
 21 24  1  0  0  0  0
 22 27  1  0  0  0  0
 28 12  1  6  0  0  0
 28 29  1  0  0  0  0
 28 33  1  0  0  0  0
 29 30  1  0  0  0  0
 29 36  1  1  0  0  0
 30 31  1  0  0  0  0
 30 37  1  6  0  0  0
 31 32  1  0  0  0  0
 31 34  1  1  0  0  0
 32 33  1  0  0  0  0
 33 35  1  1  0  0  0
M  END
>  <CHROM.1>
-174.93910400,153.50649761,175.71534379,174.82917757,-177.47172632,73.82829904
19.61159220,-4.35616848,47.32074244,2.69767493,0.82325399,-3.09339425

>  <Name>
2oe5_lig

>  <RI>
0

>  <Rbt.Current_Directory>
/home/itssahil/PROJECTS/Mol_Feturizer/New_Systems/rnas/2oe5

>  <Rbt.Executable>
rbdock ($Id: //depot/dev/client3/rdock/2013.1/src/exe/rbdock.cxx#4 $)

>  <Rbt.Library>
libRbt.so (2013.1, Build901 2013/11/27)

>  <Rbt.Parameter_File>
/export/apps/rDock/src/rDock_2013.1_src/data/scripts/dock_solv.prm

>  <Rbt.Receptor>
prm/blind_docking_100.prm

>  <SCORE>
-22.6611

>  <SCORE.INTER>
-15.8462

>  <SCORE.INTER.CONST>
1

>  <SCORE.INTER.POLAR>
-2.00612

>  <SCORE.INTER.ROT>
6

>  <SCORE.INTER.SOLV>
12.8214

>  <SCORE.INTER.VDW>
-15.7509

>  <SCORE.INTER.norm>
-0.428276

>  <SCORE.INTRA>
-6.89657

>  <SCORE.INTRA.DIHEDRAL>
-14.353

>  <SCORE.INTRA.DIHEDRAL.0>
16.2083

>  <SCORE.INTRA.POLAR>
0

>  <SCORE.INTRA.POLAR.0>
0

>  <SCORE.INTRA.REPUL>
0.00164456

>  <SCORE.INTRA.REPUL.0>
0

>  <SCORE.INTRA.SOLV>
-2.75489

>  <SCORE.INTRA.SOLV.lig_0>
-89.8095

>  <SCORE.INTRA.VDW>
1.64918

>  <SCORE.INTRA.VDW.0>
-3.19502

>  <SCORE.INTRA.norm>
-0.186394

>  <SCORE.RESTR>
0.081674

>  <SCORE.RESTR.CAVITY>
0.081674

>  <SCORE.RESTR.norm>
0.00220741

>  <SCORE.SYSTEM>
0

>  <SCORE.SYSTEM.CONST>
0

>  <SCORE.SYSTEM.DIHEDRAL>
0

>  <SCORE.SYSTEM.SOLV>
0

>  <SCORE.SYSTEM.norm>
0

>  <SCORE.heavy>
37

>  <SCORE.norm>
-0.612462

>  <RMSD>
10.911

$$$$
2oe5_lig
 OpenBabel11021811463D
libRbt.so/2013.1/901 2013/11/27
 37 40  0  0  0  0  0  0  0  0999 V2000
   17.1534   -4.1768   44.6833 C   0  0  1  0  0  0  0  0  0  0  0  0
   16.6085   -4.9907   45.8783 C   0  0  1  0  0  0  0  0  0  0  0  0
   17.0113   -4.2751   47.2210 C   0  0  0  0  0  0  0  0  0  0  0  0
   18.5554   -4.2194   47.2062 C   0  0  1  0  0  0  0  0  0  0  0  0
   19.0992   -3.3812   45.9660 C   0  0  1  0  0  0  0  0  0  0  0  0
   20.6503   -3.3066   45.9364 C   0  0  1  0  0  0  0  0  0  0  0  0
   21.0949   -2.6373   47.2680 C   0  0  1  0  0  0  0  0  0  0  0  0
   20.4996   -3.4707   48.4655 C   0  0  2  0  0  0  0  0  0  0  0  0
   23.2812   -1.5112   48.1707 C   0  0  0  0  0  0  0  0  0  0  0  0
   15.1330   -5.0867   45.7942 N   0  0  0  0  0  0  0  0  0  0  0  0
   22.6030   -2.5708   47.3455 N   0  0  0  0  0  0  0  0  0  0  0  0
   16.5755   -2.8627   44.6198 O   0  0  0  0  0  0  0  0  0  0  0  0
   18.6143   -4.0173   44.7394 O   0  0  0  0  0  0  0  0  0  0  0  0
   19.0281   -3.5723   48.4181 O   0  0  0  0  0  0  0  0  0  0  0  0
   21.1537   -4.6411   45.8191 O   0  0  0  0  0  0  0  0  0  0  0  0
   20.8309   -2.8552   49.6946 O   0  0  0  0  0  0  0  0  0  0  0  0
   21.0588   -3.8379   50.6873 C   0  0  2  0  0  0  0  0  0  0  0  0
   20.7314   -3.3316   52.0915 C   0  0  1  0  0  0  0  0  0  0  0  0
   21.6715   -2.1646   52.5006 C   0  0  2  0  0  0  0  0  0  0  0  0
   23.1362   -2.6839   52.3967 C   0  0  1  0  0  0  0  0  0  0  0  0
   23.3903   -3.1342   50.9206 C   0  0  1  0  0  0  0  0  0  0  0  0
   24.7740   -3.7087   50.7136 C   0  0  0  0  0  0  0  0  0  0  0  0
   24.0594   -1.5559   52.7958 N   0  0  0  0  0  0  0  0  0  0  0  0
   22.4649   -4.2336   50.6216 O   0  0  0  0  0  0  0  0  0  0  0  0
   19.3548   -2.9041   52.0879 O   0  0  0  0  0  0  0  0  0  0  0  0
   21.3797   -1.8144   53.8656 O   0  0  0  0  0  0  0  0  0  0  0  0
   25.7607   -2.7412   50.8272 O   0  0  0  0  0  0  0  0  0  0  0  0
   16.3392   -2.3914   43.2929 C   0  0  1  0  0  0  0  0  0  0  0  0
   17.5743   -2.7228   42.3810 C   0  0  1  0  0  0  0  0  0  0  0  0
   17.2854   -2.2072   40.9253 C   0  0  2  0  0  0  0  0  0  0  0  0
   16.0387   -2.9152   40.3737 C   0  0  1  0  0  0  0  0  0  0  0  0
   14.7963   -2.5699   41.2823 C   0  0  0  0  0  0  0  0  0  0  0  0
   15.0906   -3.0734   42.7501 C   0  0  2  0  0  0  0  0  0  0  0  0
   15.7934   -2.4437   39.0207 N   0  0  0  0  0  0  0  0  0  0  0  0
   13.9498   -2.7463   43.6453 N   0  0  0  0  0  0  0  0  0  0  0  0
   18.7592   -2.0538   42.9007 O   0  0  0  0  0  0  0  0  0  0  0  0
   18.3787   -2.5177   40.1029 O   0  0  0  0  0  0  0  0  0  0  0  0
  1  2  1  0  0  0  0
  1 12  1  1  0  0  0
  1 13  1  0  0  0  0
  2  3  1  0  0  0  0
  2 10  1  6  0  0  0
  4  3  1  1  0  0  0
  4  5  1  0  0  0  0
  4 14  1  0  0  0  0
  5  6  1  0  0  0  0
  5 13  1  6  0  0  0
  6  7  1  0  0  0  0
  6 15  1  1  0  0  0
  7  8  1  0  0  0  0
  7 11  1  1  0  0  0
  8 14  1  0  0  0  0
  8 16  1  1  0  0  0
  9 11  1  0  0  0  0
 17 16  1  6  0  0  0
 17 18  1  0  0  0  0
 17 24  1  0  0  0  0
 18 19  1  0  0  0  0
 18 25  1  6  0  0  0
 19 20  1  0  0  0  0
 19 26  1  1  0  0  0
 20 21  1  0  0  0  0
 20 23  1  6  0  0  0
 21 22  1  1  0  0  0
 21 24  1  0  0  0  0
 22 27  1  0  0  0  0
 28 12  1  1  0  0  0
 28 29  1  0  0  0  0
 28 33  1  0  0  0  0
 29 30  1  0  0  0  0
 29 36  1  1  0  0  0
 30 31  1  0  0  0  0
 30 37  1  6  0  0  0
 31 32  1  0  0  0  0
 31 34  1  6  0  0  0
 32 33  1  0  0  0  0
 33 35  1  1  0  0  0
M  END
>  <CHROM.1>
-143.60474374,153.85325001,-144.87805561,-151.31417144,-68.89764072,-43.47353765
19.49876528,-3.11044451,46.88831223,2.17821646,-0.16424308,-1.47493344

>  <Name>
2oe5_lig

>  <RI>
0

>  <Rbt.Current_Directory>
/home/itssahil/PROJECTS/Mol_Feturizer/New_Systems/rnas/2oe5

>  <Rbt.Executable>
rbdock ($Id: //depot/dev/client3/rdock/2013.1/src/exe/rbdock.cxx#4 $)

>  <Rbt.Library>
libRbt.so (2013.1, Build901 2013/11/27)

>  <Rbt.Parameter_File>
/export/apps/rDock/src/rDock_2013.1_src/data/scripts/dock_solv.prm

>  <Rbt.Receptor>
prm/blind_docking_60.prm

>  <SCORE>
-24.3316

>  <SCORE.INTER>
-25.1891

>  <SCORE.INTER.CONST>
1

>  <SCORE.INTER.POLAR>
-3.05103

>  <SCORE.INTER.ROT>
6

>  <SCORE.INTER.SOLV>
14.1355

>  <SCORE.INTER.VDW>
-18.9345

>  <SCORE.INTER.norm>
-0.680787

>  <SCORE.INTRA>
0.857524

>  <SCORE.INTRA.DIHEDRAL>
-1.49001

>  <SCORE.INTRA.DIHEDRAL.0>
16.2083

>  <SCORE.INTRA.POLAR>
0

>  <SCORE.INTRA.POLAR.0>
0

>  <SCORE.INTRA.REPUL>
0

>  <SCORE.INTRA.REPUL.0>
0

>  <SCORE.INTRA.SOLV>
1.14176

>  <SCORE.INTRA.SOLV.lig_0>
-89.8095

>  <SCORE.INTRA.VDW>
1.03165

>  <SCORE.INTRA.VDW.0>
-3.19502

>  <SCORE.INTRA.norm>
0.0231763

>  <SCORE.RESTR>
0

>  <SCORE.RESTR.CAVITY>
0

>  <SCORE.RESTR.norm>
0

>  <SCORE.SYSTEM>
0

>  <SCORE.SYSTEM.CONST>
0

>  <SCORE.SYSTEM.DIHEDRAL>
0

>  <SCORE.SYSTEM.SOLV>
0

>  <SCORE.SYSTEM.norm>
0

>  <SCORE.heavy>
37

>  <SCORE.norm>
-0.657611

>  <RMSD>
10.925

$$$$
2oe5_lig
 OpenBabel11021811463D
libRbt.so/2013.1/901 2013/11/27
 37 40  0  0  0  0  0  0  0  0999 V2000
   17.3778   -5.3335   45.7256 C   0  0  1  0  0  0  0  0  0  0  0  0
   16.5234   -5.5588   46.9931 C   0  0  1  0  0  0  0  0  0  0  0  0
   16.5512   -4.2564   47.8765 C   0  0  0  0  0  0  0  0  0  0  0  0
   18.0416   -4.0210   48.2094 C   0  0  1  0  0  0  0  0  0  0  0  0
   18.9074   -3.7958   46.8918 C   0  0  1  0  0  0  0  0  0  0  0  0
   20.4086   -3.5499   47.2048 C   0  0  1  0  0  0  0  0  0  0  0  0
   20.4795   -2.2881   48.1112 C   0  0  1  0  0  0  0  0  0  0  0  0
   19.5758   -2.5355   49.3781 C   0  0  2  0  0  0  0  0  0  0  0  0
   22.9535   -1.7230   47.4611 C   0  0  0  0  0  0  0  0  0  0  0  0
   15.1256   -5.8668   46.6129 N   0  0  0  0  0  0  0  0  0  0  0  0
   21.9102   -2.0049   48.5079 N   0  0  0  0  0  0  0  0  0  0  0  0
   16.8476   -4.2840   44.8995 O   0  0  0  0  0  0  0  0  0  0  0  0
   18.7696   -4.9847   46.0482 O   0  0  0  0  0  0  0  0  0  0  0  0
   18.1718   -2.8309   49.0324 O   0  0  0  0  0  0  0  0  0  0  0  0
   20.9161   -4.7108   47.8705 O   0  0  0  0  0  0  0  0  0  0  0  0
   19.5649   -1.3827   50.1968 O   0  0  0  0  0  0  0  0  0  0  0  0
   19.1622   -1.7205   51.5108 C   0  0  2  0  0  0  0  0  0  0  0  0
   19.2033   -0.5211   52.4570 C   0  0  1  0  0  0  0  0  0  0  0  0
   20.6547    0.0030   52.6358 C   0  0  2  0  0  0  0  0  0  0  0  0
   21.5196   -1.1813   53.1605 C   0  0  1  0  0  0  0  0  0  0  0  0
   21.4530   -2.3370   52.1088 C   0  0  1  0  0  0  0  0  0  0  0  0
   22.2199   -3.5669   52.5408 C   0  0  0  0  0  0  0  0  0  0  0  0
   22.9342   -0.6806   53.3407 N   0  0  0  0  0  0  0  0  0  0  0  0
   20.0540   -2.7687   52.0048 O   0  0  0  0  0  0  0  0  0  0  0  0
   18.3542    0.5009   51.8983 O   0  0  0  0  0  0  0  0  0  0  0  0
   20.6312    1.0549   53.6177 O   0  0  0  0  0  0  0  0  0  0  0  0
   22.1555   -4.5785   51.5947 O   0  0  0  0  0  0  0  0  0  0  0  0
   17.3696   -4.2658   43.5706 C   0  0  1  0  0  0  0  0  0  0  0  0
   16.4407   -5.1039   42.6210 C   0  0  1  0  0  0  0  0  0  0  0  0
   17.0275   -5.0579   41.1643 C   0  0  2  0  0  0  0  0  0  0  0  0
   17.0714   -3.6007   40.6801 C   0  0  1  0  0  0  0  0  0  0  0  0
   18.0158   -2.7635   41.6263 C   0  0  0  0  0  0  0  0  0  0  0  0
   17.4366   -2.8210   43.0945 C   0  0  2  0  0  0  0  0  0  0  0  0
   17.5980   -3.5738   39.3255 N   0  0  0  0  0  0  0  0  0  0  0  0
   18.3125   -2.0602   44.0240 N   0  0  0  0  0  0  0  0  0  0  0  0
   16.3956   -6.4866   43.0768 O   0  0  0  0  0  0  0  0  0  0  0  0
   16.1906   -5.7902   40.3090 O   0  0  0  0  0  0  0  0  0  0  0  0
  1  2  1  0  0  0  0
  1 12  1  1  0  0  0
  1 13  1  0  0  0  0
  2  3  1  0  0  0  0
  2 10  1  6  0  0  0
  4  3  1  6  0  0  0
  4  5  1  0  0  0  0
  4 14  1  0  0  0  0
  5  6  1  0  0  0  0
  5 13  1  6  0  0  0
  6  7  1  0  0  0  0
  6 15  1  1  0  0  0
  7  8  1  0  0  0  0
  7 11  1  1  0  0  0
  8 14  1  0  0  0  0
  8 16  1  1  0  0  0
  9 11  1  0  0  0  0
 17 16  1  6  0  0  0
 17 18  1  0  0  0  0
 17 24  1  0  0  0  0
 18 19  1  0  0  0  0
 18 25  1  6  0  0  0
 19 20  1  0  0  0  0
 19 26  1  1  0  0  0
 20 21  1  0  0  0  0
 20 23  1  6  0  0  0
 21 22  1  1  0  0  0
 21 24  1  0  0  0  0
 22 27  1  0  0  0  0
 28 12  1  1  0  0  0
 28 29  1  0  0  0  0
 28 33  1  0  0  0  0
 29 30  1  0  0  0  0
 29 36  1  1  0  0  0
 30 31  1  0  0  0  0
 30 37  1  6  0  0  0
 31 32  1  0  0  0  0
 31 34  1  6  0  0  0
 32 33  1  0  0  0  0
 33 35  1  1  0  0  0
M  END
>  <CHROM.1>
-164.25058937,60.37061266,-160.06866135,177.01919201,-179.71552959,92.46520278
18.99429698,-3.15033326,47.53107488,2.04482061,-0.68064857,-1.57824726

>  <Name>
2oe5_lig

>  <RI>
0

>  <Rbt.Current_Directory>
/home/itssahil/PROJECTS/Mol_Feturizer/New_Systems/rnas/2oe5

>  <Rbt.Executable>
rbdock ($Id: //depot/dev/client3/rdock/2013.1/src/exe/rbdock.cxx#4 $)

>  <Rbt.Library>
libRbt.so (2013.1, Build901 2013/11/27)

>  <Rbt.Parameter_File>
/export/apps/rDock/src/rDock_2013.1_src/data/scripts/dock_solv.prm

>  <Rbt.Receptor>
prm/blind_docking_60.prm

>  <SCORE>
-27.5521

>  <SCORE.INTER>
-22.8335

>  <SCORE.INTER.CONST>
1

>  <SCORE.INTER.POLAR>
-3.14373

>  <SCORE.INTER.ROT>
6

>  <SCORE.INTER.SOLV>
17.8242

>  <SCORE.INTER.VDW>
-18.2847

>  <SCORE.INTER.norm>
-0.617123

>  <SCORE.INTRA>
-4.71858

>  <SCORE.INTRA.DIHEDRAL>
-9.08862

>  <SCORE.INTRA.DIHEDRAL.0>
16.2083

>  <SCORE.INTRA.POLAR>
0

>  <SCORE.INTRA.POLAR.0>
0

>  <SCORE.INTRA.REPUL>
0.0141099

>  <SCORE.INTRA.REPUL.0>
0

>  <SCORE.INTRA.SOLV>
-0.804524

>  <SCORE.INTRA.SOLV.lig_0>
-89.8095

>  <SCORE.INTRA.VDW>
0.157442

>  <SCORE.INTRA.VDW.0>
-3.19502

>  <SCORE.INTRA.norm>
-0.127529

>  <SCORE.RESTR>
0

>  <SCORE.RESTR.CAVITY>
0

>  <SCORE.RESTR.norm>
0

>  <SCORE.SYSTEM>
0

>  <SCORE.SYSTEM.CONST>
0

>  <SCORE.SYSTEM.DIHEDRAL>
0

>  <SCORE.SYSTEM.SOLV>
0

>  <SCORE.SYSTEM.norm>
0

>  <SCORE.heavy>
37

>  <SCORE.norm>
-0.744652

>  <RMSD>
10.937

$$$$
2oe5_lig
 OpenBabel11021811463D
libRbt.so/2013.1/901 2013/11/27
 37 40  0  0  0  0  0  0  0  0999 V2000
   17.2981   -5.3456   45.6866 C   0  0  1  0  0  0  0  0  0  0  0  0
   16.4198   -5.5630   46.9391 C   0  0  1  0  0  0  0  0  0  0  0  0
   16.4531   -4.2649   47.8285 C   0  0  0  0  0  0  0  0  0  0  0  0
   17.9412   -4.0537   48.1865 C   0  0  1  0  0  0  0  0  0  0  0  0
   18.8317   -3.8363   46.8842 C   0  0  1  0  0  0  0  0  0  0  0  0
   20.3312   -3.6147   47.2226 C   0  0  1  0  0  0  0  0  0  0  0  0
   20.4065   -2.3578   48.1354 C   0  0  1  0  0  0  0  0  0  0  0  0
   19.4786   -2.5966   49.3865 C   0  0  2  0  0  0  0  0  0  0  0  0
   22.8841   -1.7553   47.5343 C   0  0  0  0  0  0  0  0  0  0  0  0
   15.0238   -5.8480   46.5349 N   0  0  0  0  0  0  0  0  0  0  0  0
   21.8347   -2.0982   48.5566 N   0  0  0  0  0  0  0  0  0  0  0  0
   16.7975   -4.2848   44.8566 O   0  0  0  0  0  0  0  0  0  0  0  0
   18.6896   -5.0195   46.0332 O   0  0  0  0  0  0  0  0  0  0  0  0
   18.0761   -2.8691   49.0167 O   0  0  0  0  0  0  0  0  0  0  0  0
   20.8100   -4.7859   47.8913 O   0  0  0  0  0  0  0  0  0  0  0  0
   19.4719   -1.4471   50.2098 O   0  0  0  0  0  0  0  0  0  0  0  0
   19.1360   -1.8000   51.5386 C   0  0  2  0  0  0  0  0  0  0  0  0
   19.2211   -0.6105   52.4943 C   0  0  1  0  0  0  0  0  0  0  0  0
   20.6782   -0.0839   52.6063 C   0  0  2  0  0  0  0  0  0  0  0  0
   21.5711   -1.2710   53.0747 C   0  0  1  0  0  0  0  0  0  0  0  0
   21.4552   -2.4158   52.0153 C   0  0  1  0  0  0  0  0  0  0  0  0
   22.2457   -3.6478   52.3956 C   0  0  0  0  0  0  0  0  0  0  0  0
   22.9916   -0.7679   53.1897 N   0  0  0  0  0  0  0  0  0  0  0  0
   20.0538   -2.8506   51.9764 O   0  0  0  0  0  0  0  0  0  0  0  0
   18.3426    0.4147   51.9895 O   0  0  0  0  0  0  0  0  0  0  0  0
   20.7009    0.9575   53.5993 O   0  0  0  0  0  0  0  0  0  0  0  0
   22.1689   -4.6348   51.4246 O   0  0  0  0  0  0  0  0  0  0  0  0
   17.3598   -4.2541   43.5445 C   0  0  1  0  0  0  0  0  0  0  0  0
   16.4554   -5.0751   42.5571 C   0  0  1  0  0  0  0  0  0  0  0  0
   17.0865   -5.0155   41.1195 C   0  0  2  0  0  0  0  0  0  0  0  0
   17.1537   -3.5529   40.6545 C   0  0  1  0  0  0  0  0  0  0  0  0
   18.0738   -2.7329   41.6389 C   0  0  0  0  0  0  0  0  0  0  0  0
   17.4498   -2.8042   43.0881 C   0  0  2  0  0  0  0  0  0  0  0  0
   17.7215   -3.5132   39.3169 N   0  0  0  0  0  0  0  0  0  0  0  0
   18.3014   -2.0599   44.0528 N   0  0  0  0  0  0  0  0  0  0  0  0
   16.3883   -6.4627   42.9946 O   0  0  0  0  0  0  0  0  0  0  0  0
   16.2718   -5.7323   40.2304 O   0  0  0  0  0  0  0  0  0  0  0  0
  1  2  1  0  0  0  0
  1 12  1  1  0  0  0
  1 13  1  0  0  0  0
  2  3  1  0  0  0  0
  2 10  1  6  0  0  0
  4  3  1  6  0  0  0
  4  5  1  0  0  0  0
  4 14  1  0  0  0  0
  5  6  1  0  0  0  0
  5 13  1  6  0  0  0
  6  7  1  0  0  0  0
  6 15  1  1  0  0  0
  7  8  1  0  0  0  0
  7 11  1  1  0  0  0
  8 14  1  0  0  0  0
  8 16  1  1  0  0  0
  9 11  1  0  0  0  0
 17 16  1  6  0  0  0
 17 18  1  0  0  0  0
 17 24  1  0  0  0  0
 18 19  1  0  0  0  0
 18 25  1  6  0  0  0
 19 20  1  0  0  0  0
 19 26  1  1  0  0  0
 20 21  1  0  0  0  0
 20 23  1  6  0  0  0
 21 22  1  1  0  0  0
 21 24  1  0  0  0  0
 22 27  1  0  0  0  0
 28 12  1  1  0  0  0
 28 29  1  0  0  0  0
 28 33  1  0  0  0  0
 29 30  1  0  0  0  0
 29 36  1  1  0  0  0
 30 31  1  0  0  0  0
 30 37  1  6  0  0  0
 31 32  1  0  0  0  0
 31 34  1  6  0  0  0
 32 33  1  0  0  0  0
 33 35  1  1  0  0  0
M  END
>  <CHROM.1>
-165.35865249,63.66580765,-155.87330200,175.51873111,-177.94050586,92.58470430
18.97377467,-3.18330742,47.50458972,2.02460105,-0.62880908,-1.60292736

>  <Name>
2oe5_lig

>  <RI>
0

>  <Rbt.Current_Directory>
/home/itssahil/PROJECTS/Mol_Feturizer/New_Systems/rnas/2oe5

>  <Rbt.Executable>
rbdock ($Id: //depot/dev/client3/rdock/2013.1/src/exe/rbdock.cxx#4 $)

>  <Rbt.Library>
libRbt.so (2013.1, Build901 2013/11/27)

>  <Rbt.Parameter_File>
/export/apps/rDock/src/rDock_2013.1_src/data/scripts/dock_solv.prm

>  <Rbt.Receptor>
prm/blind_docking_60.prm

>  <SCORE>
-27.4152

>  <SCORE.INTER>
-22.996

>  <SCORE.INTER.CONST>
1

>  <SCORE.INTER.POLAR>
-3.20057

>  <SCORE.INTER.ROT>
6

>  <SCORE.INTER.SOLV>
18.073

>  <SCORE.INTER.VDW>
-18.2864

>  <SCORE.INTER.norm>
-0.621513

>  <SCORE.INTRA>
-4.41918

>  <SCORE.INTRA.DIHEDRAL>
-8.41856

>  <SCORE.INTRA.DIHEDRAL.0>
16.2083

>  <SCORE.INTRA.POLAR>
0

>  <SCORE.INTRA.POLAR.0>
0

>  <SCORE.INTRA.REPUL>
0.0179084

>  <SCORE.INTRA.REPUL.0>
0

>  <SCORE.INTRA.SOLV>
-0.560048

>  <SCORE.INTRA.SOLV.lig_0>
-89.8095

>  <SCORE.INTRA.VDW>
-0.0194235

>  <SCORE.INTRA.VDW.0>
-3.19502

>  <SCORE.INTRA.norm>
-0.119437

>  <SCORE.RESTR>
0

>  <SCORE.RESTR.CAVITY>
0

>  <SCORE.RESTR.norm>
0

>  <SCORE.SYSTEM>
0

>  <SCORE.SYSTEM.CONST>
0

>  <SCORE.SYSTEM.DIHEDRAL>
0

>  <SCORE.SYSTEM.SOLV>
0

>  <SCORE.SYSTEM.norm>
0

>  <SCORE.heavy>
37

>  <SCORE.norm>
-0.740951

>  <RMSD>
10.938

$$$$
2oe5_lig
 OpenBabel11021811463D
libRbt.so/2013.1/901 2013/11/27
 37 40  0  0  0  0  0  0  0  0999 V2000
   17.3258   -5.3483   45.7096 C   0  0  1  0  0  0  0  0  0  0  0  0
   16.4648   -5.5470   46.9772 C   0  0  1  0  0  0  0  0  0  0  0  0
   16.5163   -4.2385   47.8503 C   0  0  0  0  0  0  0  0  0  0  0  0
   18.0103   -4.0295   48.1844 C   0  0  1  0  0  0  0  0  0  0  0  0
   18.8828   -3.8315   46.8669 C   0  0  1  0  0  0  0  0  0  0  0  0
   20.3879   -3.6123   47.1810 C   0  0  1  0  0  0  0  0  0  0  0  0
   20.4816   -2.3450   48.0775 C   0  0  1  0  0  0  0  0  0  0  0  0
   19.5709   -2.5649   49.3446 C   0  0  2  0  0  0  0  0  0  0  0  0
   22.2539   -1.0076   49.4679 C   0  0  0  0  0  0  0  0  0  0  0  0
   15.0619   -5.8307   46.5966 N   0  0  0  0  0  0  0  0  0  0  0  0
   21.9168   -2.0866   48.4749 N   0  0  0  0  0  0  0  0  0  0  0  0
   16.8177   -4.2953   44.8743 O   0  0  0  0  0  0  0  0  0  0  0  0
   18.7235   -5.0241   46.0323 O   0  0  0  0  0  0  0  0  0  0  0  0
   18.1621   -2.8357   48.9983 O   0  0  0  0  0  0  0  0  0  0  0  0
   20.8714   -4.7776   47.8567 O   0  0  0  0  0  0  0  0  0  0  0  0
   19.5809   -1.4057   50.1541 O   0  0  0  0  0  0  0  0  0  0  0  0
   19.1509   -1.7216   51.4649 C   0  0  2  0  0  0  0  0  0  0  0  0
   19.1856   -0.5096   52.3952 C   0  0  1  0  0  0  0  0  0  0  0  0
   20.6382    0.0039   52.5938 C   0  0  2  0  0  0  0  0  0  0  0  0
   21.4823   -1.1807   53.1507 C   0  0  1  0  0  0  0  0  0  0  0  0
   21.4244   -2.3503   52.1139 C   0  0  1  0  0  0  0  0  0  0  0  0
   22.1718   -3.5809   52.5769 C   0  0  0  0  0  0  0  0  0  0  0  0
   22.8978   -0.6903   53.3503 N   0  0  0  0  0  0  0  0  0  0  0  0
   20.0236   -2.7707   51.9898 O   0  0  0  0  0  0  0  0  0  0  0  0
   18.3564    0.5122   51.8068 O   0  0  0  0  0  0  0  0  0  0  0  0
   20.6062    1.0695   53.5605 O   0  0  0  0  0  0  0  0  0  0  0  0
   23.5299   -3.3407   52.7207 O   0  0  0  0  0  0  0  0  0  0  0  0
   17.3826   -4.2648   43.5633 C   0  0  1  0  0  0  0  0  0  0  0  0
   16.4924   -5.1048   42.5790 C   0  0  1  0  0  0  0  0  0  0  0  0
   17.1261   -5.0453   41.1426 C   0  0  2  0  0  0  0  0  0  0  0  0
   17.1734   -3.5849   40.6684 C   0  0  1  0  0  0  0  0  0  0  0  0
   18.0793   -2.7456   41.6498 C   0  0  0  0  0  0  0  0  0  0  0  0
   17.4529   -2.8166   43.0979 C   0  0  2  0  0  0  0  0  0  0  0  0
   17.7438   -3.5455   39.3320 N   0  0  0  0  0  0  0  0  0  0  0  0
   18.2916   -2.0543   44.0599 N   0  0  0  0  0  0  0  0  0  0  0  0
   16.4441   -6.4905   43.0252 O   0  0  0  0  0  0  0  0  0  0  0  0
   16.3238   -5.7793   40.2561 O   0  0  0  0  0  0  0  0  0  0  0  0
  1  2  1  0  0  0  0
  1 12  1  6  0  0  0
  1 13  1  0  0  0  0
  2  3  1  0  0  0  0
  2 10  1  6  0  0  0
  4  3  1  6  0  0  0
  4  5  1  0  0  0  0
  4 14  1  0  0  0  0
  5  6  1  0  0  0  0
  5 13  1  6  0  0  0
  6  7  1  0  0  0  0
  6 15  1  1  0  0  0
  7  8  1  0  0  0  0
  7 11  1  1  0  0  0
  8 14  1  0  0  0  0
  8 16  1  1  0  0  0
  9 11  1  0  0  0  0
 17 16  1  6  0  0  0
 17 18  1  0  0  0  0
 17 24  1  0  0  0  0
 18 19  1  0  0  0  0
 18 25  1  6  0  0  0
 19 20  1  0  0  0  0
 19 26  1  1  0  0  0
 20 21  1  0  0  0  0
 20 23  1  6  0  0  0
 21 22  1  1  0  0  0
 21 24  1  0  0  0  0
 22 27  1  0  0  0  0
 28 12  1  1  0  0  0
 28 29  1  0  0  0  0
 28 33  1  0  0  0  0
 29 30  1  0  0  0  0
 29 36  1  1  0  0  0
 30 31  1  0  0  0  0
 30 37  1  6  0  0  0
 31 32  1  0  0  0  0
 31 34  1  6  0  0  0
 32 33  1  0  0  0  0
 33 35  1  1  0  0  0
M  END
>  <CHROM.1>
-166.65529467,-173.11570447,-160.90586245,178.17660269,-63.63182146,92.24702557
19.01640955,-3.09962107,47.60163401,2.05970658,-0.68788781,-1.56849326

>  <Name>
2oe5_lig

>  <RI>
0

>  <Rbt.Current_Directory>
/home/itssahil/PROJECTS/Mol_Feturizer/New_Systems/rnas/2oe5

>  <Rbt.Executable>
rbdock ($Id: //depot/dev/client3/rdock/2013.1/src/exe/rbdock.cxx#4 $)

>  <Rbt.Library>
libRbt.so (2013.1, Build901 2013/11/27)

>  <Rbt.Parameter_File>
/export/apps/rDock/src/rDock_2013.1_src/data/scripts/dock_solv.prm

>  <Rbt.Receptor>
prm/blind_docking_60.prm

>  <SCORE>
-25.2753

>  <SCORE.INTER>
-22.2856

>  <SCORE.INTER.CONST>
1

>  <SCORE.INTER.POLAR>
-3.07461

>  <SCORE.INTER.ROT>
6

>  <SCORE.INTER.SOLV>
17.7698

>  <SCORE.INTER.VDW>
-18.1316

>  <SCORE.INTER.norm>
-0.602312

>  <SCORE.INTRA>
-2.98974

>  <SCORE.INTRA.DIHEDRAL>
-9.51011

>  <SCORE.INTRA.DIHEDRAL.0>
16.2083

>  <SCORE.INTRA.POLAR>
0

>  <SCORE.INTRA.POLAR.0>
0

>  <SCORE.INTRA.REPUL>
0

>  <SCORE.INTRA.REPUL.0>
0

>  <SCORE.INTRA.SOLV>
0.611812

>  <SCORE.INTRA.SOLV.lig_0>
-89.8095

>  <SCORE.INTRA.VDW>
1.45941

>  <SCORE.INTRA.VDW.0>
-3.19502

>  <SCORE.INTRA.norm>
-0.0808037

>  <SCORE.RESTR>
0

>  <SCORE.RESTR.CAVITY>
0

>  <SCORE.RESTR.norm>
0

>  <SCORE.SYSTEM>
0

>  <SCORE.SYSTEM.CONST>
0

>  <SCORE.SYSTEM.DIHEDRAL>
0

>  <SCORE.SYSTEM.SOLV>
0

>  <SCORE.SYSTEM.norm>
0

>  <SCORE.heavy>
37

>  <SCORE.norm>
-0.683116

>  <RMSD>
10.960

$$$$
2oe5_lig
 OpenBabel11021811463D
libRbt.so/2013.1/901 2013/11/27
 37 40  0  0  0  0  0  0  0  0999 V2000
   17.2828   -5.3116   45.6875 C   0  0  1  0  0  0  0  0  0  0  0  0
   16.4250   -5.5205   46.9555 C   0  0  1  0  0  0  0  0  0  0  0  0
   16.4793   -4.2194   47.8395 C   0  0  0  0  0  0  0  0  0  0  0  0
   17.9743   -4.0138   48.1715 C   0  0  1  0  0  0  0  0  0  0  0  0
   18.8434   -3.8051   46.8534 C   0  0  1  0  0  0  0  0  0  0  0  0
   20.3495   -3.5892   47.1654 C   0  0  1  0  0  0  0  0  0  0  0  0
   20.4460   -2.3295   48.0724 C   0  0  1  0  0  0  0  0  0  0  0  0
   19.5384   -2.5596   49.3398 C   0  0  2  0  0  0  0  0  0  0  0  0
   22.9138   -1.7314   47.4281 C   0  0  0  0  0  0  0  0  0  0  0  0
   15.0211   -5.8006   46.5762 N   0  0  0  0  0  0  0  0  0  0  0  0
   21.8823   -2.0750   48.4682 N   0  0  0  0  0  0  0  0  0  0  0  0
   16.7730   -4.2514   44.8623 O   0  0  0  0  0  0  0  0  0  0  0  0
   18.6815   -4.9907   46.0093 O   0  0  0  0  0  0  0  0  0  0  0  0
   18.1286   -2.8270   48.9950 O   0  0  0  0  0  0  0  0  0  0  0  0
   20.8342   -4.7603   47.8302 O   0  0  0  0  0  0  0  0  0  0  0  0
   19.5510   -1.4072   50.1590 O   0  0  0  0  0  0  0  0  0  0  0  0
   19.1686   -1.7426   51.4797 C   0  0  2  0  0  0  0  0  0  0  0  0
   19.2105   -0.5384   52.4198 C   0  0  1  0  0  0  0  0  0  0  0  0
   20.6590    0.0002   52.5773 C   0  0  2  0  0  0  0  0  0  0  0  0
   21.5418   -1.1734   53.0962 C   0  0  1  0  0  0  0  0  0  0  0  0
   21.4726   -2.3347   52.0508 C   0  0  1  0  0  0  0  0  0  0  0  0
   22.2566   -3.5553   52.4786 C   0  0  0  0  0  0  0  0  0  0  0  0
   22.9538   -0.6586   53.2558 N   0  0  0  0  0  0  0  0  0  0  0  0
   20.0764   -2.7799   51.9670 O   0  0  0  0  0  0  0  0  0  0  0  0
   18.3446    0.4729   51.8674 O   0  0  0  0  0  0  0  0  0  0  0  0
   20.6383    1.0564   53.5545 O   0  0  0  0  0  0  0  0  0  0  0  0
   22.3924   -4.4732   51.4482 O   0  0  0  0  0  0  0  0  0  0  0  0
   17.2803   -4.2538   43.5276 C   0  0  1  0  0  0  0  0  0  0  0  0
   16.3050   -5.0486   42.5875 C   0  0  1  0  0  0  0  0  0  0  0  0
   16.8769   -5.0259   41.1243 C   0  0  2  0  0  0  0  0  0  0  0  0
   16.9793   -3.5712   40.6415 C   0  0  1  0  0  0  0  0  0  0  0  0
   17.9702   -2.7780   41.5781 C   0  0  0  0  0  0  0  0  0  0  0  0
   17.4055   -2.8125   43.0526 C   0  0  2  0  0  0  0  0  0  0  0  0
   17.4914   -3.5651   39.2811 N   0  0  0  0  0  0  0  0  0  0  0  0
   18.3244   -2.0926   43.9731 N   0  0  0  0  0  0  0  0  0  0  0  0
   16.2042   -6.4288   43.0420 O   0  0  0  0  0  0  0  0  0  0  0  0
   15.9990   -5.7192   40.2775 O   0  0  0  0  0  0  0  0  0  0  0  0
  1  2  1  0  0  0  0
  1 12  1  1  0  0  0
  1 13  1  0  0  0  0
  2  3  1  0  0  0  0
  2 10  1  6  0  0  0
  4  3  1  6  0  0  0
  4  5  1  0  0  0  0
  4 14  1  0  0  0  0
  5  6  1  0  0  0  0
  5 13  1  6  0  0  0
  6  7  1  0  0  0  0
  6 15  1  1  0  0  0
  7  8  1  0  0  0  0
  7 11  1  1  0  0  0
  8 14  1  0  0  0  0
  8 16  1  1  0  0  0
  9 11  1  0  0  0  0
 17 16  1  6  0  0  0
 17 18  1  0  0  0  0
 17 24  1  0  0  0  0
 18 19  1  0  0  0  0
 18 25  1  6  0  0  0
 19 20  1  0  0  0  0
 19 26  1  1  0  0  0
 20 21  1  0  0  0  0
 20 23  1  6  0  0  0
 21 22  1  1  0  0  0
 21 24  1  0  0  0  0
 22 27  1  0  0  0  0
 28 12  1  1  0  0  0
 28 29  1  0  0  0  0
 28 33  1  0  0  0  0
 29 30  1  0  0  0  0
 29 36  1  1  0  0  0
 30 31  1  0  0  0  0
 30 37  1  6  0  0  0
 31 32  1  0  0  0  0
 31 34  1  6  0  0  0
 32 33  1  0  0  0  0
 33 35  1  1  0  0  0
M  END
>  <CHROM.1>
-163.43548045,64.08150937,-158.89660476,178.09117788,-168.87526300,93.44516286
18.95021333,-3.14369910,47.48523623,2.02899772,-0.59060553,-1.62025277

>  <Name>
2oe5_lig

>  <RI>
0

>  <Rbt.Current_Directory>
/home/itssahil/PROJECTS/Mol_Feturizer/New_Systems/rnas/2oe5

>  <Rbt.Executable>
rbdock ($Id: //depot/dev/client3/rdock/2013.1/src/exe/rbdock.cxx#4 $)

>  <Rbt.Library>
libRbt.so (2013.1, Build901 2013/11/27)

>  <Rbt.Parameter_File>
/export/apps/rDock/src/rDock_2013.1_src/data/scripts/dock_solv.prm

>  <Rbt.Receptor>
prm/blind_docking_60.prm

>  <SCORE>
-27.1814

>  <SCORE.INTER>
-22.6979

>  <SCORE.INTER.CONST>
1

>  <SCORE.INTER.POLAR>
-3.18734

>  <SCORE.INTER.ROT>
6

>  <SCORE.INTER.SOLV>
17.2618

>  <SCORE.INTER.VDW>
-17.8613

>  <SCORE.INTER.norm>
-0.613456

>  <SCORE.INTRA>
-4.48351

>  <SCORE.INTRA.DIHEDRAL>
-8.18902

>  <SCORE.INTRA.DIHEDRAL.0>
16.2083

>  <SCORE.INTRA.POLAR>
0

>  <SCORE.INTRA.POLAR.0>
0

>  <SCORE.INTRA.REPUL>
0

>  <SCORE.INTRA.REPUL.0>
0

>  <SCORE.INTRA.SOLV>
-0.637874

>  <SCORE.INTRA.SOLV.lig_0>
-89.8095

>  <SCORE.INTRA.VDW>
-0.0700679

>  <SCORE.INTRA.VDW.0>
-3.19502

>  <SCORE.INTRA.norm>
-0.121176

>  <SCORE.RESTR>
0

>  <SCORE.RESTR.CAVITY>
0

>  <SCORE.RESTR.norm>
0

>  <SCORE.SYSTEM>
0

>  <SCORE.SYSTEM.CONST>
0

>  <SCORE.SYSTEM.DIHEDRAL>
0

>  <SCORE.SYSTEM.SOLV>
0

>  <SCORE.SYSTEM.norm>
0

>  <SCORE.heavy>
37

>  <SCORE.norm>
-0.734632

>  <RMSD>
10.960

$$$$
2oe5_lig
 OpenBabel11021811463D
libRbt.so/2013.1/901 2013/11/27
 37 40  0  0  0  0  0  0  0  0999 V2000
   17.3170   -5.3294   45.7105 C   0  0  1  0  0  0  0  0  0  0  0  0
   16.4433   -5.5488   46.9658 C   0  0  1  0  0  0  0  0  0  0  0  0
   16.4769   -4.2508   47.8554 C   0  0  0  0  0  0  0  0  0  0  0  0
   17.9658   -4.0368   48.2086 C   0  0  1  0  0  0  0  0  0  0  0  0
   18.8516   -3.8173   46.9035 C   0  0  1  0  0  0  0  0  0  0  0  0
   20.3517   -3.5929   47.2371 C   0  0  1  0  0  0  0  0  0  0  0  0
   20.4275   -2.3361   48.1500 C   0  0  1  0  0  0  0  0  0  0  0  0
   19.5041   -2.5770   49.4040 C   0  0  2  0  0  0  0  0  0  0  0  0
   22.9061   -1.7482   47.5389 C   0  0  0  0  0  0  0  0  0  0  0  0
   15.0465   -5.8365   46.5660 N   0  0  0  0  0  0  0  0  0  0  0  0
   21.8565   -2.0738   48.5666 N   0  0  0  0  0  0  0  0  0  0  0  0
   16.8117   -4.2693   44.8824 O   0  0  0  0  0  0  0  0  0  0  0  0
   18.7090   -5.0006   46.0527 O   0  0  0  0  0  0  0  0  0  0  0  0
   18.1010   -2.8522   49.0387 O   0  0  0  0  0  0  0  0  0  0  0  0
   20.8350   -4.7633   47.9039 O   0  0  0  0  0  0  0  0  0  0  0  0
   19.4979   -1.4278   50.2277 O   0  0  0  0  0  0  0  0  0  0  0  0
   19.1509   -1.7793   51.5540 C   0  0  2  0  0  0  0  0  0  0  0  0
   19.2436   -0.5924   52.5123 C   0  0  1  0  0  0  0  0  0  0  0  0
   20.7057   -0.0818   52.6331 C   0  0  2  0  0  0  0  0  0  0  0  0
   21.5833   -1.2792   53.1041 C   0  0  1  0  0  0  0  0  0  0  0  0
   21.4608   -2.4209   52.0422 C   0  0  1  0  0  0  0  0  0  0  0  0
   22.2359   -3.6620   52.4245 C   0  0  0  0  0  0  0  0  0  0  0  0
   23.0084   -0.7917   53.2277 N   0  0  0  0  0  0  0  0  0  0  0  0
   20.0550   -2.8404   51.9949 O   0  0  0  0  0  0  0  0  0  0  0  0
   18.3791    0.4431   52.0045 O   0  0  0  0  0  0  0  0  0  0  0  0
   20.7343    0.9576   53.6280 O   0  0  0  0  0  0  0  0  0  0  0  0
   23.5994   -3.4209   52.4987 O   0  0  0  0  0  0  0  0  0  0  0  0
   17.3419   -4.2595   43.5567 C   0  0  1  0  0  0  0  0  0  0  0  0
   16.4160   -5.0992   42.6055 C   0  0  1  0  0  0  0  0  0  0  0  0
   17.0120   -5.0625   41.1523 C   0  0  2  0  0  0  0  0  0  0  0  0
   17.0639   -3.6080   40.6611 C   0  0  1  0  0  0  0  0  0  0  0  0
   18.0054   -2.7693   41.6090 C   0  0  0  0  0  0  0  0  0  0  0  0
   17.4169   -2.8174   43.0738 C   0  0  2  0  0  0  0  0  0  0  0  0
   17.5990   -3.5896   39.3097 N   0  0  0  0  0  0  0  0  0  0  0  0
   18.2897   -2.0550   44.0049 N   0  0  0  0  0  0  0  0  0  0  0  0
   16.3633   -6.4794   43.0679 O   0  0  0  0  0  0  0  0  0  0  0  0
   16.1779   -5.7962   40.2954 O   0  0  0  0  0  0  0  0  0  0  0  0
  1  2  1  0  0  0  0
  1 12  1  1  0  0  0
  1 13  1  0  0  0  0
  2  3  1  0  0  0  0
  2 10  1  6  0  0  0
  4  3  1  6  0  0  0
  4  5  1  0  0  0  0
  4 14  1  0  0  0  0
  5  6  1  0  0  0  0
  5 13  1  6  0  0  0
  6  7  1  0  0  0  0
  6 15  1  1  0  0  0
  7  8  1  0  0  0  0
  7 11  1  1  0  0  0
  8 14  1  0  0  0  0
  8 16  1  1  0  0  0
  9 11  1  0  0  0  0
 17 16  1  6  0  0  0
 17 18  1  0  0  0  0
 17 24  1  0  0  0  0
 18 19  1  0  0  0  0
 18 25  1  6  0  0  0
 19 20  1  0  0  0  0
 19 26  1  1  0  0  0
 20 21  1  0  0  0  0
 20 23  1  6  0  0  0
 21 22  1  1  0  0  0
 21 24  1  0  0  0  0
 22 27  1  0  0  0  0
 28 12  1  1  0  0  0
 28 29  1  0  0  0  0
 28 33  1  0  0  0  0
 29 30  1  0  0  0  0
 29 36  1  1  0  0  0
 30 31  1  0  0  0  0
 30 37  1  6  0  0  0
 31 32  1  0  0  0  0
 31 34  1  6  0  0  0
 32 33  1  0  0  0  0
 33 35  1  1  0  0  0
M  END
>  <CHROM.1>
-163.70678258,62.77094742,-156.58692313,175.18284343,-63.20019053,91.52144420
19.01608585,-3.14675823,47.55636724,1.99936152,-0.46519749,-1.68307941

>  <Name>
2oe5_lig

>  <RI>
0

>  <Rbt.Current_Directory>
/home/itssahil/PROJECTS/Mol_Feturizer/New_Systems/rnas/2oe5

>  <Rbt.Executable>
rbdock ($Id: //depot/dev/client3/rdock/2013.1/src/exe/rbdock.cxx#4 $)

>  <Rbt.Library>
libRbt.so (2013.1, Build901 2013/11/27)

>  <Rbt.Parameter_File>
/export/apps/rDock/src/rDock_2013.1_src/data/scripts/dock_solv.prm

>  <Rbt.Receptor>
prm/blind_docking_60.prm

>  <SCORE>
-27.0409

>  <SCORE.INTER>
-23.1642

>  <SCORE.INTER.CONST>
1

>  <SCORE.INTER.POLAR>
-3.22208

>  <SCORE.INTER.ROT>
6

>  <SCORE.INTER.SOLV>
17.7288

>  <SCORE.INTER.VDW>
-18.2122

>  <SCORE.INTER.norm>
-0.626061

>  <SCORE.INTRA>
-3.87671

>  <SCORE.INTRA.DIHEDRAL>
-8.48498

>  <SCORE.INTRA.DIHEDRAL.0>
16.2083

>  <SCORE.INTRA.POLAR>
0

>  <SCORE.INTRA.POLAR.0>
0

>  <SCORE.INTRA.REPUL>
0

>  <SCORE.INTRA.REPUL.0>
0

>  <SCORE.INTRA.SOLV>
0.0445781

>  <SCORE.INTRA.SOLV.lig_0>
-89.8095

>  <SCORE.INTRA.VDW>
0.343493

>  <SCORE.INTRA.VDW.0>
-3.19502

>  <SCORE.INTRA.norm>
-0.104776

>  <SCORE.RESTR>
0

>  <SCORE.RESTR.CAVITY>
0

>  <SCORE.RESTR.norm>
0

>  <SCORE.SYSTEM>
0

>  <SCORE.SYSTEM.CONST>
0

>  <SCORE.SYSTEM.DIHEDRAL>
0

>  <SCORE.SYSTEM.SOLV>
0

>  <SCORE.SYSTEM.norm>
0

>  <SCORE.heavy>
37

>  <SCORE.norm>
-0.730836

>  <RMSD>
10.963

$$$$
2oe5_lig
 OpenBabel11021811463D
libRbt.so/2013.1/901 2013/11/27
 37 40  0  0  0  0  0  0  0  0999 V2000
   17.2606   -5.3351   45.6687 C   0  0  1  0  0  0  0  0  0  0  0  0
   16.3824   -5.5507   46.9215 C   0  0  1  0  0  0  0  0  0  0  0  0
   16.4284   -4.2573   47.8170 C   0  0  0  0  0  0  0  0  0  0  0  0
   17.9189   -4.0610   48.1738 C   0  0  1  0  0  0  0  0  0  0  0  0
   18.8093   -3.8451   46.8712 C   0  0  1  0  0  0  0  0  0  0  0  0
   20.3112   -3.6384   47.2083 C   0  0  1  0  0  0  0  0  0  0  0  0
   20.3990   -2.3867   48.1271 C   0  0  1  0  0  0  0  0  0  0  0  0
   19.4708   -2.6233   49.3784 C   0  0  2  0  0  0  0  0  0  0  0  0
   22.8748   -1.7744   47.5288 C   0  0  0  0  0  0  0  0  0  0  0  0
   14.9833   -5.8215   46.5181 N   0  0  0  0  0  0  0  0  0  0  0  0
   21.8300   -2.1417   48.5473 N   0  0  0  0  0  0  0  0  0  0  0  0
   16.7682   -4.2658   44.8446 O   0  0  0  0  0  0  0  0  0  0  0  0
   18.6554   -5.0229   46.0148 O   0  0  0  0  0  0  0  0  0  0  0  0
   18.0655   -2.8816   49.0095 O   0  0  0  0  0  0  0  0  0  0  0  0
   20.7806   -4.8170   47.8707 O   0  0  0  0  0  0  0  0  0  0  0  0
   19.4756   -1.4778   50.2073 O   0  0  0  0  0  0  0  0  0  0  0  0
   19.1610   -1.8375   51.5394 C   0  0  2  0  0  0  0  0  0  0  0  0
   19.2483   -0.6501   52.4975 C   0  0  1  0  0  0  0  0  0  0  0  0
   20.7019   -0.1104   52.5912 C   0  0  2  0  0  0  0  0  0  0  0  0
   21.6120   -1.2906   53.0438 C   0  0  1  0  0  0  0  0  0  0  0  0
   21.4921   -2.4334   51.9827 C   0  0  1  0  0  0  0  0  0  0  0  0
   22.2990   -3.6592   52.3485 C   0  0  0  0  0  0  0  0  0  0  0  0
   23.0293   -0.7749   53.1409 N   0  0  0  0  0  0  0  0  0  0  0  0
   20.0943   -2.8809   51.9616 O   0  0  0  0  0  0  0  0  0  0  0  0
   18.3537    0.3685   52.0077 O   0  0  0  0  0  0  0  0  0  0  0  0
   20.7287    0.9283   53.5869 O   0  0  0  0  0  0  0  0  0  0  0  0
   22.2932   -4.6064   51.3359 O   0  0  0  0  0  0  0  0  0  0  0  0
   17.2790   -4.2725   43.5113 C   0  0  1  0  0  0  0  0  0  0  0  0
   16.3042   -5.0669   42.5703 C   0  0  1  0  0  0  0  0  0  0  0  0
   16.8800   -5.0489   41.1086 C   0  0  2  0  0  0  0  0  0  0  0  0
   16.9873   -3.5955   40.6229 C   0  0  1  0  0  0  0  0  0  0  0  0
   17.9777   -2.8026   41.5603 C   0  0  0  0  0  0  0  0  0  0  0  0
   17.4090   -2.8325   43.0334 C   0  0  2  0  0  0  0  0  0  0  0  0
   17.5031   -3.5936   39.2638 N   0  0  0  0  0  0  0  0  0  0  0  0
   18.3272   -2.1128   43.9548 N   0  0  0  0  0  0  0  0  0  0  0  0
   16.1989   -6.4458   43.0276 O   0  0  0  0  0  0  0  0  0  0  0  0
   16.0027   -5.7418   40.2610 O   0  0  0  0  0  0  0  0  0  0  0  0
  1  2  1  0  0  0  0
  1 12  1  1  0  0  0
  1 13  1  0  0  0  0
  2  3  1  0  0  0  0
  2 10  1  6  0  0  0
  4  3  1  6  0  0  0
  4  5  1  0  0  0  0
  4 14  1  0  0  0  0
  5  6  1  0  0  0  0
  5 13  1  6  0  0  0
  6  7  1  0  0  0  0
  6 15  1  1  0  0  0
  7  8  1  0  0  0  0
  7 11  1  1  0  0  0
  8 14  1  0  0  0  0
  8 16  1  1  0  0  0
  9 11  1  0  0  0  0
 17 16  1  6  0  0  0
 17 18  1  0  0  0  0
 17 24  1  0  0  0  0
 18 19  1  0  0  0  0
 18 25  1  6  0  0  0
 19 20  1  0  0  0  0
 19 26  1  1  0  0  0
 20 21  1  0  0  0  0
 20 23  1  6  0  0  0
 21 22  1  1  0  0  0
 21 24  1  0  0  0  0
 22 27  1  0  0  0  0
 28 12  1  1  0  0  0
 28 29  1  0  0  0  0
 28 33  1  0  0  0  0
 29 30  1  0  0  0  0
 29 36  1  1  0  0  0
 30 31  1  0  0  0  0
 30 37  1  6  0  0  0
 31 32  1  0  0  0  0
 31 34  1  6  0  0  0
 32 33  1  0  0  0  0
 33 35  1  1  0  0  0
M  END
>  <CHROM.1>
-162.44446493,64.97796664,-154.87133707,175.99159291,-173.79075230,92.72373784
18.93948797,-3.20209193,47.48478339,2.02543971,-0.57275348,-1.62257116

>  <Name>
2oe5_lig

>  <RI>
0

>  <Rbt.Current_Directory>
/home/itssahil/PROJECTS/Mol_Feturizer/New_Systems/rnas/2oe5

>  <Rbt.Executable>
rbdock ($Id: //depot/dev/client3/rdock/2013.1/src/exe/rbdock.cxx#4 $)

>  <Rbt.Library>
libRbt.so (2013.1, Build901 2013/11/27)

>  <Rbt.Parameter_File>
/export/apps/rDock/src/rDock_2013.1_src/data/scripts/dock_solv.prm

>  <Rbt.Receptor>
prm/pocket_docking_8.prm

>  <SCORE>
-27.3199

>  <SCORE.INTER>
-23.1439

>  <SCORE.INTER.CONST>
1

>  <SCORE.INTER.POLAR>
-3.25454

>  <SCORE.INTER.ROT>
6

>  <SCORE.INTER.SOLV>
17.1067

>  <SCORE.INTER.VDW>
-17.883

>  <SCORE.INTER.norm>
-0.62551

>  <SCORE.INTRA>
-4.176

>  <SCORE.INTRA.DIHEDRAL>
-7.69988

>  <SCORE.INTRA.DIHEDRAL.0>
16.2083

>  <SCORE.INTRA.POLAR>
0

>  <SCORE.INTRA.POLAR.0>
0

>  <SCORE.INTRA.REPUL>
0.00698198

>  <SCORE.INTRA.REPUL.0>
0

>  <SCORE.INTRA.SOLV>
-0.408549

>  <SCORE.INTRA.SOLV.lig_0>
-89.8095

>  <SCORE.INTRA.VDW>
-0.156693

>  <SCORE.INTRA.VDW.0>
-3.19502

>  <SCORE.INTRA.norm>
-0.112865

>  <SCORE.RESTR>
0

>  <SCORE.RESTR.CAVITY>
0

>  <SCORE.RESTR.norm>
0

>  <SCORE.SYSTEM>
0

>  <SCORE.SYSTEM.CONST>
0

>  <SCORE.SYSTEM.DIHEDRAL>
0

>  <SCORE.SYSTEM.SOLV>
0

>  <SCORE.SYSTEM.norm>
0

>  <SCORE.heavy>
37

>  <SCORE.norm>
-0.738375

>  <RMSD>
10.964

$$$$
2oe5_lig
 OpenBabel11021811463D
libRbt.so/2013.1/901 2013/11/27
 37 40  0  0  0  0  0  0  0  0999 V2000
   16.9310   -4.8399   44.9225 C   0  0  1  0  0  0  0  0  0  0  0  0
   16.4523   -5.3756   46.2904 C   0  0  1  0  0  0  0  0  0  0  0  0
   16.8890   -4.3731   47.4225 C   0  0  0  0  0  0  0  0  0  0  0  0
   18.4296   -4.2988   47.3295 C   0  0  1  0  0  0  0  0  0  0  0  0
   18.9049   -3.7496   45.9122 C   0  0  1  0  0  0  0  0  0  0  0  0
   20.4514   -3.6601   45.8003 C   0  0  1  0  0  0  0  0  0  0  0  0
   20.9306   -2.7046   46.9300 C   0  0  1  0  0  0  0  0  0  0  0  0
   20.4021   -3.2595   48.3069 C   0  0  2  0  0  0  0  0  0  0  0  0
   23.1383   -1.5936   47.7987 C   0  0  0  0  0  0  0  0  0  0  0  0
   14.9774   -5.5101   46.2931 N   0  0  0  0  0  0  0  0  0  0  0  0
   22.4384   -2.5999   46.9260 N   0  0  0  0  0  0  0  0  0  0  0  0
   16.3195   -3.5817   44.5940 O   0  0  0  0  0  0  0  0  0  0  0  0
   18.3887   -4.6500   44.8791 O   0  0  0  0  0  0  0  0  0  0  0  0
   18.9328   -3.3912   48.3463 O   0  0  0  0  0  0  0  0  0  0  0  0
   20.9821   -4.9796   45.9604 O   0  0  0  0  0  0  0  0  0  0  0  0
   20.7654   -2.3809   49.3535 O   0  0  0  0  0  0  0  0  0  0  0  0
   20.7530   -3.0653   50.5923 C   0  0  2  0  0  0  0  0  0  0  0  0
   19.6203   -2.5951   51.5040 C   0  0  1  0  0  0  0  0  0  0  0  0
   19.8036   -1.1053   51.9040 C   0  0  2  0  0  0  0  0  0  0  0  0
   21.1955   -0.9718   52.5900 C   0  0  1  0  0  0  0  0  0  0  0  0
   22.2882   -1.4299   51.5690 C   0  0  1  0  0  0  0  0  0  0  0  0
   23.6845   -1.3911   52.1488 C   0  0  0  0  0  0  0  0  0  0  0  0
   21.3825    0.4747   52.9859 N   0  0  0  0  0  0  0  0  0  0  0  0
   22.0398   -2.8407   51.2492 O   0  0  0  0  0  0  0  0  0  0  0  0
   18.3823   -2.7861   50.7908 O   0  0  0  0  0  0  0  0  0  0  0  0
   18.7682   -0.7652   52.8439 O   0  0  0  0  0  0  0  0  0  0  0  0
   24.0693   -0.1038   52.4915 O   0  0  0  0  0  0  0  0  0  0  0  0
   16.3926   -3.2399   43.2096 C   0  0  1  0  0  0  0  0  0  0  0  0
   17.8932   -3.2049   42.7471 C   0  0  1  0  0  0  0  0  0  0  0  0
   17.9468   -2.8402   41.2198 C   0  0  2  0  0  0  0  0  0  0  0  0
   17.1894   -3.9077   40.4158 C   0  0  1  0  0  0  0  0  0  0  0  0
   15.6794   -3.9318   40.8713 C   0  0  0  0  0  0  0  0  0  0  0  0
   15.6233   -4.2829   42.4102 C   0  0  2  0  0  0  0  0  0  0  0  0
   17.2625   -3.5691   39.0040 N   0  0  0  0  0  0  0  0  0  0  0  0
   14.2147   -4.2939   42.8851 N   0  0  0  0  0  0  0  0  0  0  0  0
   18.6156   -2.1942   43.5075 O   0  0  0  0  0  0  0  0  0  0  0  0
   19.2848   -2.8260   40.7980 O   0  0  0  0  0  0  0  0  0  0  0  0
  1  2  1  0  0  0  0
  1 12  1  1  0  0  0
  1 13  1  0  0  0  0
  2  3  1  0  0  0  0
  2 10  1  6  0  0  0
  4  3  1  6  0  0  0
  4  5  1  0  0  0  0
  4 14  1  0  0  0  0
  5  6  1  0  0  0  0
  5 13  1  6  0  0  0
  6  7  1  0  0  0  0
  6 15  1  1  0  0  0
  7  8  1  0  0  0  0
  7 11  1  1  0  0  0
  8 14  1  0  0  0  0
  8 16  1  1  0  0  0
  9 11  1  0  0  0  0
 17 16  1  6  0  0  0
 17 18  1  0  0  0  0
 17 24  1  0  0  0  0
 18 19  1  0  0  0  0
 18 25  1  6  0  0  0
 19 20  1  0  0  0  0
 19 26  1  1  0  0  0
 20 21  1  0  0  0  0
 20 23  1  6  0  0  0
 21 22  1  1  0  0  0
 21 24  1  0  0  0  0
 22 27  1  0  0  0  0
 28 12  1  1  0  0  0
 28 29  1  0  0  0  0
 28 33  1  0  0  0  0
 29 30  1  0  0  0  0
 29 36  1  1  0  0  0
 30 31  1  0  0  0  0
 30 37  1  6  0  0  0
 31 32  1  0  0  0  0
 31 34  1  6  0  0  0
 32 33  1  0  0  0  0
 33 35  1  1  0  0  0
M  END
>  <CHROM.1>
-161.86945105,171.59765924,-158.39224134,-111.00563428,-63.26860924,-57.67015859
19.15827195,-3.00297894,46.92922584,2.04823357,-0.33480794,-1.65499597

>  <Name>
2oe5_lig

>  <RI>
0

>  <Rbt.Current_Directory>
/home/itssahil/PROJECTS/Mol_Feturizer/New_Systems/rnas/2oe5

>  <Rbt.Executable>
rbdock ($Id: //depot/dev/client3/rdock/2013.1/src/exe/rbdock.cxx#4 $)

>  <Rbt.Library>
libRbt.so (2013.1, Build901 2013/11/27)

>  <Rbt.Parameter_File>
/export/apps/rDock/src/rDock_2013.1_src/data/scripts/dock_solv.prm

>  <Rbt.Receptor>
prm/blind_docking_60.prm

>  <SCORE>
-18.5785

>  <SCORE.INTER>
-17.961

>  <SCORE.INTER.CONST>
1

>  <SCORE.INTER.POLAR>
-2.42365

>  <SCORE.INTER.ROT>
6

>  <SCORE.INTER.SOLV>
14.3098

>  <SCORE.INTER.VDW>
-16.2651

>  <SCORE.INTER.norm>
-0.485431

>  <SCORE.INTRA>
-0.617596

>  <SCORE.INTRA.DIHEDRAL>
-5.64993

>  <SCORE.INTRA.DIHEDRAL.0>
16.2083

>  <SCORE.INTRA.POLAR>
0

>  <SCORE.INTRA.POLAR.0>
0

>  <SCORE.INTRA.REPUL>
0

>  <SCORE.INTRA.REPUL.0>
0

>  <SCORE.INTRA.SOLV>
0.266651

>  <SCORE.INTRA.SOLV.lig_0>
-89.8095

>  <SCORE.INTRA.VDW>
2.07404

>  <SCORE.INTRA.VDW.0>
-3.19502

>  <SCORE.INTRA.norm>
-0.0166918

>  <SCORE.RESTR>
0

>  <SCORE.RESTR.CAVITY>
0

>  <SCORE.RESTR.norm>
0

>  <SCORE.SYSTEM>
0

>  <SCORE.SYSTEM.CONST>
0

>  <SCORE.SYSTEM.DIHEDRAL>
0

>  <SCORE.SYSTEM.SOLV>
0

>  <SCORE.SYSTEM.norm>
0

>  <SCORE.heavy>
37

>  <SCORE.norm>
-0.502123

>  <RMSD>
10.980

$$$$
2oe5_lig
 OpenBabel11021811463D
libRbt.so/2013.1/901 2013/11/27
 37 40  0  0  0  0  0  0  0  0999 V2000
   15.7106   -5.1188   44.8889 C   0  0  1  0  0  0  0  0  0  0  0  0
   15.0844   -5.6170   46.2107 C   0  0  1  0  0  0  0  0  0  0  0  0
   15.4800   -4.6350   47.3753 C   0  0  0  0  0  0  0  0  0  0  0  0
   17.0245   -4.6520   47.4164 C   0  0  1  0  0  0  0  0  0  0  0  0
   17.6523   -4.1404   46.0451 C   0  0  1  0  0  0  0  0  0  0  0  0
   19.2053   -4.1427   46.0678 C   0  0  1  0  0  0  0  0  0  0  0  0
   19.6406   -3.2101   47.2338 C   0  0  1  0  0  0  0  0  0  0  0  0
   18.9630   -3.7245   48.5602 C   0  0  2  0  0  0  0  0  0  0  0  0
   22.0161   -3.0456   46.1417 C   0  0  0  0  0  0  0  0  0  0  0  0
   13.6095   -5.6645   46.0855 N   0  0  0  0  0  0  0  0  0  0  0  0
   21.1466   -3.1943   47.3607 N   0  0  0  0  0  0  0  0  0  0  0  0
   15.2052   -3.8289   44.5073 O   0  0  0  0  0  0  0  0  0  0  0  0
   17.1752   -5.0152   44.9721 O   0  0  0  0  0  0  0  0  0  0  0  0
   17.4905   -3.7694   48.4721 O   0  0  0  0  0  0  0  0  0  0  0  0
   19.6412   -5.4901   46.2747 O   0  0  0  0  0  0  0  0  0  0  0  0
   19.2856   -2.8624   49.6336 O   0  0  0  0  0  0  0  0  0  0  0  0
   20.3190   -3.4262   50.4192 C   0  0  2  0  0  0  0  0  0  0  0  0
   20.2896   -2.9257   51.8629 C   0  0  1  0  0  0  0  0  0  0  0  0
   20.5606   -1.3977   51.9326 C   0  0  2  0  0  0  0  0  0  0  0  0
   21.9375   -1.1342   51.2539 C   0  0  1  0  0  0  0  0  0  0  0  0
   21.8556   -1.6350   49.7745 C   0  0  1  0  0  0  0  0  0  0  0  0
   23.1619   -1.4756   49.0291 C   0  0  0  0  0  0  0  0  0  0  0  0
   22.2122    0.3505   51.3191 N   0  0  0  0  0  0  0  0  0  0  0  0
   21.5992   -3.0799   49.8036 O   0  0  0  0  0  0  0  0  0  0  0  0
   18.9917   -3.2415   52.4047 O   0  0  0  0  0  0  0  0  0  0  0  0
   20.6265   -1.0192   53.3195 O   0  0  0  0  0  0  0  0  0  0  0  0
   24.1771   -2.2344   49.5914 O   0  0  0  0  0  0  0  0  0  0  0  0
   15.5470   -3.4371   43.1775 C   0  0  1  0  0  0  0  0  0  0  0  0
   17.0952   -3.1942   43.0740 C   0  0  1  0  0  0  0  0  0  0  0  0
   17.4479   -2.7778   41.6006 C   0  0  2  0  0  0  0  0  0  0  0  0
   17.0431   -3.9082   40.6426 C   0  0  1  0  0  0  0  0  0  0  0  0
   15.4859   -4.1413   40.7372 C   0  0  0  0  0  0  0  0  0  0  0  0
   15.1265   -4.5450   42.2212 C   0  0  2  0  0  0  0  0  0  0  0  0
   17.3916   -3.5188   39.2861 N   0  0  0  0  0  0  0  0  0  0  0  0
   13.6609   -4.7526   42.3580 N   0  0  0  0  0  0  0  0  0  0  0  0
   17.4838   -2.1232   43.9814 O   0  0  0  0  0  0  0  0  0  0  0  0
   18.8328   -2.5777   41.4992 O   0  0  0  0  0  0  0  0  0  0  0  0
  1  2  1  0  0  0  0
  1 12  1  1  0  0  0
  1 13  1  0  0  0  0
  2  3  1  0  0  0  0
  2 10  1  6  0  0  0
  4  3  1  6  0  0  0
  4  5  1  0  0  0  0
  4 14  1  0  0  0  0
  5  6  1  0  0  0  0
  5 13  1  6  0  0  0
  6  7  1  0  0  0  0
  6 15  1  1  0  0  0
  7  8  1  0  0  0  0
  7 11  1  1  0  0  0
  8 14  1  0  0  0  0
  8 16  1  1  0  0  0
  9 11  1  0  0  0  0
 17 16  1  6  0  0  0
 17 18  1  0  0  0  0
 17 24  1  0  0  0  0
 18 19  1  0  0  0  0
 18 25  1  6  0  0  0
 19 20  1  0  0  0  0
 19 26  1  1  0  0  0
 20 21  1  0  0  0  0
 20 23  1  6  0  0  0
 21 22  1  1  0  0  0
 21 24  1  0  0  0  0
 22 27  1  0  0  0  0
 28 12  1  1  0  0  0
 28 29  1  0  0  0  0
 28 33  1  0  0  0  0
 29 30  1  0  0  0  0
 29 36  1  1  0  0  0
 30 31  1  0  0  0  0
 30 37  1  1  0  0  0
 31 32  1  0  0  0  0
 31 34  1  6  0  0  0
 32 33  1  0  0  0  0
 33 35  1  6  0  0  0
M  END
>  <CHROM.1>
-168.47430112,45.71379971,-100.80507081,-154.13932835,62.71333821,-67.42046558
18.55906514,-3.34895662,46.70605700,2.17939772,-0.40375903,-1.54769021

>  <Name>
2oe5_lig

>  <RI>
0

>  <Rbt.Current_Directory>
/home/itssahil/PROJECTS/Mol_Feturizer/New_Systems/rnas/2oe5

>  <Rbt.Executable>
rbdock ($Id: //depot/dev/client3/rdock/2013.1/src/exe/rbdock.cxx#4 $)

>  <Rbt.Library>
libRbt.so (2013.1, Build901 2013/11/27)

>  <Rbt.Parameter_File>
/export/apps/rDock/src/rDock_2013.1_src/data/scripts/dock_solv.prm

>  <Rbt.Receptor>
prm/blind_docking_60.prm

>  <SCORE>
-20.7329

>  <SCORE.INTER>
-20.8389

>  <SCORE.INTER.CONST>
1

>  <SCORE.INTER.POLAR>
-2.63003

>  <SCORE.INTER.ROT>
6

>  <SCORE.INTER.SOLV>
14.2233

>  <SCORE.INTER.VDW>
-17.467

>  <SCORE.INTER.norm>
-0.563214

>  <SCORE.INTRA>
0.106025

>  <SCORE.INTRA.DIHEDRAL>
-6.722

>  <SCORE.INTRA.DIHEDRAL.0>
16.2083

>  <SCORE.INTRA.POLAR>
0

>  <SCORE.INTRA.POLAR.0>
0

>  <SCORE.INTRA.REPUL>
0

>  <SCORE.INTRA.REPUL.0>
0

>  <SCORE.INTRA.SOLV>
1.28519

>  <SCORE.INTRA.SOLV.lig_0>
-89.8095

>  <SCORE.INTRA.VDW>
2.82443

>  <SCORE.INTRA.VDW.0>
-3.19502

>  <SCORE.INTRA.norm>
0.00286553

>  <SCORE.RESTR>
0

>  <SCORE.RESTR.CAVITY>
0

>  <SCORE.RESTR.norm>
0

>  <SCORE.SYSTEM>
0

>  <SCORE.SYSTEM.CONST>
0

>  <SCORE.SYSTEM.DIHEDRAL>
0

>  <SCORE.SYSTEM.SOLV>
0

>  <SCORE.SYSTEM.norm>
0

>  <SCORE.heavy>
37

>  <SCORE.norm>
-0.560349

>  <RMSD>
10.995

$$$$
2oe5_lig
 OpenBabel11021811463D
libRbt.so/2013.1/901 2013/11/27
 37 40  0  0  0  0  0  0  0  0999 V2000
   17.2723   -5.3862   45.6020 C   0  0  1  0  0  0  0  0  0  0  0  0
   16.3888   -5.5826   46.8542 C   0  0  1  0  0  0  0  0  0  0  0  0
   16.4405   -4.2800   47.7360 C   0  0  0  0  0  0  0  0  0  0  0  0
   17.9312   -4.0896   48.0954 C   0  0  1  0  0  0  0  0  0  0  0  0
   18.8270   -3.8936   46.7933 C   0  0  1  0  0  0  0  0  0  0  0  0
   20.3292   -3.6931   47.1330 C   0  0  1  0  0  0  0  0  0  0  0  0
   20.4223   -2.4322   48.0386 C   0  0  1  0  0  0  0  0  0  0  0  0
   19.4888   -2.6493   49.2894 C   0  0  2  0  0  0  0  0  0  0  0  0
   22.8847   -1.7534   47.4565 C   0  0  0  0  0  0  0  0  0  0  0  0
   14.9892   -5.8486   46.4493 N   0  0  0  0  0  0  0  0  0  0  0  0
   21.8537   -2.1921   48.4607 N   0  0  0  0  0  0  0  0  0  0  0  0
   16.7895   -4.3227   44.7649 O   0  0  0  0  0  0  0  0  0  0  0  0
   18.6681   -5.0795   45.9491 O   0  0  0  0  0  0  0  0  0  0  0  0
   18.0829   -2.9023   48.9188 O   0  0  0  0  0  0  0  0  0  0  0  0
   20.7888   -4.8676   47.8095 O   0  0  0  0  0  0  0  0  0  0  0  0
   19.4985   -1.4950   50.1060 O   0  0  0  0  0  0  0  0  0  0  0  0
   19.1607   -1.8357   51.4374 C   0  0  2  0  0  0  0  0  0  0  0  0
   19.2264   -0.6336   52.3788 C   0  0  1  0  0  0  0  0  0  0  0  0
   20.6763   -0.0875   52.4910 C   0  0  2  0  0  0  0  0  0  0  0  0
   21.5818   -1.2575   52.9780 C   0  0  1  0  0  0  0  0  0  0  0  0
   21.4851   -2.4166   51.9323 C   0  0  1  0  0  0  0  0  0  0  0  0
   22.2891   -3.6339   52.3313 C   0  0  0  0  0  0  0  0  0  0  0  0
   22.9953   -0.7354   53.0933 N   0  0  0  0  0  0  0  0  0  0  0  0
   20.0894   -2.8693   51.8924 O   0  0  0  0  0  0  0  0  0  0  0  0
   18.3377    0.3743   51.8574 O   0  0  0  0  0  0  0  0  0  0  0  0
   20.6814    0.9662   53.4712 O   0  0  0  0  0  0  0  0  0  0  0  0
   22.1686   -4.6617   51.4084 O   0  0  0  0  0  0  0  0  0  0  0  0
   17.3283   -4.3288   43.4427 C   0  0  1  0  0  0  0  0  0  0  0  0
   16.3568   -5.0937   42.4741 C   0  0  1  0  0  0  0  0  0  0  0  0
   16.9639   -5.0754   41.0251 C   0  0  2  0  0  0  0  0  0  0  0  0
   17.1128   -3.6206   40.5551 C   0  0  1  0  0  0  0  0  0  0  0  0
   18.0999   -2.8576   41.5204 C   0  0  0  0  0  0  0  0  0  0  0  0
   17.4995   -2.8879   42.9809 C   0  0  2  0  0  0  0  0  0  0  0  0
   17.6573   -3.6181   39.2073 N   0  0  0  0  0  0  0  0  0  0  0  0
   18.4132   -2.1965   43.9280 N   0  0  0  0  0  0  0  0  0  0  0  0
   16.2121   -6.4739   42.9164 O   0  0  0  0  0  0  0  0  0  0  0  0
   16.0901   -5.7418   40.1529 O   0  0  0  0  0  0  0  0  0  0  0  0
  1  2  1  0  0  0  0
  1 12  1  1  0  0  0
  1 13  1  0  0  0  0
  2  3  1  0  0  0  0
  2 10  1  6  0  0  0
  4  3  1  6  0  0  0
  4  5  1  0  0  0  0
  4 14  1  0  0  0  0
  5  6  1  0  0  0  0
  5 13  1  6  0  0  0
  6  7  1  0  0  0  0
  6 15  1  1  0  0  0
  7  8  1  0  0  0  0
  7 11  1  1  0  0  0
  8 14  1  0  0  0  0
  8 16  1  1  0  0  0
  9 11  1  0  0  0  0
 17 16  1  6  0  0  0
 17 18  1  0  0  0  0
 17 24  1  0  0  0  0
 18 19  1  0  0  0  0
 18 25  1  6  0  0  0
 19 20  1  0  0  0  0
 19 26  1  1  0  0  0
 20 21  1  0  0  0  0
 20 23  1  6  0  0  0
 21 22  1  1  0  0  0
 21 24  1  0  0  0  0
 22 27  1  0  0  0  0
 28 12  1  1  0  0  0
 28 29  1  0  0  0  0
 28 33  1  0  0  0  0
 29 30  1  0  0  0  0
 29 36  1  1  0  0  0
 30 31  1  0  0  0  0
 30 37  1  6  0  0  0
 31 32  1  0  0  0  0
 31 34  1  6  0  0  0
 32 33  1  0  0  0  0
 33 35  1  1  0  0  0
M  END
>  <CHROM.1>
-163.82730842,69.06782027,-155.61809789,177.05925210,178.67635301,94.51350654
18.95963088,-3.22335724,47.41103163,2.02561635,-0.60525052,-1.61459674

>  <Name>
2oe5_lig

>  <RI>
0

>  <Rbt.Current_Directory>
/home/itssahil/PROJECTS/Mol_Feturizer/New_Systems/rnas/2oe5

>  <Rbt.Executable>
rbdock ($Id: //depot/dev/client3/rdock/2013.1/src/exe/rbdock.cxx#4 $)

>  <Rbt.Library>
libRbt.so (2013.1, Build901 2013/11/27)

>  <Rbt.Parameter_File>
/export/apps/rDock/src/rDock_2013.1_src/data/scripts/dock_solv.prm

>  <Rbt.Receptor>
prm/blind_docking_80.prm

>  <SCORE>
-26.3004

>  <SCORE.INTER>
-22.7799

>  <SCORE.INTER.CONST>
1

>  <SCORE.INTER.POLAR>
-3.09146

>  <SCORE.INTER.ROT>
6

>  <SCORE.INTER.SOLV>
17.2705

>  <SCORE.INTER.VDW>
-18.2386

>  <SCORE.INTER.norm>
-0.615673

>  <SCORE.INTRA>
-4.3048

>  <SCORE.INTRA.DIHEDRAL>
-7.81675

>  <SCORE.INTRA.DIHEDRAL.0>
16.2083

>  <SCORE.INTRA.POLAR>
0

>  <SCORE.INTRA.POLAR.0>
0

>  <SCORE.INTRA.REPUL>
0.00754654

>  <SCORE.INTRA.REPUL.0>
0

>  <SCORE.INTRA.SOLV>
-0.439971

>  <SCORE.INTRA.SOLV.lig_0>
-89.8095

>  <SCORE.INTRA.VDW>
-0.214171

>  <SCORE.INTRA.VDW.0>
-3.19502

>  <SCORE.INTRA.norm>
-0.116346

>  <SCORE.RESTR>
0.78429

>  <SCORE.RESTR.CAVITY>
0.78429

>  <SCORE.RESTR.norm>
0.021197

>  <SCORE.SYSTEM>
0

>  <SCORE.SYSTEM.CONST>
0

>  <SCORE.SYSTEM.DIHEDRAL>
0

>  <SCORE.SYSTEM.SOLV>
0

>  <SCORE.SYSTEM.norm>
0

>  <SCORE.heavy>
37

>  <SCORE.norm>
-0.710822

>  <RMSD>
10.996

$$$$
2oe5_lig
 OpenBabel11021811463D
libRbt.so/2013.1/901 2013/11/27
 37 40  0  0  0  0  0  0  0  0999 V2000
   17.2464   -6.0885   46.0706 C   0  0  1  0  0  0  0  0  0  0  0  0
   16.1678   -5.8937   47.1597 C   0  0  1  0  0  0  0  0  0  0  0  0
   16.2955   -4.4462   47.7642 C   0  0  0  0  0  0  0  0  0  0  0  0
   17.7278   -4.3689   48.3386 C   0  0  1  0  0  0  0  0  0  0  0  0
   18.8258   -4.5766   47.2038 C   0  0  1  0  0  0  0  0  0  0  0  0
   20.2739   -4.4952   47.7593 C   0  0  1  0  0  0  0  0  0  0  0  0
   20.4318   -3.0880   48.4023 C   0  0  1  0  0  0  0  0  0  0  0  0
   19.3013   -2.9074   49.4851 C   0  0  2  0  0  0  0  0  0  0  0  0
   22.7346   -1.8493   48.5623 C   0  0  0  0  0  0  0  0  0  0  0  0
   14.8191   -6.0655   46.5724 N   0  0  0  0  0  0  0  0  0  0  0  0
   21.8049   -2.9415   49.0169 N   0  0  0  0  0  0  0  0  0  0  0  0
   17.0680   -5.1829   44.9693 O   0  0  0  0  0  0  0  0  0  0  0  0
   18.6065   -5.8895   46.5935 O   0  0  0  0  0  0  0  0  0  0  0  0
   17.9434   -3.0583   48.9273 O   0  0  0  0  0  0  0  0  0  0  0  0
   20.4356   -5.5406   48.7232 O   0  0  0  0  0  0  0  0  0  0  0  0
   19.3739   -1.6125   50.0484 O   0  0  0  0  0  0  0  0  0  0  0  0
   19.1197   -1.6700   51.4395 C   0  0  2  0  0  0  0  0  0  0  0  0
   19.2618   -0.3053   52.1125 C   0  0  1  0  0  0  0  0  0  0  0  0
   20.7226    0.2153   52.0225 C   0  0  2  0  0  0  0  0  0  0  0  0
   21.6434   -0.8554   52.6793 C   0  0  1  0  0  0  0  0  0  0  0  0
   21.4641   -2.1982   51.8976 C   0  0  1  0  0  0  0  0  0  0  0  0
   22.2774   -3.3304   52.4842 C   0  0  0  0  0  0  0  0  0  0  0  0
   23.0678   -0.3568   52.5994 N   0  0  0  0  0  0  0  0  0  0  0  0
   20.0633   -2.6142   52.0360 O   0  0  0  0  0  0  0  0  0  0  0  0
   18.3534    0.5994   51.4537 O   0  0  0  0  0  0  0  0  0  0  0  0
   20.8048    1.4441   52.7671 O   0  0  0  0  0  0  0  0  0  0  0  0
   22.0692   -4.5238   51.8096 O   0  0  0  0  0  0  0  0  0  0  0  0
   16.0238   -5.5551   44.0695 C   0  0  1  0  0  0  0  0  0  0  0  0
   15.6243   -4.3254   43.1778 C   0  0  1  0  0  0  0  0  0  0  0  0
   14.4848   -4.7627   42.1885 C   0  0  2  0  0  0  0  0  0  0  0  0
   14.9992   -5.8986   41.2913 C   0  0  1  0  0  0  0  0  0  0  0  0
   15.3865   -7.1378   42.1871 C   0  0  0  0  0  0  0  0  0  0  0  0
   16.5212   -6.6967   43.1932 C   0  0  2  0  0  0  0  0  0  0  0  0
   13.9428   -6.2808   40.3689 N   0  0  0  0  0  0  0  0  0  0  0  0
   16.9002   -7.8335   44.0730 N   0  0  0  0  0  0  0  0  0  0  0  0
   15.1363   -3.2454   44.0245 O   0  0  0  0  0  0  0  0  0  0  0  0
   14.1376   -3.6720   41.3772 O   0  0  0  0  0  0  0  0  0  0  0  0
  1  2  1  0  0  0  0
  1 12  1  6  0  0  0
  1 13  1  0  0  0  0
  2  3  1  0  0  0  0
  2 10  1  6  0  0  0
  4  3  1  6  0  0  0
  4  5  1  0  0  0  0
  4 14  1  0  0  0  0
  5  6  1  0  0  0  0
  5 13  1  1  0  0  0
  6  7  1  0  0  0  0
  6 15  1  1  0  0  0
  7  8  1  0  0  0  0
  7 11  1  1  0  0  0
  8 14  1  0  0  0  0
  8 16  1  6  0  0  0
  9 11  1  0  0  0  0
 17 16  1  6  0  0  0
 17 18  1  0  0  0  0
 17 24  1  0  0  0  0
 18 19  1  0  0  0  0
 18 25  1  6  0  0  0
 19 20  1  0  0  0  0
 19 26  1  1  0  0  0
 20 21  1  0  0  0  0
 20 23  1  6  0  0  0
 21 22  1  1  0  0  0
 21 24  1  0  0  0  0
 22 27  1  0  0  0  0
 28 12  1  1  0  0  0
 28 29  1  0  0  0  0
 28 33  1  0  0  0  0
 29 30  1  0  0  0  0
 29 36  1  1  0  0  0
 30 31  1  0  0  0  0
 30 37  1  6  0  0  0
 31 32  1  0  0  0  0
 31 34  1  6  0  0  0
 32 33  1  0  0  0  0
 33 35  1  1  0  0  0
M  END
>  <CHROM.1>
-77.25018029,121.15316757,-140.60633189,176.85049928,177.79508511,163.10454440
18.42703218,-3.67018455,47.73536498,-2.30096832,-0.71563673,0.57978913

>  <Name>
2oe5_lig

>  <RI>
0

>  <Rbt.Current_Directory>
/home/itssahil/PROJECTS/Mol_Feturizer/New_Systems/rnas/2oe5

>  <Rbt.Executable>
rbdock ($Id: //depot/dev/client3/rdock/2013.1/src/exe/rbdock.cxx#4 $)

>  <Rbt.Library>
libRbt.so (2013.1, Build901 2013/11/27)

>  <Rbt.Parameter_File>
/export/apps/rDock/src/rDock_2013.1_src/data/scripts/dock_solv.prm

>  <Rbt.Receptor>
prm/blind_docking_100.prm

>  <SCORE>
-14.9429

>  <SCORE.INTER>
-13.6798

>  <SCORE.INTER.CONST>
1

>  <SCORE.INTER.POLAR>
-1.4956

>  <SCORE.INTER.ROT>
6

>  <SCORE.INTER.SOLV>
10.2163

>  <SCORE.INTER.VDW>
-15.1399

>  <SCORE.INTER.norm>
-0.369723

>  <SCORE.INTRA>
-1.61629

>  <SCORE.INTRA.DIHEDRAL>
-6.91256

>  <SCORE.INTRA.DIHEDRAL.0>
16.2083

>  <SCORE.INTRA.POLAR>
0

>  <SCORE.INTRA.POLAR.0>
0

>  <SCORE.INTRA.REPUL>
0

>  <SCORE.INTRA.REPUL.0>
0

>  <SCORE.INTRA.SOLV>
3.22823

>  <SCORE.INTRA.SOLV.lig_0>
-89.8095

>  <SCORE.INTRA.VDW>
0.225882

>  <SCORE.INTRA.VDW.0>
-3.19502

>  <SCORE.INTRA.norm>
-0.0436834

>  <SCORE.RESTR>
0.353121

>  <SCORE.RESTR.CAVITY>
0.353121

>  <SCORE.RESTR.norm>
0.00954381

>  <SCORE.SYSTEM>
0

>  <SCORE.SYSTEM.CONST>
0

>  <SCORE.SYSTEM.DIHEDRAL>
0

>  <SCORE.SYSTEM.SOLV>
0

>  <SCORE.SYSTEM.norm>
0

>  <SCORE.heavy>
37

>  <SCORE.norm>
-0.403863

>  <RMSD>
11.028

$$$$
2oe5_lig
 OpenBabel11021811463D
libRbt.so/2013.1/901 2013/11/27
 37 40  0  0  0  0  0  0  0  0999 V2000
   18.8181   -6.0142   44.4834 C   0  0  1  0  0  0  0  0  0  0  0  0
   18.9482   -7.1327   45.5414 C   0  0  1  0  0  0  0  0  0  0  0  0
   19.0613   -6.4845   46.9712 C   0  0  0  0  0  0  0  0  0  0  0  0
   20.3161   -5.5848   46.9131 C   0  0  1  0  0  0  0  0  0  0  0  0
   20.1665   -4.4414   45.8146 C   0  0  1  0  0  0  0  0  0  0  0  0
   21.4151   -3.5204   45.7449 C   0  0  1  0  0  0  0  0  0  0  0  0
   21.5867   -2.8860   47.1545 C   0  0  1  0  0  0  0  0  0  0  0  0
   21.6857   -4.0487   48.2135 C   0  0  2  0  0  0  0  0  0  0  0  0
   23.2950   -1.4129   48.4866 C   0  0  0  0  0  0  0  0  0  0  0  0
   17.7602   -8.0157   45.4930 N   0  0  0  0  0  0  0  0  0  0  0  0
   22.8169   -2.0086   47.1903 N   0  0  0  0  0  0  0  0  0  0  0  0
   17.6201   -5.2412   44.6629 O   0  0  0  0  0  0  0  0  0  0  0  0
   19.9563   -5.0835   44.5155 O   0  0  0  0  0  0  0  0  0  0  0  0
   20.5085   -4.9386   48.2000 O   0  0  0  0  0  0  0  0  0  0  0  0
   22.5400   -4.3293   45.3864 O   0  0  0  0  0  0  0  0  0  0  0  0
   21.7793   -3.5086   49.5169 O   0  0  0  0  0  0  0  0  0  0  0  0
   22.0295   -4.5380   50.4553 C   0  0  2  0  0  0  0  0  0  0  0  0
   22.0843   -4.0148   51.8902 C   0  0  1  0  0  0  0  0  0  0  0  0
   23.2745   -3.0359   52.0854 C   0  0  2  0  0  0  0  0  0  0  0  0
   24.5762   -3.7964   51.6939 C   0  0  1  0  0  0  0  0  0  0  0  0
   24.4459   -4.2503   50.2029 C   0  0  1  0  0  0  0  0  0  0  0  0
   25.6390   -5.0488   49.7273 C   0  0  0  0  0  0  0  0  0  0  0  0
   25.7415   -2.8529   51.8833 N   0  0  0  0  0  0  0  0  0  0  0  0
   23.3036   -5.1675   50.1114 O   0  0  0  0  0  0  0  0  0  0  0  0
   20.8301   -3.3574   52.1599 O   0  0  0  0  0  0  0  0  0  0  0  0
   23.3289   -2.6718   53.4767 O   0  0  0  0  0  0  0  0  0  0  0  0
   25.4482   -5.5590   48.4522 O   0  0  0  0  0  0  0  0  0  0  0  0
   17.3354   -4.3458   43.5878 C   0  0  1  0  0  0  0  0  0  0  0  0
   17.0812   -5.1596   42.2687 C   0  0  1  0  0  0  0  0  0  0  0  0
   16.7575   -4.1549   41.1050 C   0  0  2  0  0  0  0  0  0  0  0  0
   15.4964   -3.3536   41.4618 C   0  0  1  0  0  0  0  0  0  0  0  0
   15.7581   -2.5258   42.7788 C   0  0  0  0  0  0  0  0  0  0  0  0
   16.0991   -3.5327   43.9469 C   0  0  2  0  0  0  0  0  0  0  0  0
   15.1971   -2.4419   40.3698 N   0  0  0  0  0  0  0  0  0  0  0  0
   16.3748   -2.7889   45.2041 N   0  0  0  0  0  0  0  0  0  0  0  0
   18.2745   -5.9216   41.9267 O   0  0  0  0  0  0  0  0  0  0  0  0
   16.5115   -4.8788   39.9286 O   0  0  0  0  0  0  0  0  0  0  0  0
  1  2  1  0  0  0  0
  1 12  1  1  0  0  0
  1 13  1  0  0  0  0
  2  3  1  0  0  0  0
  2 10  1  1  0  0  0
  4  3  1  1  0  0  0
  4  5  1  0  0  0  0
  4 14  1  0  0  0  0
  5  6  1  0  0  0  0
  5 13  1  6  0  0  0
  6  7  1  0  0  0  0
  6 15  1  1  0  0  0
  7  8  1  0  0  0  0
  7 11  1  6  0  0  0
  8 14  1  0  0  0  0
  8 16  1  1  0  0  0
  9 11  1  0  0  0  0
 17 16  1  6  0  0  0
 17 18  1  0  0  0  0
 17 24  1  0  0  0  0
 18 19  1  0  0  0  0
 18 25  1  6  0  0  0
 19 20  1  0  0  0  0
 19 26  1  1  0  0  0
 20 21  1  0  0  0  0
 20 23  1  6  0  0  0
 21 22  1  1  0  0  0
 21 24  1  0  0  0  0
 22 27  1  0  0  0  0
 28 12  1  1  0  0  0
 28 29  1  0  0  0  0
 28 33  1  0  0  0  0
 29 30  1  0  0  0  0
 29 36  1  6  0  0  0
 30 31  1  0  0  0  0
 30 37  1  6  0  0  0
 31 32  1  0  0  0  0
 31 34  1  6  0  0  0
 32 33  1  0  0  0  0
 33 35  1  1  0  0  0
M  END
>  <CHROM.1>
-169.98471731,-172.59489142,-172.99234491,-177.70559865,173.81248348,63.12676068
20.41106156,-4.27770336,46.75312592,-2.44896761,-0.61471532,0.88292270

>  <Name>
2oe5_lig

>  <RI>
0

>  <Rbt.Current_Directory>
/home/itssahil/PROJECTS/Mol_Feturizer/New_Systems/rnas/2oe5

>  <Rbt.Executable>
rbdock ($Id: //depot/dev/client3/rdock/2013.1/src/exe/rbdock.cxx#4 $)

>  <Rbt.Library>
libRbt.so (2013.1, Build901 2013/11/27)

>  <Rbt.Parameter_File>
/export/apps/rDock/src/rDock_2013.1_src/data/scripts/dock_solv.prm

>  <Rbt.Receptor>
prm/blind_docking_60.prm

>  <SCORE>
-19.636

>  <SCORE.INTER>
-13.7908

>  <SCORE.INTER.CONST>
1

>  <SCORE.INTER.POLAR>
-1.03923

>  <SCORE.INTER.ROT>
6

>  <SCORE.INTER.SOLV>
17.2703

>  <SCORE.INTER.VDW>
-19.0865

>  <SCORE.INTER.norm>
-0.372724

>  <SCORE.INTRA>
-5.84523

>  <SCORE.INTRA.DIHEDRAL>
-15.1359

>  <SCORE.INTRA.DIHEDRAL.0>
16.2083

>  <SCORE.INTRA.POLAR>
0

>  <SCORE.INTRA.POLAR.0>
0

>  <SCORE.INTRA.REPUL>
0

>  <SCORE.INTRA.REPUL.0>
0

>  <SCORE.INTRA.SOLV>
-2.57428

>  <SCORE.INTRA.SOLV.lig_0>
-89.8095

>  <SCORE.INTRA.VDW>
3.00988

>  <SCORE.INTRA.VDW.0>
-3.19502

>  <SCORE.INTRA.norm>
-0.157979

>  <SCORE.RESTR>
0

>  <SCORE.RESTR.CAVITY>
0

>  <SCORE.RESTR.norm>
0

>  <SCORE.SYSTEM>
0

>  <SCORE.SYSTEM.CONST>
0

>  <SCORE.SYSTEM.DIHEDRAL>
0

>  <SCORE.SYSTEM.SOLV>
0

>  <SCORE.SYSTEM.norm>
0

>  <SCORE.heavy>
37

>  <SCORE.norm>
-0.530703

>  <RMSD>
11.033

$$$$
2oe5_lig
 OpenBabel11021811463D
libRbt.so/2013.1/901 2013/11/27
 37 40  0  0  0  0  0  0  0  0999 V2000
   17.2470   -5.3480   45.5278 C   0  0  1  0  0  0  0  0  0  0  0  0
   16.3567   -5.5318   46.7771 C   0  0  1  0  0  0  0  0  0  0  0  0
   16.4296   -4.2326   47.6626 C   0  0  0  0  0  0  0  0  0  0  0  0
   17.9225   -4.0702   48.0264 C   0  0  1  0  0  0  0  0  0  0  0  0
   18.8252   -3.8869   46.7273 C   0  0  1  0  0  0  0  0  0  0  0  0
   20.3299   -3.7145   47.0714 C   0  0  1  0  0  0  0  0  0  0  0  0
   20.4433   -2.4579   47.9807 C   0  0  1  0  0  0  0  0  0  0  0  0
   19.5026   -2.6614   49.2285 C   0  0  2  0  0  0  0  0  0  0  0  0
   22.9009   -1.7395   47.4267 C   0  0  0  0  0  0  0  0  0  0  0  0
   14.9536   -5.7713   46.3678 N   0  0  0  0  0  0  0  0  0  0  0  0
   21.8776   -2.2448   48.4072 N   0  0  0  0  0  0  0  0  0  0  0  0
   16.7857   -4.2736   44.6923 O   0  0  0  0  0  0  0  0  0  0  0  0
   18.6471   -5.0675   45.8794 O   0  0  0  0  0  0  0  0  0  0  0  0
   18.0934   -2.8881   48.8535 O   0  0  0  0  0  0  0  0  0  0  0  0
   20.7663   -4.8989   47.7459 O   0  0  0  0  0  0  0  0  0  0  0  0
   19.5310   -1.5097   50.0482 O   0  0  0  0  0  0  0  0  0  0  0  0
   19.1616   -1.8438   51.3729 C   0  0  2  0  0  0  0  0  0  0  0  0
   19.2055   -0.6372   52.3098 C   0  0  1  0  0  0  0  0  0  0  0  0
   20.6526   -0.0910   52.4537 C   0  0  2  0  0  0  0  0  0  0  0  0
   21.5457   -1.2589   52.9677 C   0  0  1  0  0  0  0  0  0  0  0  0
   21.4733   -2.4231   51.9256 C   0  0  1  0  0  0  0  0  0  0  0  0
   22.2671   -3.6387   52.3495 C   0  0  0  0  0  0  0  0  0  0  0  0
   22.9564   -0.7367   53.1139 N   0  0  0  0  0  0  0  0  0  0  0  0
   20.0788   -2.8755   51.8548 O   0  0  0  0  0  0  0  0  0  0  0  0
   18.3299    0.3685   51.7625 O   0  0  0  0  0  0  0  0  0  0  0  0
   20.6349    0.9674   53.4285 O   0  0  0  0  0  0  0  0  0  0  0  0
   22.1755   -4.6676   51.4246 O   0  0  0  0  0  0  0  0  0  0  0  0
   17.2929   -4.3113   43.3581 C   0  0  1  0  0  0  0  0  0  0  0  0
   16.2930   -5.0883   42.4289 C   0  0  1  0  0  0  0  0  0  0  0  0
   16.8656   -5.1048   40.9659 C   0  0  2  0  0  0  0  0  0  0  0  0
   17.0141   -3.6611   40.4623 C   0  0  1  0  0  0  0  0  0  0  0  0
   18.0295   -2.8863   41.3880 C   0  0  0  0  0  0  0  0  0  0  0  0
   17.4637   -2.8817   42.8625 C   0  0  2  0  0  0  0  0  0  0  0  0
   17.5264   -3.6908   39.1023 N   0  0  0  0  0  0  0  0  0  0  0  0
   18.4048   -2.1781   43.7732 N   0  0  0  0  0  0  0  0  0  0  0  0
   16.1485   -6.4579   42.9032 O   0  0  0  0  0  0  0  0  0  0  0  0
   15.9664   -5.7820   40.1287 O   0  0  0  0  0  0  0  0  0  0  0  0
  1  2  1  0  0  0  0
  1 12  1  1  0  0  0
  1 13  1  0  0  0  0
  2  3  1  0  0  0  0
  2 10  1  6  0  0  0
  4  3  1  6  0  0  0
  4  5  1  0  0  0  0
  4 14  1  0  0  0  0
  5  6  1  0  0  0  0
  5 13  1  6  0  0  0
  6  7  1  0  0  0  0
  6 15  1  1  0  0  0
  7  8  1  0  0  0  0
  7 11  1  1  0  0  0
  8 14  1  0  0  0  0
  8 16  1  1  0  0  0
  9 11  1  0  0  0  0
 17 16  1  6  0  0  0
 17 18  1  0  0  0  0
 17 24  1  0  0  0  0
 18 19  1  0  0  0  0
 18 25  1  6  0  0  0
 19 20  1  0  0  0  0
 19 26  1  1  0  0  0
 20 21  1  0  0  0  0
 20 23  1  6  0  0  0
 21 22  1  1  0  0  0
 21 24  1  0  0  0  0
 22 27  1  0  0  0  0
 28 12  1  1  0  0  0
 28 29  1  0  0  0  0
 28 33  1  0  0  0  0
 29 30  1  0  0  0  0
 29 36  1  1  0  0  0
 30 31  1  0  0  0  0
 30 37  1  6  0  0  0
 31 32  1  0  0  0  0
 31 34  1  6  0  0  0
 32 33  1  0  0  0  0
 33 35  1  1  0  0  0
M  END
>  <CHROM.1>
-161.83727781,72.91126557,-156.60484980,178.74635063,179.08684137,92.62932876
18.93332130,-3.22398040,47.35296468,2.02338758,-0.58322524,-1.62144674

>  <Name>
2oe5_lig

>  <RI>
0

>  <Rbt.Current_Directory>
/home/itssahil/PROJECTS/Mol_Feturizer/New_Systems/rnas/2oe5

>  <Rbt.Executable>
rbdock ($Id: //depot/dev/client3/rdock/2013.1/src/exe/rbdock.cxx#4 $)

>  <Rbt.Library>
libRbt.so (2013.1, Build901 2013/11/27)

>  <Rbt.Parameter_File>
/export/apps/rDock/src/rDock_2013.1_src/data/scripts/dock_solv.prm

>  <Rbt.Receptor>
prm/blind_docking_80.prm

>  <SCORE>
-26.132

>  <SCORE.INTER>
-22.3076

>  <SCORE.INTER.CONST>
1

>  <SCORE.INTER.POLAR>
-3.02548

>  <SCORE.INTER.ROT>
6

>  <SCORE.INTER.SOLV>
17.0775

>  <SCORE.INTER.VDW>
-18.0793

>  <SCORE.INTER.norm>
-0.602909

>  <SCORE.INTRA>
-4.56258

>  <SCORE.INTRA.DIHEDRAL>
-8.02383

>  <SCORE.INTRA.DIHEDRAL.0>
16.2083

>  <SCORE.INTRA.POLAR>
0

>  <SCORE.INTRA.POLAR.0>
0

>  <SCORE.INTRA.REPUL>
0

>  <SCORE.INTRA.REPUL.0>
0

>  <SCORE.INTRA.SOLV>
-0.596696

>  <SCORE.INTRA.SOLV.lig_0>
-89.8095

>  <SCORE.INTRA.VDW>
-0.252314

>  <SCORE.INTRA.VDW.0>
-3.19502

>  <SCORE.INTRA.norm>
-0.123313

>  <SCORE.RESTR>
0.738212

>  <SCORE.RESTR.CAVITY>
0.738212

>  <SCORE.RESTR.norm>
0.0199517

>  <SCORE.SYSTEM>
0

>  <SCORE.SYSTEM.CONST>
0

>  <SCORE.SYSTEM.DIHEDRAL>
0

>  <SCORE.SYSTEM.SOLV>
0

>  <SCORE.SYSTEM.norm>
0

>  <SCORE.heavy>
37

>  <SCORE.norm>
-0.70627

>  <RMSD>
11.043

$$$$
2oe5_lig
 OpenBabel11021811463D
libRbt.so/2013.1/901 2013/11/27
 37 40  0  0  0  0  0  0  0  0999 V2000
   18.3806   -6.1211   44.9658 C   0  0  1  0  0  0  0  0  0  0  0  0
   17.2799   -5.5581   45.8925 C   0  0  1  0  0  0  0  0  0  0  0  0
   17.9069   -4.4713   46.8428 C   0  0  0  0  0  0  0  0  0  0  0  0
   19.0144   -5.2074   47.6296 C   0  0  1  0  0  0  0  0  0  0  0  0
   20.1370   -5.7850   46.6588 C   0  0  1  0  0  0  0  0  0  0  0  0
   21.2647   -6.5230   47.4308 C   0  0  1  0  0  0  0  0  0  0  0  0
   21.8888   -5.4911   48.4127 C   0  0  1  0  0  0  0  0  0  0  0  0
   20.7391   -4.9129   49.3222 C   0  0  2  0  0  0  0  0  0  0  0  0
   24.3653   -6.2926   48.7080 C   0  0  0  0  0  0  0  0  0  0  0  0
   16.2029   -4.9430   45.0832 N   0  0  0  0  0  0  0  0  0  0  0  0
   22.9680   -6.1437   49.2458 N   0  0  0  0  0  0  0  0  0  0  0  0
   18.9267   -5.1096   44.1035 O   0  0  0  0  0  0  0  0  0  0  0  0
   19.4962   -6.7100   45.7218 O   0  0  0  0  0  0  0  0  0  0  0  0
   19.6565   -4.2795   48.5447 O   0  0  0  0  0  0  0  0  0  0  0  0
   20.6743   -7.6265   48.1250 O   0  0  0  0  0  0  0  0  0  0  0  0
   21.2590   -3.9228   50.1875 O   0  0  0  0  0  0  0  0  0  0  0  0
   20.6303   -4.0011   51.4530 C   0  0  2  0  0  0  0  0  0  0  0  0
   19.4333   -3.0577   51.5660 C   0  0  1  0  0  0  0  0  0  0  0  0
   19.8776   -1.5728   51.4625 C   0  0  2  0  0  0  0  0  0  0  0  0
   20.9267   -1.3179   52.5851 C   0  0  1  0  0  0  0  0  0  0  0  0
   22.1286   -2.2929   52.3596 C   0  0  1  0  0  0  0  0  0  0  0  0
   23.1917   -2.1689   53.4283 C   0  0  0  0  0  0  0  0  0  0  0  0
   21.3635    0.1261   52.4949 N   0  0  0  0  0  0  0  0  0  0  0  0
   21.6207   -3.6651   52.4748 O   0  0  0  0  0  0  0  0  0  0  0  0
   18.5154   -3.3934   50.5065 O   0  0  0  0  0  0  0  0  0  0  0  0
   18.7218   -0.7450   51.6858 O   0  0  0  0  0  0  0  0  0  0  0  0
   23.8509   -0.9506   53.3667 O   0  0  0  0  0  0  0  0  0  0  0  0
   18.0266   -4.6544   43.0930 C   0  0  1  0  0  0  0  0  0  0  0  0
   18.5895   -3.3488   42.4257 C   0  0  1  0  0  0  0  0  0  0  0  0
   17.5898   -2.8756   41.3098 C   0  0  2  0  0  0  0  0  0  0  0  0
   17.4573   -3.9763   40.2465 C   0  0  1  0  0  0  0  0  0  0  0  0
   16.8783   -5.2823   40.9154 C   0  0  0  0  0  0  0  0  0  0  0  0
   17.8739   -5.7515   42.0481 C   0  0  2  0  0  0  0  0  0  0  0  0
   16.5451   -3.5189   39.2113 N   0  0  0  0  0  0  0  0  0  0  0  0
   17.3521   -6.9708   42.7199 N   0  0  0  0  0  0  0  0  0  0  0  0
   18.7175   -2.3023   43.4306 O   0  0  0  0  0  0  0  0  0  0  0  0
   18.0981   -1.7197   40.6984 O   0  0  0  0  0  0  0  0  0  0  0  0
  1  2  1  0  0  0  0
  1 12  1  1  0  0  0
  1 13  1  0  0  0  0
  2  3  1  0  0  0  0
  2 10  1  6  0  0  0
  4  3  1  6  0  0  0
  4  5  1  0  0  0  0
  4 14  1  0  0  0  0
  5  6  1  0  0  0  0
  5 13  1  6  0  0  0
  6  7  1  0  0  0  0
  6 15  1  1  0  0  0
  7  8  1  0  0  0  0
  7 11  1  1  0  0  0
  8 14  1  0  0  0  0
  8 16  1  1  0  0  0
  9 11  1  0  0  0  0
 17 16  1  6  0  0  0
 17 18  1  0  0  0  0
 17 24  1  0  0  0  0
 18 19  1  0  0  0  0
 18 25  1  6  0  0  0
 19 20  1  0  0  0  0
 19 26  1  1  0  0  0
 20 21  1  0  0  0  0
 20 23  1  6  0  0  0
 21 22  1  1  0  0  0
 21 24  1  0  0  0  0
 22 27  1  0  0  0  0
 28 12  1  1  0  0  0
 28 29  1  0  0  0  0
 28 33  1  0  0  0  0
 29 30  1  0  0  0  0
 29 36  1  1  0  0  0
 30 31  1  0  0  0  0
 30 37  1  6  0  0  0
 31 32  1  0  0  0  0
 31 34  1  6  0  0  0
 32 33  1  0  0  0  0
 33 35  1  1  0  0  0
M  END
>  <CHROM.1>
-69.66919443,83.18534483,-142.73115368,-93.85928979,-67.93686556,167.34271467
19.69070136,-4.10370848,47.24509930,-2.34094752,-1.01848797,0.70241614

>  <Name>
2oe5_lig

>  <RI>
0

>  <Rbt.Current_Directory>
/home/itssahil/PROJECTS/Mol_Feturizer/New_Systems/rnas/2oe5

>  <Rbt.Executable>
rbdock ($Id: //depot/dev/client3/rdock/2013.1/src/exe/rbdock.cxx#4 $)

>  <Rbt.Library>
libRbt.so (2013.1, Build901 2013/11/27)

>  <Rbt.Parameter_File>
/export/apps/rDock/src/rDock_2013.1_src/data/scripts/dock_solv.prm

>  <Rbt.Receptor>
prm/pocket_docking_8.prm

>  <SCORE>
-15.6971

>  <SCORE.INTER>
-17.3389

>  <SCORE.INTER.CONST>
1

>  <SCORE.INTER.POLAR>
-1.94312

>  <SCORE.INTER.ROT>
6

>  <SCORE.INTER.SOLV>
10.9005

>  <SCORE.INTER.VDW>
-16.3157

>  <SCORE.INTER.norm>
-0.468619

>  <SCORE.INTRA>
1.64182

>  <SCORE.INTRA.DIHEDRAL>
-5.0673

>  <SCORE.INTRA.DIHEDRAL.0>
16.2083

>  <SCORE.INTRA.POLAR>
0

>  <SCORE.INTRA.POLAR.0>
0

>  <SCORE.INTRA.REPUL>
0

>  <SCORE.INTRA.REPUL.0>
0

>  <SCORE.INTRA.SOLV>
3.25237

>  <SCORE.INTRA.SOLV.lig_0>
-89.8095

>  <SCORE.INTRA.VDW>
2.54928

>  <SCORE.INTRA.VDW.0>
-3.19502

>  <SCORE.INTRA.norm>
0.0443735

>  <SCORE.RESTR>
0

>  <SCORE.RESTR.CAVITY>
0

>  <SCORE.RESTR.norm>
0

>  <SCORE.SYSTEM>
0

>  <SCORE.SYSTEM.CONST>
0

>  <SCORE.SYSTEM.DIHEDRAL>
0

>  <SCORE.SYSTEM.SOLV>
0

>  <SCORE.SYSTEM.norm>
0

>  <SCORE.heavy>
37

>  <SCORE.norm>
-0.424246

>  <RMSD>
11.057

$$$$
2oe5_lig
 OpenBabel11021811463D
libRbt.so/2013.1/901 2013/11/27
 37 40  0  0  0  0  0  0  0  0999 V2000
   17.5873   -5.4081   45.4870 C   0  0  1  0  0  0  0  0  0  0  0  0
   16.7860   -5.5909   46.7954 C   0  0  1  0  0  0  0  0  0  0  0  0
   16.8346   -4.2545   47.6253 C   0  0  0  0  0  0  0  0  0  0  0  0
   18.3343   -3.9925   47.8892 C   0  0  1  0  0  0  0  0  0  0  0  0
   19.1451   -3.8117   46.5304 C   0  0  1  0  0  0  0  0  0  0  0  0
   20.6548   -3.5399   46.7736 C   0  0  1  0  0  0  0  0  0  0  0  0
   20.7478   -2.2426   47.6264 C   0  0  1  0  0  0  0  0  0  0  0  0
   19.8974   -2.4481   48.9370 C   0  0  2  0  0  0  0  0  0  0  0  0
   23.0026   -2.8713   48.8025 C   0  0  0  0  0  0  0  0  0  0  0  0
   15.3776   -5.9265   46.4834 N   0  0  0  0  0  0  0  0  0  0  0  0
   22.1899   -1.9310   47.9545 N   0  0  0  0  0  0  0  0  0  0  0  0
   17.0139   -4.3970   44.6422 O   0  0  0  0  0  0  0  0  0  0  0  0
   18.9869   -5.0342   45.7401 O   0  0  0  0  0  0  0  0  0  0  0  0
   18.4841   -2.7697   48.6592 O   0  0  0  0  0  0  0  0  0  0  0  0
   21.2004   -4.6689   47.4635 O   0  0  0  0  0  0  0  0  0  0  0  0
   19.9064   -1.2639   49.7096 O   0  0  0  0  0  0  0  0  0  0  0  0
   19.6050   -1.5598   51.0604 C   0  0  2  0  0  0  0  0  0  0  0  0
   19.5172   -0.3023   51.9245 C   0  0  1  0  0  0  0  0  0  0  0  0
   20.8884    0.4237   51.9997 C   0  0  2  0  0  0  0  0  0  0  0  0
   21.9277   -0.5935   52.5575 C   0  0  1  0  0  0  0  0  0  0  0  0
   21.9802   -1.8187   51.5867 C   0  0  1  0  0  0  0  0  0  0  0  0
   22.9251   -2.9007   52.0598 C   0  0  0  0  0  0  0  0  0  0  0  0
   23.2657    0.1045   52.6374 N   0  0  0  0  0  0  0  0  0  0  0  0
   20.6508   -2.4410   51.5777 O   0  0  0  0  0  0  0  0  0  0  0  0
   18.5146    0.5543   51.3425 O   0  0  0  0  0  0  0  0  0  0  0  0
   20.7583    1.5291   52.9119 O   0  0  0  0  0  0  0  0  0  0  0  0
   22.4851   -3.4995   53.2305 O   0  0  0  0  0  0  0  0  0  0  0  0
   17.2523   -4.5953   43.2485 C   0  0  1  0  0  0  0  0  0  0  0  0
   15.9163   -4.4015   42.4457 C   0  0  1  0  0  0  0  0  0  0  0  0
   16.2066   -4.6113   40.9159 C   0  0  2  0  0  0  0  0  0  0  0  0
   17.2387   -3.5742   40.4479 C   0  0  1  0  0  0  0  0  0  0  0  0
   18.5844   -3.7794   41.2449 C   0  0  0  0  0  0  0  0  0  0  0  0
   18.2923   -3.5843   42.7847 C   0  0  2  0  0  0  0  0  0  0  0  0
   17.4841   -3.7667   39.0281 N   0  0  0  0  0  0  0  0  0  0  0  0
   19.5342   -3.7917   43.5750 N   0  0  0  0  0  0  0  0  0  0  0  0
   14.9342   -5.3826   42.8868 O   0  0  0  0  0  0  0  0  0  0  0  0
   15.0193   -4.4208   40.1931 O   0  0  0  0  0  0  0  0  0  0  0  0
  1  2  1  0  0  0  0
  1 12  1  6  0  0  0
  1 13  1  0  0  0  0
  2  3  1  0  0  0  0
  2 10  1  6  0  0  0
  4  3  1  6  0  0  0
  4  5  1  0  0  0  0
  4 14  1  0  0  0  0
  5  6  1  0  0  0  0
  5 13  1  6  0  0  0
  6  7  1  0  0  0  0
  6 15  1  1  0  0  0
  7  8  1  0  0  0  0
  7 11  1  1  0  0  0
  8 14  1  0  0  0  0
  8 16  1  1  0  0  0
  9 11  1  0  0  0  0
 17 16  1  6  0  0  0
 17 18  1  0  0  0  0
 17 24  1  0  0  0  0
 18 19  1  0  0  0  0
 18 25  1  6  0  0  0
 19 20  1  0  0  0  0
 19 26  1  1  0  0  0
 20 21  1  0  0  0  0
 20 23  1  6  0  0  0
 21 22  1  1  0  0  0
 21 24  1  0  0  0  0
 22 27  1  0  0  0  0
 28 12  1  1  0  0  0
 28 29  1  0  0  0  0
 28 33  1  0  0  0  0
 29 30  1  0  0  0  0
 29 36  1  1  0  0  0
 30 31  1  0  0  0  0
 30 37  1  6  0  0  0
 31 32  1  0  0  0  0
 31 34  1  6  0  0  0
 32 33  1  0  0  0  0
 33 35  1  1  0  0  0
M  END
>  <CHROM.1>
-151.50193950,-63.73369474,-158.04001507,-176.48495536,66.44787232,133.22331192
19.16955442,-3.03574645,47.25440622,2.00591541,-0.23134899,-1.80280503

>  <Name>
2oe5_lig

>  <RI>
0

>  <Rbt.Current_Directory>
/home/itssahil/PROJECTS/Mol_Feturizer/New_Systems/rnas/2oe5

>  <Rbt.Executable>
rbdock ($Id: //depot/dev/client3/rdock/2013.1/src/exe/rbdock.cxx#4 $)

>  <Rbt.Library>
libRbt.so (2013.1, Build901 2013/11/27)

>  <Rbt.Parameter_File>
/export/apps/rDock/src/rDock_2013.1_src/data/scripts/dock_solv.prm

>  <Rbt.Receptor>
prm/blind_docking_100.prm

>  <SCORE>
-14.6311

>  <SCORE.INTER>
-15.5311

>  <SCORE.INTER.CONST>
1

>  <SCORE.INTER.POLAR>
-1.89674

>  <SCORE.INTER.ROT>
6

>  <SCORE.INTER.SOLV>
12.9804

>  <SCORE.INTER.VDW>
-15.9584

>  <SCORE.INTER.norm>
-0.41976

>  <SCORE.INTRA>
0.442118

>  <SCORE.INTRA.DIHEDRAL>
-4.1397

>  <SCORE.INTRA.DIHEDRAL.0>
16.2083

>  <SCORE.INTRA.POLAR>
0

>  <SCORE.INTRA.POLAR.0>
0

>  <SCORE.INTRA.REPUL>
0

>  <SCORE.INTRA.REPUL.0>
0

>  <SCORE.INTRA.SOLV>
1.52997

>  <SCORE.INTRA.SOLV.lig_0>
-89.8095

>  <SCORE.INTRA.VDW>
1.74698

>  <SCORE.INTRA.VDW.0>
-3.19502

>  <SCORE.INTRA.norm>
0.0119491

>  <SCORE.RESTR>
0.457894

>  <SCORE.RESTR.CAVITY>
0.457894

>  <SCORE.RESTR.norm>
0.0123755

>  <SCORE.SYSTEM>
0

>  <SCORE.SYSTEM.CONST>
0

>  <SCORE.SYSTEM.DIHEDRAL>
0

>  <SCORE.SYSTEM.SOLV>
0

>  <SCORE.SYSTEM.norm>
0

>  <SCORE.heavy>
37

>  <SCORE.norm>
-0.395436

>  <RMSD>
11.058

$$$$
2oe5_lig
 OpenBabel11021811463D
libRbt.so/2013.1/901 2013/11/27
 37 40  0  0  0  0  0  0  0  0999 V2000
   16.5309   -5.7186   45.3251 C   0  0  1  0  0  0  0  0  0  0  0  0
   15.8546   -5.9905   46.6874 C   0  0  1  0  0  0  0  0  0  0  0  0
   15.9725   -4.7073   47.5912 C   0  0  0  0  0  0  0  0  0  0  0  0
   17.4888   -4.4456   47.7322 C   0  0  1  0  0  0  0  0  0  0  0  0
   18.1698   -4.1723   46.3187 C   0  0  1  0  0  0  0  0  0  0  0  0
   19.6940   -3.8994   46.4388 C   0  0  1  0  0  0  0  0  0  0  0  0
   19.8583   -2.6562   47.3588 C   0  0  1  0  0  0  0  0  0  0  0  0
   19.1335   -2.9515   48.7265 C   0  0  2  0  0  0  0  0  0  0  0  0
   22.2078   -3.3160   48.3114 C   0  0  0  0  0  0  0  0  0  0  0  0
   14.4253   -6.3218   46.4857 N   0  0  0  0  0  0  0  0  0  0  0  0
   21.3229   -2.3494   47.5720 N   0  0  0  0  0  0  0  0  0  0  0  0
   15.8765   -4.6637   44.6012 O   0  0  0  0  0  0  0  0  0  0  0  0
   17.9458   -5.3455   45.4715 O   0  0  0  0  0  0  0  0  0  0  0  0
   17.7024   -3.2710   48.5600 O   0  0  0  0  0  0  0  0  0  0  0  0
   20.3069   -5.0626   47.0039 O   0  0  0  0  0  0  0  0  0  0  0  0
   19.2076   -1.8172   49.5674 O   0  0  0  0  0  0  0  0  0  0  0  0
   18.7524   -2.1424   50.8675 C   0  0  2  0  0  0  0  0  0  0  0  0
   19.1911   -1.1149   51.9102 C   0  0  1  0  0  0  0  0  0  0  0  0
   20.7376   -1.0863   52.0537 C   0  0  2  0  0  0  0  0  0  0  0  0
   21.2006   -2.5261   52.4258 C   0  0  1  0  0  0  0  0  0  0  0  0
   20.7488   -3.4940   51.2833 C   0  0  1  0  0  0  0  0  0  0  0  0
   21.1022   -4.9374   51.5647 C   0  0  0  0  0  0  0  0  0  0  0  0
   22.7049   -2.5085   52.5708 N   0  0  0  0  0  0  0  0  0  0  0  0
   19.2828   -3.4588   51.2193 O   0  0  0  0  0  0  0  0  0  0  0  0
   18.6913    0.1700   51.4894 O   0  0  0  0  0  0  0  0  0  0  0  0
   21.0696   -0.1818   53.1227 O   0  0  0  0  0  0  0  0  0  0  0  0
   20.5568   -5.7988   50.6248 O   0  0  0  0  0  0  0  0  0  0  0  0
   16.5835   -4.2248   43.4409 C   0  0  1  0  0  0  0  0  0  0  0  0
   16.5677   -5.3527   42.3480 C   0  0  1  0  0  0  0  0  0  0  0  0
   17.3391   -4.8421   41.0781 C   0  0  2  0  0  0  0  0  0  0  0  0
   16.6403   -3.5891   40.5291 C   0  0  1  0  0  0  0  0  0  0  0  0
   16.6696   -2.4525   41.6226 C   0  0  0  0  0  0  0  0  0  0  0  0
   15.9081   -2.9692   42.9062 C   0  0  2  0  0  0  0  0  0  0  0  0
   17.3519   -3.1380   39.3446 N   0  0  0  0  0  0  0  0  0  0  0  0
   15.9323   -1.9327   43.9716 N   0  0  0  0  0  0  0  0  0  0  0  0
   17.2289   -6.5433   42.8646 O   0  0  0  0  0  0  0  0  0  0  0  0
   17.3115   -5.8398   40.0922 O   0  0  0  0  0  0  0  0  0  0  0  0
  1  2  1  0  0  0  0
  1 12  1  1  0  0  0
  1 13  1  0  0  0  0
  2  3  1  0  0  0  0
  2 10  1  6  0  0  0
  4  3  1  6  0  0  0
  4  5  1  0  0  0  0
  4 14  1  0  0  0  0
  5  6  1  0  0  0  0
  5 13  1  6  0  0  0
  6  7  1  0  0  0  0
  6 15  1  1  0  0  0
  7  8  1  0  0  0  0
  7 11  1  1  0  0  0
  8 14  1  0  0  0  0
  8 16  1  1  0  0  0
  9 11  1  0  0  0  0
 17 16  1  6  0  0  0
 17 18  1  0  0  0  0
 17 24  1  0  0  0  0
 18 19  1  0  0  0  0
 18 25  1  6  0  0  0
 19 20  1  0  0  0  0
 19 26  1  1  0  0  0
 20 21  1  0  0  0  0
 20 23  1  6  0  0  0
 21 22  1  1  0  0  0
 21 24  1  0  0  0  0
 22 27  1  0  0  0  0
 28 12  1  1  0  0  0
 28 29  1  0  0  0  0
 28 33  1  0  0  0  0
 29 30  1  0  0  0  0
 29 36  1  1  0  0  0
 30 31  1  0  0  0  0
 30 37  1  6  0  0  0
 31 32  1  0  0  0  0
 31 34  1  6  0  0  0
 32 33  1  0  0  0  0
 33 35  1  1  0  0  0
M  END
>  <CHROM.1>
170.36660937,-65.25567738,-170.63850820,162.73859385,172.79764702,68.73531957
18.48842713,-3.64672289,47.09005909,2.43236184,-1.05392076,-1.01787337

>  <Name>
2oe5_lig

>  <RI>
0

>  <Rbt.Current_Directory>
/home/itssahil/PROJECTS/Mol_Feturizer/New_Systems/rnas/2oe5

>  <Rbt.Executable>
rbdock ($Id: //depot/dev/client3/rdock/2013.1/src/exe/rbdock.cxx#4 $)

>  <Rbt.Library>
libRbt.so (2013.1, Build901 2013/11/27)

>  <Rbt.Parameter_File>
/export/apps/rDock/src/rDock_2013.1_src/data/scripts/dock_solv.prm

>  <Rbt.Receptor>
prm/blind_docking_60.prm

>  <SCORE>
-24.7345

>  <SCORE.INTER>
-20.638

>  <SCORE.INTER.CONST>
1

>  <SCORE.INTER.POLAR>
-2.96494

>  <SCORE.INTER.ROT>
6

>  <SCORE.INTER.SOLV>
20.0863

>  <SCORE.INTER.VDW>
-18.171

>  <SCORE.INTER.norm>
-0.557783

>  <SCORE.INTRA>
-4.09653

>  <SCORE.INTRA.DIHEDRAL>
-13.2943

>  <SCORE.INTRA.DIHEDRAL.0>
16.2083

>  <SCORE.INTRA.POLAR>
0

>  <SCORE.INTRA.POLAR.0>
0

>  <SCORE.INTRA.REPUL>
0.0211356

>  <SCORE.INTRA.REPUL.0>
0

>  <SCORE.INTRA.SOLV>
-1.83811

>  <SCORE.INTRA.SOLV.lig_0>
-89.8095

>  <SCORE.INTRA.VDW>
3.36398

>  <SCORE.INTRA.VDW.0>
-3.19502

>  <SCORE.INTRA.norm>
-0.110717

>  <SCORE.RESTR>
0

>  <SCORE.RESTR.CAVITY>
0

>  <SCORE.RESTR.norm>
0

>  <SCORE.SYSTEM>
0

>  <SCORE.SYSTEM.CONST>
0

>  <SCORE.SYSTEM.DIHEDRAL>
0

>  <SCORE.SYSTEM.SOLV>
0

>  <SCORE.SYSTEM.norm>
0

>  <SCORE.heavy>
37

>  <SCORE.norm>
-0.6685

>  <RMSD>
11.062

$$$$
2oe5_lig
 OpenBabel11021811463D
libRbt.so/2013.1/901 2013/11/27
 37 40  0  0  0  0  0  0  0  0999 V2000
   15.7470   -5.4985   44.8588 C   0  0  1  0  0  0  0  0  0  0  0  0
   15.3877   -5.7567   46.3392 C   0  0  1  0  0  0  0  0  0  0  0  0
   15.8797   -4.5431   47.2124 C   0  0  0  0  0  0  0  0  0  0  0  0
   17.4062   -4.4692   46.9848 C   0  0  1  0  0  0  0  0  0  0  0  0
   17.7580   -4.2077   45.4538 C   0  0  1  0  0  0  0  0  0  0  0  0
   19.2886   -4.1226   45.2042 C   0  0  1  0  0  0  0  0  0  0  0  0
   19.8241   -2.9550   46.0809 C   0  0  1  0  0  0  0  0  0  0  0  0
   19.4164   -3.2308   47.5779 C   0  0  2  0  0  0  0  0  0  0  0  0
   22.0506   -3.5744   44.8472 C   0  0  0  0  0  0  0  0  0  0  0  0
   13.9216   -5.9067   46.4853 N   0  0  0  0  0  0  0  0  0  0  0  0
   21.3239   -2.8340   45.9369 N   0  0  0  0  0  0  0  0  0  0  0  0
   15.0772   -4.3390   44.3374 O   0  0  0  0  0  0  0  0  0  0  0  0
   17.1914   -5.3025   44.6634 O   0  0  0  0  0  0  0  0  0  0  0  0
   17.9585   -3.3708   47.7589 O   0  0  0  0  0  0  0  0  0  0  0  0
   19.8668   -5.3768   45.5796 O   0  0  0  0  0  0  0  0  0  0  0  0
   19.8324   -2.1567   48.3979 O   0  0  0  0  0  0  0  0  0  0  0  0
   20.0121   -2.6000   49.7299 C   0  0  2  0  0  0  0  0  0  0  0  0
   20.5024   -1.4844   50.6520 C   0  0  1  0  0  0  0  0  0  0  0  0
   21.9131   -0.9883   50.2315 C   0  0  2  0  0  0  0  0  0  0  0  0
   22.8676   -2.2189   50.2495 C   0  0  1  0  0  0  0  0  0  0  0  0
   22.3113   -3.2821   49.2463 C   0  0  1  0  0  0  0  0  0  0  0  0
   23.1359   -4.5497   49.2194 C   0  0  0  0  0  0  0  0  0  0  0  0
   24.2447   -1.7460   49.8443 N   0  0  0  0  0  0  0  0  0  0  0  0
   20.9836   -3.6927   49.7186 O   0  0  0  0  0  0  0  0  0  0  0  0
   19.5408   -0.4127   50.5848 O   0  0  0  0  0  0  0  0  0  0  0  0
   22.3539   -0.0221   51.2027 O   0  0  0  0  0  0  0  0  0  0  0  0
   23.1936   -5.1587   50.4637 O   0  0  0  0  0  0  0  0  0  0  0  0
   15.4111   -4.0301   42.9840 C   0  0  1  0  0  0  0  0  0  0  0  0
   16.7817   -3.2648   42.9338 C   0  0  1  0  0  0  0  0  0  0  0  0
   17.1335   -2.9482   41.4357 C   0  0  2  0  0  0  0  0  0  0  0  0
   17.2547   -4.2646   40.6533 C   0  0  1  0  0  0  0  0  0  0  0  0
   15.8734   -5.0252   40.6925 C   0  0  0  0  0  0  0  0  0  0  0  0
   15.5097   -5.3310   42.1987 C   0  0  2  0  0  0  0  0  0  0  0  0
   17.5987   -3.9590   39.2744 N   0  0  0  0  0  0  0  0  0  0  0  0
   14.2001   -6.0298   42.2808 N   0  0  0  0  0  0  0  0  0  0  0  0
   16.6716   -2.0159   43.6752 O   0  0  0  0  0  0  0  0  0  0  0  0
   18.3665   -2.2807   41.3849 O   0  0  0  0  0  0  0  0  0  0  0  0
  1  2  1  0  0  0  0
  1 12  1  1  0  0  0
  1 13  1  0  0  0  0
  2  3  1  0  0  0  0
  2 10  1  6  0  0  0
  4  3  1  6  0  0  0
  4  5  1  0  0  0  0
  4 14  1  0  0  0  0
  5  6  1  0  0  0  0
  5 13  1  6  0  0  0
  6  7  1  0  0  0  0
  6 15  1  1  0  0  0
  7  8  1  0  0  0  0
  7 11  1  1  0  0  0
  8 14  1  0  0  0  0
  8 16  1  1  0  0  0
  9 11  1  0  0  0  0
 17 16  1  6  0  0  0
 17 18  1  0  0  0  0
 17 24  1  0  0  0  0
 18 19  1  0  0  0  0
 18 25  1  6  0  0  0
 19 20  1  0  0  0  0
 19 26  1  1  0  0  0
 20 21  1  0  0  0  0
 20 23  1  6  0  0  0
 21 22  1  1  0  0  0
 21 24  1  0  0  0  0
 22 27  1  0  0  0  0
 28 12  1  1  0  0  0
 28 29  1  0  0  0  0
 28 33  1  0  0  0  0
 29 30  1  0  0  0  0
 29 36  1  1  0  0  0
 30 31  1  0  0  0  0
 30 37  1  1  0  0  0
 31 32  1  0  0  0  0
 31 34  1  6  0  0  0
 32 33  1  0  0  0  0
 33 35  1  6  0  0  0
M  END
>  <CHROM.1>
177.98297922,12.28928582,-154.79372579,178.31538917,59.25449197,-80.53558071
18.78363559,-3.57361894,46.15772244,2.27031008,-0.35554131,-1.56867978

>  <Name>
2oe5_lig

>  <RI>
0

>  <Rbt.Current_Directory>
/home/itssahil/PROJECTS/Mol_Feturizer/New_Systems/rnas/2oe5

>  <Rbt.Executable>
rbdock ($Id: //depot/dev/client3/rdock/2013.1/src/exe/rbdock.cxx#4 $)

>  <Rbt.Library>
libRbt.so (2013.1, Build901 2013/11/27)

>  <Rbt.Parameter_File>
/export/apps/rDock/src/rDock_2013.1_src/data/scripts/dock_solv.prm

>  <Rbt.Receptor>
prm/blind_docking_100.prm

>  <SCORE>
-18.4492

>  <SCORE.INTER>
-19.164

>  <SCORE.INTER.CONST>
1

>  <SCORE.INTER.POLAR>
-2.36363

>  <SCORE.INTER.ROT>
6

>  <SCORE.INTER.SOLV>
16.7907

>  <SCORE.INTER.VDW>
-18.0941

>  <SCORE.INTER.norm>
-0.517946

>  <SCORE.INTRA>
0.714822

>  <SCORE.INTRA.DIHEDRAL>
-10.4225

>  <SCORE.INTRA.DIHEDRAL.0>
16.2083

>  <SCORE.INTRA.POLAR>
0

>  <SCORE.INTRA.POLAR.0>
0

>  <SCORE.INTRA.REPUL>
0

>  <SCORE.INTRA.REPUL.0>
0

>  <SCORE.INTRA.SOLV>
-0.251484

>  <SCORE.INTRA.SOLV.lig_0>
-89.8095

>  <SCORE.INTRA.VDW>
6.05182

>  <SCORE.INTRA.VDW.0>
-3.19502

>  <SCORE.INTRA.norm>
0.0193195

>  <SCORE.RESTR>
0

>  <SCORE.RESTR.CAVITY>
0

>  <SCORE.RESTR.norm>
0

>  <SCORE.SYSTEM>
0

>  <SCORE.SYSTEM.CONST>
0

>  <SCORE.SYSTEM.DIHEDRAL>
0

>  <SCORE.SYSTEM.SOLV>
0

>  <SCORE.SYSTEM.norm>
0

>  <SCORE.heavy>
37

>  <SCORE.norm>
-0.498627

>  <RMSD>
11.090

$$$$
2oe5_lig
 OpenBabel11021811463D
libRbt.so/2013.1/901 2013/11/27
 37 40  0  0  0  0  0  0  0  0999 V2000
   17.8319   -5.1234   44.7008 C   0  0  1  0  0  0  0  0  0  0  0  0
   16.9205   -5.1994   45.9461 C   0  0  1  0  0  0  0  0  0  0  0  0
   17.1474   -3.9203   46.8348 C   0  0  0  0  0  0  0  0  0  0  0  0
   18.6473   -3.9417   47.2051 C   0  0  1  0  0  0  0  0  0  0  0  0
   19.5713   -3.8677   45.9101 C   0  0  1  0  0  0  0  0  0  0  0  0
   21.0843   -3.8806   46.2608 C   0  0  1  0  0  0  0  0  0  0  0  0
   21.3461   -2.6488   47.1733 C   0  0  1  0  0  0  0  0  0  0  0  0
   20.3822   -2.7383   48.4167 C   0  0  2  0  0  0  0  0  0  0  0  0
   23.3828   -1.3653   48.2065 C   0  0  0  0  0  0  0  0  0  0  0  0
   15.5005   -5.2653   45.5305 N   0  0  0  0  0  0  0  0  0  0  0  0
   22.7938   -2.6130   47.6062 N   0  0  0  0  0  0  0  0  0  0  0  0
   17.5087   -3.9994   43.8659 O   0  0  0  0  0  0  0  0  0  0  0  0
   19.2543   -5.0163   45.0588 O   0  0  0  0  0  0  0  0  0  0  0  0
   18.9575   -2.7907   48.0355 O   0  0  0  0  0  0  0  0  0  0  0  0
   21.3701   -5.1106   46.9344 O   0  0  0  0  0  0  0  0  0  0  0  0
   20.5473   -1.6000   49.2391 O   0  0  0  0  0  0  0  0  0  0  0  0
   20.1434   -1.8918   50.5638 C   0  0  2  0  0  0  0  0  0  0  0  0
   20.2672   -0.6813   51.4885 C   0  0  1  0  0  0  0  0  0  0  0  0
   21.7489   -0.2401   51.6399 C   0  0  2  0  0  0  0  0  0  0  0  0
   22.5504   -1.4641   52.1742 C   0  0  1  0  0  0  0  0  0  0  0  0
   22.4022   -2.6313   51.1436 C   0  0  1  0  0  0  0  0  0  0  0  0
   23.1019   -3.8966   51.5873 C   0  0  0  0  0  0  0  0  0  0  0  0
   23.9940   -1.0441   52.3279 N   0  0  0  0  0  0  0  0  0  0  0  0
   20.9791   -2.9820   51.0647 O   0  0  0  0  0  0  0  0  0  0  0  0
   19.4716    0.3792   50.9228 O   0  0  0  0  0  0  0  0  0  0  0  0
   21.8001    0.8275   52.6035 O   0  0  0  0  0  0  0  0  0  0  0  0
   22.6649   -4.3229   52.8323 O   0  0  0  0  0  0  0  0  0  0  0  0
   16.2681   -4.1253   43.1704 C   0  0  1  0  0  0  0  0  0  0  0  0
   15.8255   -2.7259   42.6112 C   0  0  1  0  0  0  0  0  0  0  0  0
   14.4669   -2.8924   41.8399 C   0  0  2  0  0  0  0  0  0  0  0  0
   14.6625   -3.8706   40.6717 C   0  0  1  0  0  0  0  0  0  0  0  0
   15.0931   -5.2793   41.2359 C   0  0  0  0  0  0  0  0  0  0  0  0
   16.4509   -5.1119   42.0251 C   0  0  2  0  0  0  0  0  0  0  0  0
   13.4043   -4.0013   39.9556 N   0  0  0  0  0  0  0  0  0  0  0  0
   16.8808   -6.4167   42.5931 N   0  0  0  0  0  0  0  0  0  0  0  0
   15.6394   -1.7947   43.7156 O   0  0  0  0  0  0  0  0  0  0  0  0
   14.0771   -1.6478   41.3227 O   0  0  0  0  0  0  0  0  0  0  0  0
  1  2  1  0  0  0  0
  1 12  1  1  0  0  0
  1 13  1  0  0  0  0
  2  3  1  0  0  0  0
  2 10  1  6  0  0  0
  4  3  1  6  0  0  0
  4  5  1  0  0  0  0
  4 14  1  0  0  0  0
  5  6  1  0  0  0  0
  5 13  1  6  0  0  0
  6  7  1  0  0  0  0
  6 15  1  1  0  0  0
  7  8  1  0  0  0  0
  7 11  1  1  0  0  0
  8 14  1  0  0  0  0
  8 16  1  1  0  0  0
  9 11  1  0  0  0  0
 17 16  1  6  0  0  0
 17 18  1  0  0  0  0
 17 24  1  0  0  0  0
 18 19  1  0  0  0  0
 18 25  1  6  0  0  0
 19 20  1  0  0  0  0
 19 26  1  1  0  0  0
 20 21  1  0  0  0  0
 20 23  1  6  0  0  0
 21 22  1  1  0  0  0
 21 24  1  0  0  0  0
 22 27  1  0  0  0  0
 28 12  1  6  0  0  0
 28 29  1  0  0  0  0
 28 33  1  0  0  0  0
 29 30  1  0  0  0  0
 29 36  1  1  0  0  0
 30 31  1  0  0  0  0
 30 37  1  6  0  0  0
 31 32  1  0  0  0  0
 31 34  1  1  0  0  0
 32 33  1  0  0  0  0
 33 35  1  1  0  0  0
M  END
>  <CHROM.1>
-70.85061004,165.04734186,-156.17182795,-178.49307673,56.04395178,164.79968639
19.05593771,-3.07834143,46.92392286,-2.44029962,-0.70641646,0.66709859

>  <Name>
2oe5_lig

>  <RI>
0

>  <Rbt.Current_Directory>
/home/itssahil/PROJECTS/Mol_Feturizer/New_Systems/rnas/2oe5

>  <Rbt.Executable>
rbdock ($Id: //depot/dev/client3/rdock/2013.1/src/exe/rbdock.cxx#4 $)

>  <Rbt.Library>
libRbt.so (2013.1, Build901 2013/11/27)

>  <Rbt.Parameter_File>
/export/apps/rDock/src/rDock_2013.1_src/data/scripts/dock_solv.prm

>  <Rbt.Receptor>
prm/blind_docking_60.prm

>  <SCORE>
-20.1994

>  <SCORE.INTER>
-17.4524

>  <SCORE.INTER.CONST>
1

>  <SCORE.INTER.POLAR>
-2.2096

>  <SCORE.INTER.ROT>
6

>  <SCORE.INTER.SOLV>
10.2697

>  <SCORE.INTER.VDW>
-15.2928

>  <SCORE.INTER.norm>
-0.471686

>  <SCORE.INTRA>
-2.74699

>  <SCORE.INTRA.DIHEDRAL>
-11.789

>  <SCORE.INTRA.DIHEDRAL.0>
16.2083

>  <SCORE.INTRA.POLAR>
0

>  <SCORE.INTRA.POLAR.0>
0

>  <SCORE.INTRA.REPUL>
0

>  <SCORE.INTRA.REPUL.0>
0

>  <SCORE.INTRA.SOLV>
3.22139

>  <SCORE.INTRA.SOLV.lig_0>
-89.8095

>  <SCORE.INTRA.VDW>
1.53683

>  <SCORE.INTRA.VDW.0>
-3.19502

>  <SCORE.INTRA.norm>
-0.074243

>  <SCORE.RESTR>
0

>  <SCORE.RESTR.CAVITY>
0

>  <SCORE.RESTR.norm>
0

>  <SCORE.SYSTEM>
0

>  <SCORE.SYSTEM.CONST>
0

>  <SCORE.SYSTEM.DIHEDRAL>
0

>  <SCORE.SYSTEM.SOLV>
0

>  <SCORE.SYSTEM.norm>
0

>  <SCORE.heavy>
37

>  <SCORE.norm>
-0.545929

>  <RMSD>
11.093

$$$$
2oe5_lig
 OpenBabel11021811463D
libRbt.so/2013.1/901 2013/11/27
 37 40  0  0  0  0  0  0  0  0999 V2000
   17.8689   -5.1889   44.6655 C   0  0  1  0  0  0  0  0  0  0  0  0
   16.9496   -5.2626   45.9052 C   0  0  1  0  0  0  0  0  0  0  0  0
   17.1669   -3.9793   46.7901 C   0  0  0  0  0  0  0  0  0  0  0  0
   18.6645   -3.9947   47.1703 C   0  0  1  0  0  0  0  0  0  0  0  0
   19.5966   -3.9231   45.8809 C   0  0  1  0  0  0  0  0  0  0  0  0
   21.1073   -3.9301   46.2415 C   0  0  1  0  0  0  0  0  0  0  0  0
   21.3595   -2.6938   47.1508 C   0  0  1  0  0  0  0  0  0  0  0  0
   20.3879   -2.7812   48.3883 C   0  0  2  0  0  0  0  0  0  0  0  0
   23.3961   -1.3886   48.1564 C   0  0  0  0  0  0  0  0  0  0  0  0
   15.5325   -5.3345   45.4807 N   0  0  0  0  0  0  0  0  0  0  0  0
   22.8043   -2.6519   47.5929 N   0  0  0  0  0  0  0  0  0  0  0  0
   17.5477   -4.0692   43.8240 O   0  0  0  0  0  0  0  0  0  0  0  0
   19.2886   -5.0761   45.0323 O   0  0  0  0  0  0  0  0  0  0  0  0
   18.9658   -2.8395   47.9980 O   0  0  0  0  0  0  0  0  0  0  0  0
   21.3924   -5.1565   46.9219 O   0  0  0  0  0  0  0  0  0  0  0  0
   20.5441   -1.6392   49.2071 O   0  0  0  0  0  0  0  0  0  0  0  0
   20.1400   -1.9291   50.5321 C   0  0  2  0  0  0  0  0  0  0  0  0
   20.2207   -0.7059   51.4446 C   0  0  1  0  0  0  0  0  0  0  0  0
   21.6873   -0.2185   51.6012 C   0  0  2  0  0  0  0  0  0  0  0  0
   22.5216   -1.4119   52.1539 C   0  0  1  0  0  0  0  0  0  0  0  0
   22.4160   -2.5938   51.1349 C   0  0  1  0  0  0  0  0  0  0  0  0
   23.1505   -3.8326   51.5968 C   0  0  0  0  0  0  0  0  0  0  0  0
   23.9508   -0.9468   52.3127 N   0  0  0  0  0  0  0  0  0  0  0  0
   21.0047   -2.9882   51.0502 O   0  0  0  0  0  0  0  0  0  0  0  0
   19.3974    0.3241   50.8623 O   0  0  0  0  0  0  0  0  0  0  0  0
   21.6994    0.8603   52.5537 O   0  0  0  0  0  0  0  0  0  0  0  0
   22.8084   -4.1867   52.8930 O   0  0  0  0  0  0  0  0  0  0  0  0
   16.2862   -4.1768   43.1639 C   0  0  1  0  0  0  0  0  0  0  0  0
   15.8440   -2.7691   42.6255 C   0  0  1  0  0  0  0  0  0  0  0  0
   14.4619   -2.9155   41.8928 C   0  0  2  0  0  0  0  0  0  0  0  0
   14.6125   -3.8890   40.7141 C   0  0  1  0  0  0  0  0  0  0  0  0
   15.0427   -5.3058   41.2577 C   0  0  0  0  0  0  0  0  0  0  0  0
   16.4245   -5.1587   42.0083 C   0  0  2  0  0  0  0  0  0  0  0  0
   13.3327   -4.0010   40.0338 N   0  0  0  0  0  0  0  0  0  0  0  0
   16.8554   -6.4716   42.5564 N   0  0  0  0  0  0  0  0  0  0  0  0
   15.7006   -1.8424   43.7400 O   0  0  0  0  0  0  0  0  0  0  0  0
   14.0719   -1.6635   41.3941 O   0  0  0  0  0  0  0  0  0  0  0  0
  1  2  1  0  0  0  0
  1 12  1  1  0  0  0
  1 13  1  0  0  0  0
  2  3  1  0  0  0  0
  2 10  1  6  0  0  0
  4  3  1  6  0  0  0
  4  5  1  0  0  0  0
  4 14  1  0  0  0  0
  5  6  1  0  0  0  0
  5 13  1  6  0  0  0
  6  7  1  0  0  0  0
  6 15  1  1  0  0  0
  7  8  1  0  0  0  0
  7 11  1  1  0  0  0
  8 14  1  0  0  0  0
  8 16  1  1  0  0  0
  9 11  1  0  0  0  0
 17 16  1  6  0  0  0
 17 18  1  0  0  0  0
 17 24  1  0  0  0  0
 18 19  1  0  0  0  0
 18 25  1  6  0  0  0
 19 20  1  0  0  0  0
 19 26  1  1  0  0  0
 20 21  1  0  0  0  0
 20 23  1  6  0  0  0
 21 22  1  1  0  0  0
 21 24  1  0  0  0  0
 22 27  1  0  0  0  0
 28 12  1  6  0  0  0
 28 29  1  0  0  0  0
 28 33  1  0  0  0  0
 29 30  1  0  0  0  0
 29 36  1  1  0  0  0
 30 31  1  0  0  0  0
 30 37  1  6  0  0  0
 31 32  1  0  0  0  0
 31 34  1  1  0  0  0
 32 33  1  0  0  0  0
 33 35  1  1  0  0  0
M  END
>  <CHROM.1>
-68.39088789,163.32798433,-155.82638983,-177.03841376,50.42605106,163.53287948
19.05826866,-3.10062713,46.91088912,-2.42814297,-0.69155619,0.68020443

>  <Name>
2oe5_lig

>  <RI>
0

>  <Rbt.Current_Directory>
/home/itssahil/PROJECTS/Mol_Feturizer/New_Systems/rnas/2oe5

>  <Rbt.Executable>
rbdock ($Id: //depot/dev/client3/rdock/2013.1/src/exe/rbdock.cxx#4 $)

>  <Rbt.Library>
libRbt.so (2013.1, Build901 2013/11/27)

>  <Rbt.Parameter_File>
/export/apps/rDock/src/rDock_2013.1_src/data/scripts/dock_solv.prm

>  <Rbt.Receptor>
prm/blind_docking_60.prm

>  <SCORE>
-20.1379

>  <SCORE.INTER>
-17.6506

>  <SCORE.INTER.CONST>
1

>  <SCORE.INTER.POLAR>
-2.27062

>  <SCORE.INTER.ROT>
6

>  <SCORE.INTER.SOLV>
10.0685

>  <SCORE.INTER.VDW>
-15.1545

>  <SCORE.INTER.norm>
-0.477042

>  <SCORE.INTRA>
-2.48737

>  <SCORE.INTRA.DIHEDRAL>
-11.4295

>  <SCORE.INTRA.DIHEDRAL.0>
16.2083

>  <SCORE.INTRA.POLAR>
0

>  <SCORE.INTRA.POLAR.0>
0

>  <SCORE.INTRA.REPUL>
0

>  <SCORE.INTRA.REPUL.0>
0

>  <SCORE.INTRA.SOLV>
3.40623

>  <SCORE.INTRA.SOLV.lig_0>
-89.8095

>  <SCORE.INTRA.VDW>
1.52426

>  <SCORE.INTRA.VDW.0>
-3.19502

>  <SCORE.INTRA.norm>
-0.0672261

>  <SCORE.RESTR>
0

>  <SCORE.RESTR.CAVITY>
0

>  <SCORE.RESTR.norm>
0

>  <SCORE.SYSTEM>
0

>  <SCORE.SYSTEM.CONST>
0

>  <SCORE.SYSTEM.DIHEDRAL>
0

>  <SCORE.SYSTEM.SOLV>
0

>  <SCORE.SYSTEM.norm>
0

>  <SCORE.heavy>
37

>  <SCORE.norm>
-0.544268

>  <RMSD>
11.099

$$$$
2oe5_lig
 OpenBabel11021811463D
libRbt.so/2013.1/901 2013/11/27
 37 40  0  0  0  0  0  0  0  0999 V2000
   17.4038   -5.4772   45.3868 C   0  0  1  0  0  0  0  0  0  0  0  0
   16.6743   -5.6095   46.7424 C   0  0  1  0  0  0  0  0  0  0  0  0
   16.9767   -4.3393   47.6211 C   0  0  0  0  0  0  0  0  0  0  0  0
   18.5131   -4.3119   47.7835 C   0  0  1  0  0  0  0  0  0  0  0  0
   19.2482   -4.1802   46.3769 C   0  0  1  0  0  0  0  0  0  0  0  0
   20.7945   -4.1435   46.5182 C   0  0  1  0  0  0  0  0  0  0  0  0
   21.1364   -2.9196   47.4148 C   0  0  1  0  0  0  0  0  0  0  0  0
   20.3552   -3.0672   48.7753 C   0  0  2  0  0  0  0  0  0  0  0  0
   23.2462   -1.5915   48.2195 C   0  0  0  0  0  0  0  0  0  0  0  0
   15.2139   -5.7204   46.5223 N   0  0  0  0  0  0  0  0  0  0  0  0
   22.6276   -2.8381   47.6475 N   0  0  0  0  0  0  0  0  0  0  0  0
   16.9313   -4.3510   44.6297 O   0  0  0  0  0  0  0  0  0  0  0  0
   18.8573   -5.3241   45.5505 O   0  0  0  0  0  0  0  0  0  0  0  0
   18.8943   -3.1654   48.5903 O   0  0  0  0  0  0  0  0  0  0  0  0
   21.2116   -5.3740   47.1182 O   0  0  0  0  0  0  0  0  0  0  0  0
   20.5921   -1.9387   49.5936 O   0  0  0  0  0  0  0  0  0  0  0  0
   20.1559   -2.1938   50.9157 C   0  0  2  0  0  0  0  0  0  0  0  0
   19.9465   -0.9088   51.7160 C   0  0  1  0  0  0  0  0  0  0  0  0
   21.2841   -0.1424   51.9069 C   0  0  2  0  0  0  0  0  0  0  0  0
   22.2823   -1.1093   52.6103 C   0  0  1  0  0  0  0  0  0  0  0  0
   22.4671   -2.3668   51.6989 C   0  0  1  0  0  0  0  0  0  0  0  0
   23.3821   -3.4041   52.3108 C   0  0  0  0  0  0  0  0  0  0  0  0
   23.5871   -0.3716   52.8034 N   0  0  0  0  0  0  0  0  0  0  0  0
   21.1617   -3.0261   51.5741 O   0  0  0  0  0  0  0  0  0  0  0  0
   18.9912   -0.1023   50.9986 O   0  0  0  0  0  0  0  0  0  0  0  0
   21.0312    0.9912   52.7565 O   0  0  0  0  0  0  0  0  0  0  0  0
   22.9466   -3.8067   53.5642 O   0  0  0  0  0  0  0  0  0  0  0  0
   17.3980   -4.3161   43.2807 C   0  0  1  0  0  0  0  0  0  0  0  0
   16.4070   -5.1057   42.3526 C   0  0  1  0  0  0  0  0  0  0  0  0
   16.9341   -5.0417   40.8739 C   0  0  2  0  0  0  0  0  0  0  0  0
   16.9994   -3.5754   40.4209 C   0  0  1  0  0  0  0  0  0  0  0  0
   18.0057   -2.7870   41.3449 C   0  0  0  0  0  0  0  0  0  0  0  0
   17.4865   -2.8629   42.8346 C   0  0  2  0  0  0  0  0  0  0  0  0
   17.4700   -3.5312   39.0463 N   0  0  0  0  0  0  0  0  0  0  0  0
   18.4215   -2.1486   43.7431 N   0  0  0  0  0  0  0  0  0  0  0  0
   16.3415   -6.4969   42.7790 O   0  0  0  0  0  0  0  0  0  0  0  0
   16.0419   -5.7304   40.0384 O   0  0  0  0  0  0  0  0  0  0  0  0
  1  2  1  0  0  0  0
  1 12  1  1  0  0  0
  1 13  1  0  0  0  0
  2  3  1  0  0  0  0
  2 10  1  6  0  0  0
  4  3  1  6  0  0  0
  4  5  1  0  0  0  0
  4 14  1  0  0  0  0
  5  6  1  0  0  0  0
  5 13  1  6  0  0  0
  6  7  1  0  0  0  0
  6 15  1  1  0  0  0
  7  8  1  0  0  0  0
  7 11  1  1  0  0  0
  8 14  1  0  0  0  0
  8 16  1  1  0  0  0
  9 11  1  0  0  0  0
 17 16  1  6  0  0  0
 17 18  1  0  0  0  0
 17 24  1  0  0  0  0
 18 19  1  0  0  0  0
 18 25  1  6  0  0  0
 19 20  1  0  0  0  0
 19 26  1  1  0  0  0
 20 21  1  0  0  0  0
 20 23  1  6  0  0  0
 21 22  1  1  0  0  0
 21 24  1  0  0  0  0
 22 27  1  0  0  0  0
 28 12  1  1  0  0  0
 28 29  1  0  0  0  0
 28 33  1  0  0  0  0
 29 30  1  0  0  0  0
 29 36  1  1  0  0  0
 30 31  1  0  0  0  0
 30 37  1  6  0  0  0
 31 32  1  0  0  0  0
 31 34  1  6  0  0  0
 32 33  1  0  0  0  0
 33 35  1  1  0  0  0
M  END
>  <CHROM.1>
-169.58025676,166.41896765,-166.65148495,-160.83491103,56.19827127,89.04491172
19.40394416,-3.30973994,47.17890383,2.21387013,-0.76390407,-1.39530111

>  <Name>
2oe5_lig

>  <RI>
0

>  <Rbt.Current_Directory>
/home/itssahil/PROJECTS/Mol_Feturizer/New_Systems/rnas/2oe5

>  <Rbt.Executable>
rbdock ($Id: //depot/dev/client3/rdock/2013.1/src/exe/rbdock.cxx#4 $)

>  <Rbt.Library>
libRbt.so (2013.1, Build901 2013/11/27)

>  <Rbt.Parameter_File>
/export/apps/rDock/src/rDock_2013.1_src/data/scripts/dock_solv.prm

>  <Rbt.Receptor>
prm/blind_docking_100.prm

>  <SCORE>
-23.7463

>  <SCORE.INTER>
-18.605

>  <SCORE.INTER.CONST>
1

>  <SCORE.INTER.POLAR>
-2.42603

>  <SCORE.INTER.ROT>
6

>  <SCORE.INTER.SOLV>
15.9263

>  <SCORE.INTER.VDW>
-17.2253

>  <SCORE.INTER.norm>
-0.502837

>  <SCORE.INTRA>
-5.31927

>  <SCORE.INTRA.DIHEDRAL>
-9.4749

>  <SCORE.INTRA.DIHEDRAL.0>
16.2083

>  <SCORE.INTRA.POLAR>
0

>  <SCORE.INTRA.POLAR.0>
0

>  <SCORE.INTRA.REPUL>
0

>  <SCORE.INTRA.REPUL.0>
0

>  <SCORE.INTRA.SOLV>
-0.939095

>  <SCORE.INTRA.SOLV.lig_0>
-89.8095

>  <SCORE.INTRA.VDW>
-0.112275

>  <SCORE.INTRA.VDW.0>
-3.19502

>  <SCORE.INTRA.norm>
-0.143764

>  <SCORE.RESTR>
0.177987

>  <SCORE.RESTR.CAVITY>
0.177987

>  <SCORE.RESTR.norm>
0.00481047

>  <SCORE.SYSTEM>
0

>  <SCORE.SYSTEM.CONST>
0

>  <SCORE.SYSTEM.DIHEDRAL>
0

>  <SCORE.SYSTEM.SOLV>
0

>  <SCORE.SYSTEM.norm>
0

>  <SCORE.heavy>
37

>  <SCORE.norm>
-0.641791

>  <RMSD>
11.106

$$$$
2oe5_lig
 OpenBabel11021811463D
libRbt.so/2013.1/901 2013/11/27
 37 40  0  0  0  0  0  0  0  0999 V2000
   15.3236   -5.1825   44.5958 C   0  0  1  0  0  0  0  0  0  0  0  0
   14.8445   -5.6749   45.9798 C   0  0  1  0  0  0  0  0  0  0  0  0
   15.6401   -4.9151   47.1053 C   0  0  0  0  0  0  0  0  0  0  0  0
   17.1272   -5.2467   46.8486 C   0  0  1  0  0  0  0  0  0  0  0  0
   17.6021   -4.7367   45.4166 C   0  0  1  0  0  0  0  0  0  0  0  0
   19.0974   -5.0539   45.1412 C   0  0  1  0  0  0  0  0  0  0  0  0
   19.9206   -4.3503   46.2574 C   0  0  1  0  0  0  0  0  0  0  0  0
   19.3894   -4.8486   47.6549 C   0  0  2  0  0  0  0  0  0  0  0  0
   22.2546   -3.7965   45.2046 C   0  0  0  0  0  0  0  0  0  0  0  0
   13.3956   -5.4116   46.1368 N   0  0  0  0  0  0  0  0  0  0  0  0
   21.3928   -4.6509   46.0942 N   0  0  0  0  0  0  0  0  0  0  0  0
   15.0509   -3.7855   44.3983 O   0  0  0  0  0  0  0  0  0  0  0  0
   16.7674   -5.3849   44.4030 O   0  0  0  0  0  0  0  0  0  0  0  0
   17.9499   -4.5869   47.8478 O   0  0  0  0  0  0  0  0  0  0  0  0
   19.2604   -6.4752   45.1773 O   0  0  0  0  0  0  0  0  0  0  0  0
   20.0730   -4.1817   48.6975 O   0  0  0  0  0  0  0  0  0  0  0  0
   20.1123   -4.9955   49.8547 C   0  0  2  0  0  0  0  0  0  0  0  0
   19.3883   -4.3561   51.0391 C   0  0  1  0  0  0  0  0  0  0  0  0
   20.0902   -3.0435   51.4834 C   0  0  2  0  0  0  0  0  0  0  0  0
   21.5682   -3.3950   51.8266 C   0  0  1  0  0  0  0  0  0  0  0  0
   22.2359   -3.9971   50.5467 C   0  0  1  0  0  0  0  0  0  0  0  0
   23.6675   -4.4257   50.7795 C   0  0  0  0  0  0  0  0  0  0  0  0
   22.2596   -2.1240   52.2632 N   0  0  0  0  0  0  0  0  0  0  0  0
   21.5138   -5.2273   50.2008 O   0  0  0  0  0  0  0  0  0  0  0  0
   18.0307   -4.0983   50.6291 O   0  0  0  0  0  0  0  0  0  0  0  0
   19.4236   -2.5587   52.6631 O   0  0  0  0  0  0  0  0  0  0  0  0
   24.2596   -4.9099   49.6230 O   0  0  0  0  0  0  0  0  0  0  0  0
   15.4213   -3.2939   43.1099 C   0  0  1  0  0  0  0  0  0  0  0  0
   16.9827   -3.1484   43.0229 C   0  0  1  0  0  0  0  0  0  0  0  0
   17.3660   -2.6196   41.5940 C   0  0  2  0  0  0  0  0  0  0  0  0
   16.8868   -3.6242   40.5352 C   0  0  1  0  0  0  0  0  0  0  0  0
   15.3172   -3.7584   40.6143 C   0  0  0  0  0  0  0  0  0  0  0  0
   14.9281   -4.2751   42.0551 C   0  0  2  0  0  0  0  0  0  0  0  0
   17.2639   -3.1328   39.2201 N   0  0  0  0  0  0  0  0  0  0  0  0
   13.4514   -4.3944   42.1783 N   0  0  0  0  0  0  0  0  0  0  0  0
   17.4417   -2.1971   44.0258 O   0  0  0  0  0  0  0  0  0  0  0  0
   18.7615   -2.5057   41.5057 O   0  0  0  0  0  0  0  0  0  0  0  0
  1  2  1  0  0  0  0
  1 12  1  1  0  0  0
  1 13  1  0  0  0  0
  2  3  1  0  0  0  0
  2 10  1  1  0  0  0
  4  3  1  1  0  0  0
  4  5  1  0  0  0  0
  4 14  1  0  0  0  0
  5  6  1  0  0  0  0
  5 13  1  6  0  0  0
  6  7  1  0  0  0  0
  6 15  1  1  0  0  0
  7  8  1  0  0  0  0
  7 11  1  6  0  0  0
  8 14  1  0  0  0  0
  8 16  1  1  0  0  0
  9 11  1  0  0  0  0
 17 16  1  6  0  0  0
 17 18  1  0  0  0  0
 17 24  1  0  0  0  0
 18 19  1  0  0  0  0
 18 25  1  6  0  0  0
 19 20  1  0  0  0  0
 19 26  1  1  0  0  0
 20 21  1  0  0  0  0
 20 23  1  6  0  0  0
 21 22  1  1  0  0  0
 21 24  1  0  0  0  0
 22 27  1  0  0  0  0
 28 12  1  1  0  0  0
 28 29  1  0  0  0  0
 28 33  1  0  0  0  0
 29 30  1  0  0  0  0
 29 36  1  1  0  0  0
 30 31  1  0  0  0  0
 30 37  1  1  0  0  0
 31 32  1  0  0  0  0
 31 34  1  6  0  0  0
 32 33  1  0  0  0  0
 33 35  1  6  0  0  0
M  END
>  <CHROM.1>
-177.36832675,87.05869696,-152.11323100,-118.07927208,-177.72669588,-74.44579570
18.45696339,-4.16958562,46.40584620,2.14800631,-0.11576712,-1.48862522

>  <Name>
2oe5_lig

>  <RI>
0

>  <Rbt.Current_Directory>
/home/itssahil/PROJECTS/Mol_Feturizer/New_Systems/rnas/2oe5

>  <Rbt.Executable>
rbdock ($Id: //depot/dev/client3/rdock/2013.1/src/exe/rbdock.cxx#4 $)

>  <Rbt.Library>
libRbt.so (2013.1, Build901 2013/11/27)

>  <Rbt.Parameter_File>
/export/apps/rDock/src/rDock_2013.1_src/data/scripts/dock_solv.prm

>  <Rbt.Receptor>
prm/blind_docking_80.prm

>  <SCORE>
-24.9211

>  <SCORE.INTER>
-24.4511

>  <SCORE.INTER.CONST>
1

>  <SCORE.INTER.POLAR>
-3.27434

>  <SCORE.INTER.ROT>
6

>  <SCORE.INTER.SOLV>
14.7821

>  <SCORE.INTER.VDW>
-17.9136

>  <SCORE.INTER.norm>
-0.66084

>  <SCORE.INTRA>
-0.469988

>  <SCORE.INTRA.DIHEDRAL>
-4.22177

>  <SCORE.INTRA.DIHEDRAL.0>
16.2083

>  <SCORE.INTRA.POLAR>
0

>  <SCORE.INTRA.POLAR.0>
0

>  <SCORE.INTRA.REPUL>
0

>  <SCORE.INTRA.REPUL.0>
0

>  <SCORE.INTRA.SOLV>
-1.34808

>  <SCORE.INTRA.SOLV.lig_0>
-89.8095

>  <SCORE.INTRA.VDW>
2.31494

>  <SCORE.INTRA.VDW.0>
-3.19502

>  <SCORE.INTRA.norm>
-0.0127024

>  <SCORE.RESTR>
0

>  <SCORE.RESTR.CAVITY>
0

>  <SCORE.RESTR.norm>
0

>  <SCORE.SYSTEM>
0

>  <SCORE.SYSTEM.CONST>
0

>  <SCORE.SYSTEM.DIHEDRAL>
0

>  <SCORE.SYSTEM.SOLV>
0

>  <SCORE.SYSTEM.norm>
0

>  <SCORE.heavy>
37

>  <SCORE.norm>
-0.673542

>  <RMSD>
11.117

$$$$
2oe5_lig
 OpenBabel11021811463D
libRbt.so/2013.1/901 2013/11/27
 37 40  0  0  0  0  0  0  0  0999 V2000
   17.4252   -5.4146   45.3440 C   0  0  1  0  0  0  0  0  0  0  0  0
   16.6351   -5.5006   46.6690 C   0  0  1  0  0  0  0  0  0  0  0  0
   16.9269   -4.2171   47.5319 C   0  0  0  0  0  0  0  0  0  0  0  0
   18.4550   -4.2181   47.7606 C   0  0  1  0  0  0  0  0  0  0  0  0
   19.2530   -4.1340   46.3849 C   0  0  1  0  0  0  0  0  0  0  0  0
   20.7921   -4.1264   46.5929 C   0  0  1  0  0  0  0  0  0  0  0  0
   21.1216   -2.8896   47.4764 C   0  0  1  0  0  0  0  0  0  0  0  0
   20.2792   -2.9897   48.8044 C   0  0  2  0  0  0  0  0  0  0  0  0
   23.2264   -1.5814   48.3256 C   0  0  0  0  0  0  0  0  0  0  0  0
   15.1835   -5.5860   46.3878 N   0  0  0  0  0  0  0  0  0  0  0  0
   22.6028   -2.8339   47.7722 N   0  0  0  0  0  0  0  0  0  0  0  0
   17.0105   -4.2965   44.5423 O   0  0  0  0  0  0  0  0  0  0  0  0
   18.8732   -5.2882   45.5676 O   0  0  0  0  0  0  0  0  0  0  0  0
   18.8260   -3.0616   48.5579 O   0  0  0  0  0  0  0  0  0  0  0  0
   21.1559   -5.3513   47.2374 O   0  0  0  0  0  0  0  0  0  0  0  0
   20.5051   -1.8480   49.6073 O   0  0  0  0  0  0  0  0  0  0  0  0
   19.9541   -2.0407   50.8966 C   0  0  2  0  0  0  0  0  0  0  0  0
   19.9845   -0.7650   51.7376 C   0  0  1  0  0  0  0  0  0  0  0  0
   21.4439   -0.3140   52.0203 C   0  0  2  0  0  0  0  0  0  0  0  0
   22.1707   -1.4951   52.7293 C   0  0  1  0  0  0  0  0  0  0  0  0
   22.1282   -2.7354   51.7775 C   0  0  1  0  0  0  0  0  0  0  0  0
   22.7636   -3.9645   52.3884 C   0  0  0  0  0  0  0  0  0  0  0  0
   23.5917   -1.0651   53.0116 N   0  0  0  0  0  0  0  0  0  0  0  0
   20.7198   -3.0908   51.5665 O   0  0  0  0  0  0  0  0  0  0  0  0
   19.2656    0.2508   51.0101 O   0  0  0  0  0  0  0  0  0  0  0  0
   21.3966    0.8221   52.9024 O   0  0  0  0  0  0  0  0  0  0  0  0
   24.1223   -3.7935   52.6059 O   0  0  0  0  0  0  0  0  0  0  0  0
   17.4600   -4.3492   43.1881 C   0  0  1  0  0  0  0  0  0  0  0  0
   16.4061   -5.1086   42.3052 C   0  0  1  0  0  0  0  0  0  0  0  0
   16.9160   -5.1419   40.8195 C   0  0  2  0  0  0  0  0  0  0  0  0
   17.0726   -3.7034   40.3039 C   0  0  1  0  0  0  0  0  0  0  0  0
   18.1418   -2.9465   41.1826 C   0  0  0  0  0  0  0  0  0  0  0  0
   17.6390   -2.9251   42.6796 C   0  0  2  0  0  0  0  0  0  0  0  0
   17.5263   -3.7483   38.9236 N   0  0  0  0  0  0  0  0  0  0  0  0
   18.6319   -2.2379   43.5468 N   0  0  0  0  0  0  0  0  0  0  0  0
   16.2539   -6.4733   42.7911 O   0  0  0  0  0  0  0  0  0  0  0  0
   15.9686   -5.8034   40.0238 O   0  0  0  0  0  0  0  0  0  0  0  0
  1  2  1  0  0  0  0
  1 12  1  1  0  0  0
  1 13  1  0  0  0  0
  2  3  1  0  0  0  0
  2 10  1  6  0  0  0
  4  3  1  6  0  0  0
  4  5  1  0  0  0  0
  4 14  1  0  0  0  0
  5  6  1  0  0  0  0
  5 13  1  6  0  0  0
  6  7  1  0  0  0  0
  6 15  1  1  0  0  0
  7  8  1  0  0  0  0
  7 11  1  1  0  0  0
  8 14  1  0  0  0  0
  8 16  1  1  0  0  0
  9 11  1  0  0  0  0
 17 16  1  6  0  0  0
 17 18  1  0  0  0  0
 17 24  1  0  0  0  0
 18 19  1  0  0  0  0
 18 25  1  6  0  0  0
 19 20  1  0  0  0  0
 19 26  1  1  0  0  0
 20 21  1  0  0  0  0
 20 23  1  6  0  0  0
 21 22  1  1  0  0  0
 21 24  1  0  0  0  0
 22 27  1  0  0  0  0
 28 12  1  1  0  0  0
 28 29  1  0  0  0  0
 28 33  1  0  0  0  0
 29 30  1  0  0  0  0
 29 36  1  1  0  0  0
 30 31  1  0  0  0  0
 30 37  1  6  0  0  0
 31 32  1  0  0  0  0
 31 34  1  6  0  0  0
 32 33  1  0  0  0  0
 33 35  1  1  0  0  0
M  END
>  <CHROM.1>
-165.48875023,165.57767288,-169.24351221,-171.46543174,-64.72215162,89.45878160
19.41968432,-3.34940947,47.14731208,2.13521903,-0.62564555,-1.50950804

>  <Name>
2oe5_lig

>  <RI>
0

>  <Rbt.Current_Directory>
/home/itssahil/PROJECTS/Mol_Feturizer/New_Systems/rnas/2oe5

>  <Rbt.Executable>
rbdock ($Id: //depot/dev/client3/rdock/2013.1/src/exe/rbdock.cxx#4 $)

>  <Rbt.Library>
libRbt.so (2013.1, Build901 2013/11/27)

>  <Rbt.Parameter_File>
/export/apps/rDock/src/rDock_2013.1_src/data/scripts/dock_solv.prm

>  <Rbt.Receptor>
prm/blind_docking_60.prm

>  <SCORE>
-25.7076

>  <SCORE.INTER>
-20.227

>  <SCORE.INTER.CONST>
1

>  <SCORE.INTER.POLAR>
-2.53064

>  <SCORE.INTER.ROT>
6

>  <SCORE.INTER.SOLV>
16.4236

>  <SCORE.INTER.VDW>
-18.1237

>  <SCORE.INTER.norm>
-0.546677

>  <SCORE.INTRA>
-5.48061

>  <SCORE.INTRA.DIHEDRAL>
-10.4851

>  <SCORE.INTRA.DIHEDRAL.0>
16.2083

>  <SCORE.INTRA.POLAR>
0

>  <SCORE.INTRA.POLAR.0>
0

>  <SCORE.INTRA.REPUL>
0

>  <SCORE.INTRA.REPUL.0>
0

>  <SCORE.INTRA.SOLV>
-0.524958

>  <SCORE.INTRA.SOLV.lig_0>
-89.8095

>  <SCORE.INTRA.VDW>
0.0243969

>  <SCORE.INTRA.VDW.0>
-3.19502

>  <SCORE.INTRA.norm>
-0.148125

>  <SCORE.RESTR>
0

>  <SCORE.RESTR.CAVITY>
0

>  <SCORE.RESTR.norm>
0

>  <SCORE.SYSTEM>
0

>  <SCORE.SYSTEM.CONST>
0

>  <SCORE.SYSTEM.DIHEDRAL>
0

>  <SCORE.SYSTEM.SOLV>
0

>  <SCORE.SYSTEM.norm>
0

>  <SCORE.heavy>
37

>  <SCORE.norm>
-0.694801

>  <RMSD>
11.122

$$$$
2oe5_lig
 OpenBabel11021811463D
libRbt.so/2013.1/901 2013/11/27
 37 40  0  0  0  0  0  0  0  0999 V2000
   15.4542   -5.1742   44.6898 C   0  0  1  0  0  0  0  0  0  0  0  0
   14.9920   -5.5944   46.1030 C   0  0  1  0  0  0  0  0  0  0  0  0
   15.7759   -4.7530   47.1775 C   0  0  0  0  0  0  0  0  0  0  0  0
   17.2686   -5.0674   46.9323 C   0  0  1  0  0  0  0  0  0  0  0  0
   17.7262   -4.6325   45.4702 C   0  0  1  0  0  0  0  0  0  0  0  0
   19.2267   -4.9334   45.2054 C   0  0  1  0  0  0  0  0  0  0  0  0
   20.0394   -4.1481   46.2738 C   0  0  1  0  0  0  0  0  0  0  0  0
   19.5253   -4.5745   47.7010 C   0  0  2  0  0  0  0  0  0  0  0  0
   22.3211   -3.7284   45.0570 C   0  0  0  0  0  0  0  0  0  0  0  0
   13.5384   -5.3532   46.2525 N   0  0  0  0  0  0  0  0  0  0  0  0
   21.5171   -4.4263   46.1201 N   0  0  0  0  0  0  0  0  0  0  0  0
   15.1506   -3.7973   44.4122 O   0  0  0  0  0  0  0  0  0  0  0  0
   16.9012   -5.3568   44.5011 O   0  0  0  0  0  0  0  0  0  0  0  0
   18.0813   -4.3327   47.8864 O   0  0  0  0  0  0  0  0  0  0  0  0
   19.4205   -6.3464   45.3240 O   0  0  0  0  0  0  0  0  0  0  0  0
   20.1989   -3.8331   48.6989 O   0  0  0  0  0  0  0  0  0  0  0  0
   20.3194   -4.6019   49.8810 C   0  0  2  0  0  0  0  0  0  0  0  0
   19.4825   -4.0375   51.0285 C   0  0  1  0  0  0  0  0  0  0  0  0
   19.9840   -2.6285   51.4484 C   0  0  2  0  0  0  0  0  0  0  0  0
   21.4867   -2.7618   51.8356 C   0  0  1  0  0  0  0  0  0  0  0  0
   22.2652   -3.2997   50.5903 C   0  0  1  0  0  0  0  0  0  0  0  0
   23.7356   -3.5186   50.8685 C   0  0  0  0  0  0  0  0  0  0  0  0
   21.9839   -1.3957   52.2488 N   0  0  0  0  0  0  0  0  0  0  0  0
   21.7297   -4.6272   50.2657 O   0  0  0  0  0  0  0  0  0  0  0  0
   18.1138   -3.9821   50.5801 O   0  0  0  0  0  0  0  0  0  0  0  0
   19.2255   -2.2093   52.5973 O   0  0  0  0  0  0  0  0  0  0  0  0
   23.9401   -4.3337   51.9714 O   0  0  0  0  0  0  0  0  0  0  0  0
   15.5041   -3.3747   43.0950 C   0  0  1  0  0  0  0  0  0  0  0  0
   17.0610   -3.1942   42.9924 C   0  0  1  0  0  0  0  0  0  0  0  0
   17.4260   -2.7425   41.5325 C   0  0  2  0  0  0  0  0  0  0  0  0
   16.9703   -3.8211   40.5382 C   0  0  1  0  0  0  0  0  0  0  0  0
   15.4049   -3.9911   40.6323 C   0  0  0  0  0  0  0  0  0  0  0  0
   15.0337   -4.4301   42.1033 C   0  0  2  0  0  0  0  0  0  0  0  0
   17.3304   -3.4002   39.1942 N   0  0  0  0  0  0  0  0  0  0  0  0
   13.5611   -4.5801   42.2401 N   0  0  0  0  0  0  0  0  0  0  0  0
   17.4978   -2.1726   43.9342 O   0  0  0  0  0  0  0  0  0  0  0  0
   18.8178   -2.5979   41.4312 O   0  0  0  0  0  0  0  0  0  0  0  0
  1  2  1  0  0  0  0
  1 12  1  1  0  0  0
  1 13  1  0  0  0  0
  2  3  1  0  0  0  0
  2 10  1  6  0  0  0
  4  3  1  1  0  0  0
  4  5  1  0  0  0  0
  4 14  1  0  0  0  0
  5  6  1  0  0  0  0
  5 13  1  6  0  0  0
  6  7  1  0  0  0  0
  6 15  1  1  0  0  0
  7  8  1  0  0  0  0
  7 11  1  1  0  0  0
  8 14  1  0  0  0  0
  8 16  1  1  0  0  0
  9 11  1  0  0  0  0
 17 16  1  6  0  0  0
 17 18  1  0  0  0  0
 17 24  1  0  0  0  0
 18 19  1  0  0  0  0
 18 25  1  6  0  0  0
 19 20  1  0  0  0  0
 19 26  1  1  0  0  0
 20 21  1  0  0  0  0
 20 23  1  6  0  0  0
 21 22  1  1  0  0  0
 21 24  1  0  0  0  0
 22 27  1  0  0  0  0
 28 12  1  1  0  0  0
 28 29  1  0  0  0  0
 28 33  1  0  0  0  0
 29 30  1  0  0  0  0
 29 36  1  1  0  0  0
 30 31  1  0  0  0  0
 30 37  1  1  0  0  0
 31 32  1  0  0  0  0
 31 34  1  6  0  0  0
 32 33  1  0  0  0  0
 33 35  1  6  0  0  0
M  END
>  <CHROM.1>
-177.34487185,79.36035649,-149.21733778,-112.45225342,53.96235480,-74.74463409
18.52452172,-3.98938533,46.49630927,2.12869056,-0.16338349,-1.53221786

>  <Name>
2oe5_lig

>  <RI>
0

>  <Rbt.Current_Directory>
/home/itssahil/PROJECTS/Mol_Feturizer/New_Systems/rnas/2oe5

>  <Rbt.Executable>
rbdock ($Id: //depot/dev/client3/rdock/2013.1/src/exe/rbdock.cxx#4 $)

>  <Rbt.Library>
libRbt.so (2013.1, Build901 2013/11/27)

>  <Rbt.Parameter_File>
/export/apps/rDock/src/rDock_2013.1_src/data/scripts/dock_solv.prm

>  <Rbt.Receptor>
prm/blind_docking_100.prm

>  <SCORE>
-22.3711

>  <SCORE.INTER>
-22.6238

>  <SCORE.INTER.CONST>
1

>  <SCORE.INTER.POLAR>
-3.01747

>  <SCORE.INTER.ROT>
6

>  <SCORE.INTER.SOLV>
14.849

>  <SCORE.INTER.VDW>
-17.574

>  <SCORE.INTER.norm>
-0.611455

>  <SCORE.INTRA>
0.252792

>  <SCORE.INTRA.DIHEDRAL>
-4.00689

>  <SCORE.INTRA.DIHEDRAL.0>
16.2083

>  <SCORE.INTRA.POLAR>
0

>  <SCORE.INTRA.POLAR.0>
0

>  <SCORE.INTRA.REPUL>
0

>  <SCORE.INTRA.REPUL.0>
0

>  <SCORE.INTRA.SOLV>
-0.520147

>  <SCORE.INTRA.SOLV.lig_0>
-89.8095

>  <SCORE.INTRA.VDW>
2.51631

>  <SCORE.INTRA.VDW.0>
-3.19502

>  <SCORE.INTRA.norm>
0.00683221

>  <SCORE.RESTR>
0

>  <SCORE.RESTR.CAVITY>
0

>  <SCORE.RESTR.norm>
0

>  <SCORE.SYSTEM>
0

>  <SCORE.SYSTEM.CONST>
0

>  <SCORE.SYSTEM.DIHEDRAL>
0

>  <SCORE.SYSTEM.SOLV>
0

>  <SCORE.SYSTEM.norm>
0

>  <SCORE.heavy>
37

>  <SCORE.norm>
-0.604623

>  <RMSD>
11.124

$$$$
2oe5_lig
 OpenBabel11021811463D
libRbt.so/2013.1/901 2013/11/27
 37 40  0  0  0  0  0  0  0  0999 V2000
   15.6663   -5.2615   44.7256 C   0  0  1  0  0  0  0  0  0  0  0  0
   15.1996   -5.6246   46.1531 C   0  0  1  0  0  0  0  0  0  0  0  0
   15.7488   -4.5536   47.1672 C   0  0  0  0  0  0  0  0  0  0  0  0
   17.2863   -4.6059   47.0231 C   0  0  1  0  0  0  0  0  0  0  0  0
   17.7488   -4.2340   45.5452 C   0  0  1  0  0  0  0  0  0  0  0  0
   19.2927   -4.2736   45.3806 C   0  0  1  0  0  0  0  0  0  0  0  0
   19.8807   -3.2527   46.3957 C   0  0  1  0  0  0  0  0  0  0  0  0
   19.3633   -3.6301   47.8355 C   0  0  2  0  0  0  0  0  0  0  0  0
   22.1941   -2.2501   47.1072 C   0  0  0  0  0  0  0  0  0  0  0  0
   13.7199   -5.6456   46.2115 N   0  0  0  0  0  0  0  0  0  0  0  0
   21.3911   -3.2638   46.3381 N   0  0  0  0  0  0  0  0  0  0  0  0
   15.1366   -3.9982   44.2918 O   0  0  0  0  0  0  0  0  0  0  0  0
   17.1315   -5.1881   44.6217 O   0  0  0  0  0  0  0  0  0  0  0  0
   17.8906   -3.6453   47.9301 O   0  0  0  0  0  0  0  0  0  0  0  0
   19.7312   -5.6079   45.6552 O   0  0  0  0  0  0  0  0  0  0  0  0
   19.8272   -2.6847   48.7791 O   0  0  0  0  0  0  0  0  0  0  0  0
   19.1744   -2.8730   50.0206 C   0  0  2  0  0  0  0  0  0  0  0  0
   19.7178   -1.9474   51.1085 C   0  0  1  0  0  0  0  0  0  0  0  0
   21.2070   -2.2613   51.4199 C   0  0  2  0  0  0  0  0  0  0  0  0
   21.2934   -3.7600   51.8351 C   0  0  1  0  0  0  0  0  0  0  0  0
   20.7612   -4.6266   50.6468 C   0  0  1  0  0  0  0  0  0  0  0  0
   20.7503   -6.1062   50.9598 C   0  0  0  0  0  0  0  0  0  0  0  0
   22.7391   -4.0751   52.1431 N   0  0  0  0  0  0  0  0  0  0  0  0
   19.3558   -4.2667   50.4235 O   0  0  0  0  0  0  0  0  0  0  0  0
   19.5663   -0.5926   50.6403 O   0  0  0  0  0  0  0  0  0  0  0  0
   21.6167   -1.4314   52.5218 O   0  0  0  0  0  0  0  0  0  0  0  0
   19.8346   -6.4207   51.9524 O   0  0  0  0  0  0  0  0  0  0  0  0
   15.4668   -3.6570   42.9453 C   0  0  1  0  0  0  0  0  0  0  0  0
   16.9836   -3.2599   42.8520 C   0  0  1  0  0  0  0  0  0  0  0  0
   17.3255   -2.9022   41.3608 C   0  0  2  0  0  0  0  0  0  0  0  0
   17.0625   -4.1269   40.4716 C   0  0  1  0  0  0  0  0  0  0  0  0
   15.5360   -4.5157   40.5551 C   0  0  0  0  0  0  0  0  0  0  0  0
   15.1859   -4.8608   42.0560 C   0  0  2  0  0  0  0  0  0  0  0  0
   17.4003   -3.7890   39.0987 N   0  0  0  0  0  0  0  0  0  0  0  0
   13.7469   -5.2120   42.1817 N   0  0  0  0  0  0  0  0  0  0  0  0
   17.2378   -2.0992   43.6944 O   0  0  0  0  0  0  0  0  0  0  0  0
   18.6842   -2.5647   41.2697 O   0  0  0  0  0  0  0  0  0  0  0  0
  1  2  1  0  0  0  0
  1 12  1  1  0  0  0
  1 13  1  0  0  0  0
  2  3  1  0  0  0  0
  2 10  1  6  0  0  0
  4  3  1  6  0  0  0
  4  5  1  0  0  0  0
  4 14  1  0  0  0  0
  5  6  1  0  0  0  0
  5 13  1  6  0  0  0
  6  7  1  0  0  0  0
  6 15  1  1  0  0  0
  7  8  1  0  0  0  0
  7 11  1  1  0  0  0
  8 14  1  0  0  0  0
  8 16  1  1  0  0  0
  9 11  1  0  0  0  0
 17 16  1  6  0  0  0
 17 18  1  0  0  0  0
 17 24  1  0  0  0  0
 18 19  1  0  0  0  0
 18 25  1  6  0  0  0
 19 20  1  0  0  0  0
 19 26  1  1  0  0  0
 20 21  1  0  0  0  0
 20 23  1  6  0  0  0
 21 22  1  1  0  0  0
 21 24  1  0  0  0  0
 22 27  1  0  0  0  0
 28 12  1  1  0  0  0
 28 29  1  0  0  0  0
 28 33  1  0  0  0  0
 29 30  1  0  0  0  0
 29 36  1  1  0  0  0
 30 31  1  0  0  0  0
 30 37  1  1  0  0  0
 31 32  1  0  0  0  0
 31 34  1  6  0  0  0
 32 33  1  0  0  0  0
 33 35  1  6  0  0  0
M  END
>  <CHROM.1>
-176.09931451,172.76725564,169.36301859,175.51536842,66.66387149,-72.71638452
18.35025651,-3.84942644,46.56719362,2.12686786,-0.51460270,-1.35924209

>  <Name>
2oe5_lig

>  <RI>
0

>  <Rbt.Current_Directory>
/home/itssahil/PROJECTS/Mol_Feturizer/New_Systems/rnas/2oe5

>  <Rbt.Executable>
rbdock ($Id: //depot/dev/client3/rdock/2013.1/src/exe/rbdock.cxx#4 $)

>  <Rbt.Library>
libRbt.so (2013.1, Build901 2013/11/27)

>  <Rbt.Parameter_File>
/export/apps/rDock/src/rDock_2013.1_src/data/scripts/dock_solv.prm

>  <Rbt.Receptor>
prm/blind_docking_60.prm

>  <SCORE>
-24.1943

>  <SCORE.INTER>
-21.3817

>  <SCORE.INTER.CONST>
1

>  <SCORE.INTER.POLAR>
-2.25842

>  <SCORE.INTER.ROT>
6

>  <SCORE.INTER.SOLV>
16.676

>  <SCORE.INTER.VDW>
-19.8851

>  <SCORE.INTER.norm>
-0.577885

>  <SCORE.INTRA>
-2.81259

>  <SCORE.INTRA.DIHEDRAL>
-14.4357

>  <SCORE.INTRA.DIHEDRAL.0>
16.2083

>  <SCORE.INTRA.POLAR>
0

>  <SCORE.INTRA.POLAR.0>
0

>  <SCORE.INTRA.REPUL>
0

>  <SCORE.INTRA.REPUL.0>
0

>  <SCORE.INTRA.SOLV>
-0.979024

>  <SCORE.INTRA.SOLV.lig_0>
-89.8095

>  <SCORE.INTRA.VDW>
4.89479

>  <SCORE.INTRA.VDW.0>
-3.19502

>  <SCORE.INTRA.norm>
-0.0760159

>  <SCORE.RESTR>
0

>  <SCORE.RESTR.CAVITY>
0

>  <SCORE.RESTR.norm>
0

>  <SCORE.SYSTEM>
0

>  <SCORE.SYSTEM.CONST>
0

>  <SCORE.SYSTEM.DIHEDRAL>
0

>  <SCORE.SYSTEM.SOLV>
0

>  <SCORE.SYSTEM.norm>
0

>  <SCORE.heavy>
37

>  <SCORE.norm>
-0.653901

>  <RMSD>
11.131

$$$$
2oe5_lig
 OpenBabel11021811463D
libRbt.so/2013.1/901 2013/11/27
 37 40  0  0  0  0  0  0  0  0999 V2000
   15.0975   -4.8994   45.0540 C   0  0  1  0  0  0  0  0  0  0  0  0
   14.9290   -5.7487   46.3337 C   0  0  1  0  0  0  0  0  0  0  0  0
   15.7604   -5.0990   47.5015 C   0  0  0  0  0  0  0  0  0  0  0  0
   17.2218   -5.0795   47.0001 C   0  0  1  0  0  0  0  0  0  0  0  0
   17.3758   -4.2042   45.6786 C   0  0  1  0  0  0  0  0  0  0  0  0
   18.8398   -4.1654   45.1615 C   0  0  1  0  0  0  0  0  0  0  0  0
   19.7058   -3.5625   46.3040 C   0  0  1  0  0  0  0  0  0  0  0  0
   19.4896   -4.4302   47.6015 C   0  0  2  0  0  0  0  0  0  0  0  0
   22.0394   -4.7384   46.1192 C   0  0  0  0  0  0  0  0  0  0  0  0
   13.5000   -5.8059   46.7186 N   0  0  0  0  0  0  0  0  0  0  0  0
   21.1625   -3.5353   45.9017 N   0  0  0  0  0  0  0  0  0  0  0  0
   14.5764   -3.5704   45.2185 O   0  0  0  0  0  0  0  0  0  0  0  0
   16.5061   -4.7774   44.6494 O   0  0  0  0  0  0  0  0  0  0  0  0
   18.0758   -4.4946   48.0195 O   0  0  0  0  0  0  0  0  0  0  0  0
   19.2324   -5.5056   44.8486 O   0  0  0  0  0  0  0  0  0  0  0  0
   20.2138   -3.8740   48.6811 O   0  0  0  0  0  0  0  0  0  0  0  0
   20.2283   -4.7729   49.7741 C   0  0  2  0  0  0  0  0  0  0  0  0
   19.5040   -4.2116   50.9972 C   0  0  1  0  0  0  0  0  0  0  0  0
   20.2235   -2.9484   51.5446 C   0  0  2  0  0  0  0  0  0  0  0  0
   21.6921   -3.3504   51.8725 C   0  0  1  0  0  0  0  0  0  0  0  0
   22.3617   -3.8664   50.5566 C   0  0  1  0  0  0  0  0  0  0  0  0
   23.7837   -4.3362   50.7683 C   0  0  0  0  0  0  0  0  0  0  0  0
   22.4006   -2.1280   52.4091 N   0  0  0  0  0  0  0  0  0  0  0  0
   21.6224   -5.0544   50.1133 O   0  0  0  0  0  0  0  0  0  0  0  0
   18.1548   -3.9001   50.5966 O   0  0  0  0  0  0  0  0  0  0  0  0
   19.5540   -2.5418   52.7519 O   0  0  0  0  0  0  0  0  0  0  0  0
   24.6350   -3.2890   51.0865 O   0  0  0  0  0  0  0  0  0  0  0  0
   14.2080   -2.9314   43.9959 C   0  0  1  0  0  0  0  0  0  0  0  0
   15.4279   -2.9287   43.0066 C   0  0  1  0  0  0  0  0  0  0  0  0
   14.9947   -2.2334   41.6659 C   0  0  2  0  0  0  0  0  0  0  0  0
   13.8312   -3.0172   41.0401 C   0  0  1  0  0  0  0  0  0  0  0  0
   12.6020   -3.0068   42.0287 C   0  0  0  0  0  0  0  0  0  0  0  0
   13.0395   -3.6914   43.3831 C   0  0  2  0  0  0  0  0  0  0  0  0
   13.4526   -2.3751   39.7921 N   0  0  0  0  0  0  0  0  0  0  0  0
   11.9126   -3.6819   44.3526 N   0  0  0  0  0  0  0  0  0  0  0  0
   16.5340   -2.1870   43.5963 O   0  0  0  0  0  0  0  0  0  0  0  0
   16.0761   -2.2454   40.7723 O   0  0  0  0  0  0  0  0  0  0  0  0
  1  2  1  0  0  0  0
  1 12  1  1  0  0  0
  1 13  1  0  0  0  0
  2  3  1  0  0  0  0
  2 10  1  1  0  0  0
  4  3  1  1  0  0  0
  4  5  1  0  0  0  0
  4 14  1  0  0  0  0
  5  6  1  0  0  0  0
  5 13  1  6  0  0  0
  6  7  1  0  0  0  0
  6 15  1  1  0  0  0
  7  8  1  0  0  0  0
  7 11  1  6  0  0  0
  8 14  1  0  0  0  0
  8 16  1  1  0  0  0
  9 11  1  0  0  0  0
 17 16  1  6  0  0  0
 17 18  1  0  0  0  0
 17 24  1  0  0  0  0
 18 19  1  0  0  0  0
 18 25  1  6  0  0  0
 19 20  1  0  0  0  0
 19 26  1  1  0  0  0
 20 21  1  0  0  0  0
 20 23  1  6  0  0  0
 21 22  1  1  0  0  0
 21 24  1  0  0  0  0
 22 27  1  0  0  0  0
 28 12  1  1  0  0  0
 28 29  1  0  0  0  0
 28 33  1  0  0  0  0
 29 30  1  0  0  0  0
 29 36  1  1  0  0  0
 30 31  1  0  0  0  0
 30 37  1  6  0  0  0
 31 32  1  0  0  0  0
 31 34  1  6  0  0  0
 32 33  1  0  0  0  0
 33 35  1  1  0  0  0
M  END
>  <CHROM.1>
-156.15561234,-85.99029098,-169.15988813,-116.07745629,-67.68998910,-55.07036396
17.88870334,-3.84020437,46.70278236,2.32567211,-0.08712640,-1.44111335

>  <Name>
2oe5_lig

>  <RI>
0

>  <Rbt.Current_Directory>
/home/itssahil/PROJECTS/Mol_Feturizer/New_Systems/rnas/2oe5

>  <Rbt.Executable>
rbdock ($Id: //depot/dev/client3/rdock/2013.1/src/exe/rbdock.cxx#4 $)

>  <Rbt.Library>
libRbt.so (2013.1, Build901 2013/11/27)

>  <Rbt.Parameter_File>
/export/apps/rDock/src/rDock_2013.1_src/data/scripts/dock_solv.prm

>  <Rbt.Receptor>
prm/blind_docking_80.prm

>  <SCORE>
-22.835

>  <SCORE.INTER>
-22.9937

>  <SCORE.INTER.CONST>
1

>  <SCORE.INTER.POLAR>
-2.77

>  <SCORE.INTER.ROT>
6

>  <SCORE.INTER.SOLV>
17.5428

>  <SCORE.INTER.VDW>
-19.5434

>  <SCORE.INTER.norm>
-0.621451

>  <SCORE.INTRA>
0.158747

>  <SCORE.INTRA.DIHEDRAL>
-5.19755

>  <SCORE.INTRA.DIHEDRAL.0>
16.2083

>  <SCORE.INTRA.POLAR>
0

>  <SCORE.INTRA.POLAR.0>
0

>  <SCORE.INTRA.REPUL>
0

>  <SCORE.INTRA.REPUL.0>
0

>  <SCORE.INTRA.SOLV>
0.485611

>  <SCORE.INTRA.SOLV.lig_0>
-89.8095

>  <SCORE.INTRA.VDW>
2.51471

>  <SCORE.INTRA.VDW.0>
-3.19502

>  <SCORE.INTRA.norm>
0.00429047

>  <SCORE.RESTR>
0

>  <SCORE.RESTR.CAVITY>
0

>  <SCORE.RESTR.norm>
0

>  <SCORE.SYSTEM>
0

>  <SCORE.SYSTEM.CONST>
0

>  <SCORE.SYSTEM.DIHEDRAL>
0

>  <SCORE.SYSTEM.SOLV>
0

>  <SCORE.SYSTEM.norm>
0

>  <SCORE.heavy>
37

>  <SCORE.norm>
-0.617161

>  <RMSD>
11.131

$$$$
2oe5_lig
 OpenBabel11021811463D
libRbt.so/2013.1/901 2013/11/27
 37 40  0  0  0  0  0  0  0  0999 V2000
   16.2662   -5.7502   45.3247 C   0  0  1  0  0  0  0  0  0  0  0  0
   15.5393   -5.9646   46.6712 C   0  0  1  0  0  0  0  0  0  0  0  0
   15.6886   -4.6702   47.5540 C   0  0  0  0  0  0  0  0  0  0  0  0
   17.2104   -4.4733   47.7352 C   0  0  1  0  0  0  0  0  0  0  0  0
   17.9436   -4.2587   46.3378 C   0  0  1  0  0  0  0  0  0  0  0  0
   19.4744   -4.0514   46.4982 C   0  0  1  0  0  0  0  0  0  0  0  0
   19.6678   -2.7987   47.3993 C   0  0  1  0  0  0  0  0  0  0  0  0
   18.8912   -3.0342   48.7501 C   0  0  2  0  0  0  0  0  0  0  0  0
   22.1329   -2.6470   46.5256 C   0  0  0  0  0  0  0  0  0  0  0  0
   14.1029   -6.2360   46.4331 N   0  0  0  0  0  0  0  0  0  0  0  0
   21.1379   -2.5531   47.6504 N   0  0  0  0  0  0  0  0  0  0  0  0
   15.6812   -4.6819   44.5622 O   0  0  0  0  0  0  0  0  0  0  0  0
   17.6917   -5.4375   45.5063 O   0  0  0  0  0  0  0  0  0  0  0  0
   17.4526   -3.2930   48.5470 O   0  0  0  0  0  0  0  0  0  0  0  0
   20.0178   -5.2293   47.1029 O   0  0  0  0  0  0  0  0  0  0  0  0
   18.9918   -1.8878   49.5716 O   0  0  0  0  0  0  0  0  0  0  0  0
   19.0349   -2.2659   50.9348 C   0  0  2  0  0  0  0  0  0  0  0  0
   19.3580   -1.0886   51.8540 C   0  0  1  0  0  0  0  0  0  0  0  0
   20.7825   -0.5345   51.5764 C   0  0  2  0  0  0  0  0  0  0  0  0
   21.7873   -1.7099   51.7623 C   0  0  1  0  0  0  0  0  0  0  0  0
   21.4057   -2.8418   50.7526 C   0  0  1  0  0  0  0  0  0  0  0  0
   22.2887   -4.0630   50.8806 C   0  0  0  0  0  0  0  0  0  0  0  0
   23.1776   -1.1802   51.4971 N   0  0  0  0  0  0  0  0  0  0  0  0
   20.0533   -3.3040   51.0872 O   0  0  0  0  0  0  0  0  0  0  0  0
   18.3597   -0.0741   51.6259 O   0  0  0  0  0  0  0  0  0  0  0  0
   21.0580    0.4931   52.5456 O   0  0  0  0  0  0  0  0  0  0  0  0
   22.2340   -4.6129   52.1524 O   0  0  0  0  0  0  0  0  0  0  0  0
   16.4495   -4.2859   43.4257 C   0  0  1  0  0  0  0  0  0  0  0  0
   16.3550   -5.3856   42.3083 C   0  0  1  0  0  0  0  0  0  0  0  0
   17.1962   -4.9218   41.0650 C   0  0  2  0  0  0  0  0  0  0  0  0
   16.6253   -3.5998   40.5301 C   0  0  1  0  0  0  0  0  0  0  0  0
   16.7340   -2.4927   41.6485 C   0  0  0  0  0  0  0  0  0  0  0  0
   15.9019   -2.9637   42.9056 C   0  0  2  0  0  0  0  0  0  0  0  0
   17.3998   -3.1916   39.3697 N   0  0  0  0  0  0  0  0  0  0  0  0
   15.9970   -1.9552   43.9936 N   0  0  0  0  0  0  0  0  0  0  0  0
   16.8947   -6.6415   42.8114 O   0  0  0  0  0  0  0  0  0  0  0  0
   17.0994   -5.8930   40.0572 O   0  0  0  0  0  0  0  0  0  0  0  0
  1  2  1  0  0  0  0
  1 12  1  1  0  0  0
  1 13  1  0  0  0  0
  2  3  1  0  0  0  0
  2 10  1  6  0  0  0
  4  3  1  6  0  0  0
  4  5  1  0  0  0  0
  4 14  1  0  0  0  0
  5  6  1  0  0  0  0
  5 13  1  6  0  0  0
  6  7  1  0  0  0  0
  6 15  1  1  0  0  0
  7  8  1  0  0  0  0
  7 11  1  1  0  0  0
  8 14  1  0  0  0  0
  8 16  1  1  0  0  0
  9 11  1  0  0  0  0
 17 16  1  6  0  0  0
 17 18  1  0  0  0  0
 17 24  1  0  0  0  0
 18 19  1  0  0  0  0
 18 25  1  6  0  0  0
 19 20  1  0  0  0  0
 19 26  1  1  0  0  0
 20 21  1  0  0  0  0
 20 23  1  6  0  0  0
 21 22  1  1  0  0  0
 21 24  1  0  0  0  0
 22 27  1  0  0  0  0
 28 12  1  1  0  0  0
 28 29  1  0  0  0  0
 28 33  1  0  0  0  0
 29 30  1  0  0  0  0
 29 36  1  1  0  0  0
 30 31  1  0  0  0  0
 30 37  1  6  0  0  0
 31 32  1  0  0  0  0
 31 34  1  6  0  0  0
 32 33  1  0  0  0  0
 33 35  1  1  0  0  0
M  END
>  <CHROM.1>
169.56621037,44.22784059,-146.15559069,171.22322914,58.97255178,72.52782396
18.51237247,-3.50483852,46.98291980,2.07290308,-0.48995259,-1.61568651

>  <Name>
2oe5_lig

>  <RI>
0

>  <Rbt.Current_Directory>
/home/itssahil/PROJECTS/Mol_Feturizer/New_Systems/rnas/2oe5

>  <Rbt.Executable>
rbdock ($Id: //depot/dev/client3/rdock/2013.1/src/exe/rbdock.cxx#4 $)

>  <Rbt.Library>
libRbt.so (2013.1, Build901 2013/11/27)

>  <Rbt.Parameter_File>
/export/apps/rDock/src/rDock_2013.1_src/data/scripts/dock_solv.prm

>  <Rbt.Receptor>
prm/blind_docking_80.prm

>  <SCORE>
-22.3465

>  <SCORE.INTER>
-18.8215

>  <SCORE.INTER.CONST>
1

>  <SCORE.INTER.POLAR>
-2.92055

>  <SCORE.INTER.ROT>
6

>  <SCORE.INTER.SOLV>
19.8993

>  <SCORE.INTER.VDW>
-17.0456

>  <SCORE.INTER.norm>
-0.508688

>  <SCORE.INTRA>
-3.52508

>  <SCORE.INTRA.DIHEDRAL>
-9.98992

>  <SCORE.INTRA.DIHEDRAL.0>
16.2083

>  <SCORE.INTRA.POLAR>
0

>  <SCORE.INTRA.POLAR.0>
0

>  <SCORE.INTRA.REPUL>
0

>  <SCORE.INTRA.REPUL.0>
0

>  <SCORE.INTRA.SOLV>
-1.03707

>  <SCORE.INTRA.SOLV.lig_0>
-89.8095

>  <SCORE.INTRA.VDW>
1.98841

>  <SCORE.INTRA.VDW.0>
-3.19502

>  <SCORE.INTRA.norm>
-0.0952725

>  <SCORE.RESTR>
0

>  <SCORE.RESTR.CAVITY>
0

>  <SCORE.RESTR.norm>
0

>  <SCORE.SYSTEM>
0

>  <SCORE.SYSTEM.CONST>
0

>  <SCORE.SYSTEM.DIHEDRAL>
0

>  <SCORE.SYSTEM.SOLV>
0

>  <SCORE.SYSTEM.norm>
0

>  <SCORE.heavy>
37

>  <SCORE.norm>
-0.603961

>  <RMSD>
11.136

$$$$
2oe5_lig
 OpenBabel11021811463D
libRbt.so/2013.1/901 2013/11/27
 37 40  0  0  0  0  0  0  0  0999 V2000
   16.0676   -6.1874   45.1731 C   0  0  1  0  0  0  0  0  0  0  0  0
   15.3579   -5.9925   46.5316 C   0  0  1  0  0  0  0  0  0  0  0  0
   16.2301   -5.0514   47.4430 C   0  0  0  0  0  0  0  0  0  0  0  0
   17.5891   -5.7716   47.5907 C   0  0  1  0  0  0  0  0  0  0  0  0
   18.3038   -5.9683   46.1811 C   0  0  1  0  0  0  0  0  0  0  0  0
   19.6760   -6.6845   46.3079 C   0  0  1  0  0  0  0  0  0  0  0  0
   20.5605   -5.8035   47.2354 C   0  0  1  0  0  0  0  0  0  0  0  0
   19.7980   -5.5974   48.5990 C   0  0  2  0  0  0  0  0  0  0  0  0
   22.0264   -7.6945   48.3024 C   0  0  0  0  0  0  0  0  0  0  0  0
   14.0256   -5.3802   46.3232 N   0  0  0  0  0  0  0  0  0  0  0  0
   21.9056   -6.4568   47.4554 N   0  0  0  0  0  0  0  0  0  0  0  0
   16.1993   -4.9508   44.4531 O   0  0  0  0  0  0  0  0  0  0  0  0
   17.4145   -6.7576   45.3264 O   0  0  0  0  0  0  0  0  0  0  0  0
   18.4712   -4.9748   48.4259 O   0  0  0  0  0  0  0  0  0  0  0  0
   19.4464   -7.9812   46.8684 O   0  0  0  0  0  0  0  0  0  0  0  0
   20.5449   -4.7471   49.4467 O   0  0  0  0  0  0  0  0  0  0  0  0
   20.3620   -5.1224   50.7990 C   0  0  2  0  0  0  0  0  0  0  0  0
   19.3818   -4.2047   51.5287 C   0  0  1  0  0  0  0  0  0  0  0  0
   19.9303   -2.7540   51.6161 C   0  0  2  0  0  0  0  0  0  0  0  0
   21.3114   -2.8172   52.3334 C   0  0  1  0  0  0  0  0  0  0  0  0
   22.2559   -3.7375   51.4923 C   0  0  1  0  0  0  0  0  0  0  0  0
   23.6177   -3.9144   52.1260 C   0  0  0  0  0  0  0  0  0  0  0  0
   21.8528   -1.4092   52.4261 N   0  0  0  0  0  0  0  0  0  0  0  0
   21.6640   -5.0803   51.4630 O   0  0  0  0  0  0  0  0  0  0  0  0
   18.1355   -4.2390   50.8053 O   0  0  0  0  0  0  0  0  0  0  0  0
   19.0121   -1.9768   52.4059 O   0  0  0  0  0  0  0  0  0  0  0  0
   23.5285   -4.3915   53.4249 O   0  0  0  0  0  0  0  0  0  0  0  0
   14.9817   -4.4772   43.8770 C   0  0  1  0  0  0  0  0  0  0  0  0
   15.1559   -2.9874   43.4111 C   0  0  1  0  0  0  0  0  0  0  0  0
   13.8093   -2.4938   42.7696 C   0  0  2  0  0  0  0  0  0  0  0  0
   13.4729   -3.3726   41.5554 C   0  0  1  0  0  0  0  0  0  0  0  0
   13.2842   -4.8660   42.0271 C   0  0  0  0  0  0  0  0  0  0  0  0
   14.6317   -5.3597   42.6865 C   0  0  2  0  0  0  0  0  0  0  0  0
   12.2360   -2.8942   40.9603 N   0  0  0  0  0  0  0  0  0  0  0  0
   14.4881   -6.7596   43.1656 N   0  0  0  0  0  0  0  0  0  0  0  0
   15.4757   -2.1503   44.5593 O   0  0  0  0  0  0  0  0  0  0  0  0
   13.9663   -1.1690   42.3352 O   0  0  0  0  0  0  0  0  0  0  0  0
  1  2  1  0  0  0  0
  1 12  1  1  0  0  0
  1 13  1  0  0  0  0
  2  3  1  0  0  0  0
  2 10  1  6  0  0  0
  4  3  1  6  0  0  0
  4  5  1  0  0  0  0
  4 14  1  0  0  0  0
  5  6  1  0  0  0  0
  5 13  1  6  0  0  0
  6  7  1  0  0  0  0
  6 15  1  1  0  0  0
  7  8  1  0  0  0  0
  7 11  1  1  0  0  0
  8 14  1  0  0  0  0
  8 16  1  1  0  0  0
  9 11  1  0  0  0  0
 17 16  1  6  0  0  0
 17 18  1  0  0  0  0
 17 24  1  0  0  0  0
 18 19  1  0  0  0  0
 18 25  1  6  0  0  0
 19 20  1  0  0  0  0
 19 26  1  1  0  0  0
 20 21  1  0  0  0  0
 20 23  1  6  0  0  0
 21 22  1  1  0  0  0
 21 24  1  0  0  0  0
 22 27  1  0  0  0  0
 28 12  1  6  0  0  0
 28 29  1  0  0  0  0
 28 33  1  0  0  0  0
 29 30  1  0  0  0  0
 29 36  1  1  0  0  0
 30 31  1  0  0  0  0
 30 37  1  6  0  0  0
 31 32  1  0  0  0  0
 31 34  1  1  0  0  0
 32 33  1  0  0  0  0
 33 35  1  1  0  0  0
M  END
>  <CHROM.1>
-74.08400134,-71.07334711,-146.63663924,-101.79293664,55.41006303,166.96077352
18.04099761,-4.64842213,47.32741473,-2.66497575,-0.74418533,0.66363070

>  <Name>
2oe5_lig

>  <RI>
0

>  <Rbt.Current_Directory>
/home/itssahil/PROJECTS/Mol_Feturizer/New_Systems/rnas/2oe5

>  <Rbt.Executable>
rbdock ($Id: //depot/dev/client3/rdock/2013.1/src/exe/rbdock.cxx#4 $)

>  <Rbt.Library>
libRbt.so (2013.1, Build901 2013/11/27)

>  <Rbt.Parameter_File>
/export/apps/rDock/src/rDock_2013.1_src/data/scripts/dock_solv.prm

>  <Rbt.Receptor>
prm/blind_docking_60.prm

>  <SCORE>
-22.2043

>  <SCORE.INTER>
-24.3237

>  <SCORE.INTER.CONST>
1

>  <SCORE.INTER.POLAR>
-2.96197

>  <SCORE.INTER.ROT>
6

>  <SCORE.INTER.SOLV>
12.8136

>  <SCORE.INTER.VDW>
-18.2138

>  <SCORE.INTER.norm>
-0.657398

>  <SCORE.INTRA>
1.95151

>  <SCORE.INTRA.DIHEDRAL>
-4.32897

>  <SCORE.INTRA.DIHEDRAL.0>
16.2083

>  <SCORE.INTRA.POLAR>
0

>  <SCORE.INTRA.POLAR.0>
0

>  <SCORE.INTRA.REPUL>
0

>  <SCORE.INTRA.REPUL.0>
0

>  <SCORE.INTRA.SOLV>
2.72416

>  <SCORE.INTRA.SOLV.lig_0>
-89.8095

>  <SCORE.INTRA.VDW>
2.75391

>  <SCORE.INTRA.VDW.0>
-3.19502

>  <SCORE.INTRA.norm>
0.0527434

>  <SCORE.RESTR>
0.167927

>  <SCORE.RESTR.CAVITY>
0.167927

>  <SCORE.RESTR.norm>
0.00453858

>  <SCORE.SYSTEM>
0

>  <SCORE.SYSTEM.CONST>
0

>  <SCORE.SYSTEM.DIHEDRAL>
0

>  <SCORE.SYSTEM.SOLV>
0

>  <SCORE.SYSTEM.norm>
0

>  <SCORE.heavy>
37

>  <SCORE.norm>
-0.600116

>  <RMSD>
11.139

$$$$
2oe5_lig
 OpenBabel11021811463D
libRbt.so/2013.1/901 2013/11/27
 37 40  0  0  0  0  0  0  0  0999 V2000
   16.8972   -4.3010   44.5575 C   0  0  1  0  0  0  0  0  0  0  0  0
   17.4606   -2.9114   44.1848 C   0  0  1  0  0  0  0  0  0  0  0  0
   18.8626   -2.7176   44.8735 C   0  0  0  0  0  0  0  0  0  0  0  0
   18.5948   -2.8534   46.3892 C   0  0  1  0  0  0  0  0  0  0  0  0
   18.0101   -4.2891   46.7542 C   0  0  1  0  0  0  0  0  0  0  0  0
   17.7405   -4.4492   48.2753 C   0  0  1  0  0  0  0  0  0  0  0  0
   19.0985   -4.2269   48.9999 C   0  0  1  0  0  0  0  0  0  0  0  0
   19.6620   -2.8174   48.5769 C   0  0  2  0  0  0  0  0  0  0  0  0
   19.2791   -5.5722   51.2405 C   0  0  0  0  0  0  0  0  0  0  0  0
   17.6142   -2.8051   42.7156 N   0  0  0  0  0  0  0  0  0  0  0  0
   18.9163   -4.3150   50.4977 N   0  0  0  0  0  0  0  0  0  0  0  0
   17.7283   -5.3667   44.0691 O   0  0  0  0  0  0  0  0  0  0  0  0
   16.7617   -4.4741   46.0116 O   0  0  0  0  0  0  0  0  0  0  0  0
   19.8403   -2.6853   47.1179 O   0  0  0  0  0  0  0  0  0  0  0  0
   16.7690   -3.4698   48.6563 O   0  0  0  0  0  0  0  0  0  0  0  0
   20.9290   -2.6062   49.1678 O   0  0  0  0  0  0  0  0  0  0  0  0
   21.1686   -1.2205   49.3277 C   0  0  2  0  0  0  0  0  0  0  0  0
   22.5377   -0.9353   49.9439 C   0  0  1  0  0  0  0  0  0  0  0  0
   22.6309   -1.4981   51.3887 C   0  0  2  0  0  0  0  0  0  0  0  0
   21.4765   -0.8591   52.2163 C   0  0  1  0  0  0  0  0  0  0  0  0
   20.1203   -1.2426   51.5381 C   0  0  1  0  0  0  0  0  0  0  0  0
   18.9245   -0.6292   52.2318 C   0  0  0  0  0  0  0  0  0  0  0  0
   21.5601   -1.3983   53.6256 N   0  0  0  0  0  0  0  0  0  0  0  0
   20.1185   -0.6731   50.1853 O   0  0  0  0  0  0  0  0  0  0  0  0
   23.5307   -1.5410   49.0925 O   0  0  0  0  0  0  0  0  0  0  0  0
   23.8983   -1.0994   51.9417 O   0  0  0  0  0  0  0  0  0  0  0  0
   18.9494    0.7563   52.1828 O   0  0  0  0  0  0  0  0  0  0  0  0
   17.1675   -6.6691   44.2363 C   0  0  1  0  0  0  0  0  0  0  0  0
   16.0685   -6.9213   43.1429 C   0  0  1  0  0  0  0  0  0  0  0  0
   15.4767   -8.3634   43.3391 C   0  0  2  0  0  0  0  0  0  0  0  0
   16.6002   -9.3992   43.1824 C   0  0  1  0  0  0  0  0  0  0  0  0
   17.6960   -9.1536   44.2901 C   0  0  0  0  0  0  0  0  0  0  0  0
   18.2818   -7.6986   44.1048 C   0  0  2  0  0  0  0  0  0  0  0  0
   16.0365  -10.7289   43.3473 N   0  0  0  0  0  0  0  0  0  0  0  0
   19.3052   -7.4188   45.1460 N   0  0  0  0  0  0  0  0  0  0  0  0
   15.0012   -5.9407   43.2873 O   0  0  0  0  0  0  0  0  0  0  0  0
   14.5073   -8.5998   42.3527 O   0  0  0  0  0  0  0  0  0  0  0  0
  1  2  1  0  0  0  0
  1 12  1  1  0  0  0
  1 13  1  0  0  0  0
  2  3  1  0  0  0  0
  2 10  1  6  0  0  0
  4  3  1  6  0  0  0
  4  5  1  0  0  0  0
  4 14  1  0  0  0  0
  5  6  1  0  0  0  0
  5 13  1  6  0  0  0
  6  7  1  0  0  0  0
  6 15  1  1  0  0  0
  7  8  1  0  0  0  0
  7 11  1  1  0  0  0
  8 14  1  0  0  0  0
  8 16  1  1  0  0  0
  9 11  1  0  0  0  0
 17 16  1  1  0  0  0
 17 18  1  0  0  0  0
 17 24  1  0  0  0  0
 18 19  1  0  0  0  0
 18 25  1  6  0  0  0
 19 20  1  0  0  0  0
 19 26  1  1  0  0  0
 20 21  1  0  0  0  0
 20 23  1  1  0  0  0
 21 22  1  1  0  0  0
 21 24  1  0  0  0  0
 22 27  1  0  0  0  0
 28 12  1  6  0  0  0
 28 29  1  0  0  0  0
 28 33  1  0  0  0  0
 29 30  1  0  0  0  0
 29 36  1  1  0  0  0
 30 31  1  0  0  0  0
 30 37  1  6  0  0  0
 31 32  1  0  0  0  0
 31 34  1  1  0  0  0
 32 33  1  0  0  0  0
 33 35  1  1  0  0  0
M  END
>  <CHROM.1>
-172.40024003,100.27602546,-153.30394556,-179.10171505,62.82143926,77.33296845
18.79660601,-4.04919112,47.38527844,2.82453580,1.09696306,2.81609869

>  <Name>
2oe5_lig

>  <RI>
0

>  <Rbt.Current_Directory>
/home/itssahil/PROJECTS/Mol_Feturizer/New_Systems/rnas/2oe5

>  <Rbt.Executable>
rbdock ($Id: //depot/dev/client3/rdock/2013.1/src/exe/rbdock.cxx#4 $)

>  <Rbt.Library>
libRbt.so (2013.1, Build901 2013/11/27)

>  <Rbt.Parameter_File>
/export/apps/rDock/src/rDock_2013.1_src/data/scripts/dock_solv.prm

>  <Rbt.Receptor>
prm/blind_docking_100.prm

>  <SCORE>
-20.4166

>  <SCORE.INTER>
-15.2806

>  <SCORE.INTER.CONST>
1

>  <SCORE.INTER.POLAR>
-1.46788

>  <SCORE.INTER.ROT>
6

>  <SCORE.INTER.SOLV>
14.0695

>  <SCORE.INTER.VDW>
-17.5839

>  <SCORE.INTER.norm>
-0.412989

>  <SCORE.INTRA>
-5.82887

>  <SCORE.INTRA.DIHEDRAL>
-10.5558

>  <SCORE.INTRA.DIHEDRAL.0>
16.2083

>  <SCORE.INTRA.POLAR>
0

>  <SCORE.INTRA.POLAR.0>
0

>  <SCORE.INTRA.REPUL>
0

>  <SCORE.INTRA.REPUL.0>
0

>  <SCORE.INTRA.SOLV>
-1.39961

>  <SCORE.INTRA.SOLV.lig_0>
-89.8095

>  <SCORE.INTRA.VDW>
0.148853

>  <SCORE.INTRA.VDW.0>
-3.19502

>  <SCORE.INTRA.norm>
-0.157537

>  <SCORE.RESTR>
0.692845

>  <SCORE.RESTR.CAVITY>
0.692845

>  <SCORE.RESTR.norm>
0.0187255

>  <SCORE.SYSTEM>
0

>  <SCORE.SYSTEM.CONST>
0

>  <SCORE.SYSTEM.DIHEDRAL>
0

>  <SCORE.SYSTEM.SOLV>
0

>  <SCORE.SYSTEM.norm>
0

>  <SCORE.heavy>
37

>  <SCORE.norm>
-0.551801

>  <RMSD>
11.148

$$$$
2oe5_lig
 OpenBabel11021811463D
libRbt.so/2013.1/901 2013/11/27
 37 40  0  0  0  0  0  0  0  0999 V2000
   16.4451   -5.6989   45.4247 C   0  0  1  0  0  0  0  0  0  0  0  0
   15.6445   -5.8119   46.7414 C   0  0  1  0  0  0  0  0  0  0  0  0
   15.9113   -4.5354   47.6226 C   0  0  0  0  0  0  0  0  0  0  0  0
   17.4372   -4.5186   47.8649 C   0  0  1  0  0  0  0  0  0  0  0  0
   18.2460   -4.4068   46.4976 C   0  0  1  0  0  0  0  0  0  0  0  0
   19.7830   -4.3810   46.7194 C   0  0  1  0  0  0  0  0  0  0  0  0
   20.0879   -3.1510   47.6210 C   0  0  1  0  0  0  0  0  0  0  0  0
   19.2353   -3.2788   48.9401 C   0  0  2  0  0  0  0  0  0  0  0  0
   22.1549   -1.8509   48.5697 C   0  0  0  0  0  0  0  0  0  0  0  0
   14.1967   -5.9133   46.4461 N   0  0  0  0  0  0  0  0  0  0  0  0
   21.5655   -3.0790   47.9307 N   0  0  0  0  0  0  0  0  0  0  0  0
   16.0223   -4.5766   44.6331 O   0  0  0  0  0  0  0  0  0  0  0  0
   17.8892   -5.5557   45.6628 O   0  0  0  0  0  0  0  0  0  0  0  0
   17.7854   -3.3672   48.6796 O   0  0  0  0  0  0  0  0  0  0  0  0
   20.1578   -5.6088   47.3521 O   0  0  0  0  0  0  0  0  0  0  0  0
   19.4386   -2.1441   49.7589 O   0  0  0  0  0  0  0  0  0  0  0  0
   19.1095   -2.4456   51.1019 C   0  0  2  0  0  0  0  0  0  0  0  0
   19.2542   -1.2335   52.0213 C   0  0  1  0  0  0  0  0  0  0  0  0
   20.7319   -0.7604   52.0976 C   0  0  2  0  0  0  0  0  0  0  0  0
   21.5859   -1.9672   52.5878 C   0  0  1  0  0  0  0  0  0  0  0  0
   21.4105   -3.1365   51.5640 C   0  0  1  0  0  0  0  0  0  0  0  0
   22.1591   -4.3867   51.9690 C   0  0  0  0  0  0  0  0  0  0  0  0
   23.0261   -1.5161   52.6683 N   0  0  0  0  0  0  0  0  0  0  0  0
   19.9931   -3.5179   51.5574 O   0  0  0  0  0  0  0  0  0  0  0  0
   18.4080   -0.1900   51.4991 O   0  0  0  0  0  0  0  0  0  0  0  0
   20.8092    0.3073   53.0594 O   0  0  0  0  0  0  0  0  0  0  0  0
   23.5308   -4.1856   51.9949 O   0  0  0  0  0  0  0  0  0  0  0  0
   16.7085   -4.4480   43.3876 C   0  0  1  0  0  0  0  0  0  0  0  0
   16.0360   -5.3716   42.3099 C   0  0  1  0  0  0  0  0  0  0  0  0
   16.7991   -5.2029   40.9470 C   0  0  2  0  0  0  0  0  0  0  0  0
   16.7089   -3.7383   40.4923 C   0  0  1  0  0  0  0  0  0  0  0  0
   17.3974   -2.8134   41.5687 C   0  0  0  0  0  0  0  0  0  0  0  0
   16.6418   -2.9928   42.9440 C   0  0  2  0  0  0  0  0  0  0  0  0
   17.4020   -3.5996   39.2221 N   0  0  0  0  0  0  0  0  0  0  0  0
   17.2756   -2.1522   43.9935 N   0  0  0  0  0  0  0  0  0  0  0  0
   16.1185   -6.7616   42.7373 O   0  0  0  0  0  0  0  0  0  0  0  0
   16.1899   -6.0125   39.9765 O   0  0  0  0  0  0  0  0  0  0  0  0
  1  2  1  0  0  0  0
  1 12  1  1  0  0  0
  1 13  1  0  0  0  0
  2  3  1  0  0  0  0
  2 10  1  6  0  0  0
  4  3  1  6  0  0  0
  4  5  1  0  0  0  0
  4 14  1  0  0  0  0
  5  6  1  0  0  0  0
  5 13  1  6  0  0  0
  6  7  1  0  0  0  0
  6 15  1  1  0  0  0
  7  8  1  0  0  0  0
  7 11  1  1  0  0  0
  8 14  1  0  0  0  0
  8 16  1  1  0  0  0
  9 11  1  0  0  0  0
 17 16  1  6  0  0  0
 17 18  1  0  0  0  0
 17 24  1  0  0  0  0
 18 19  1  0  0  0  0
 18 25  1  6  0  0  0
 19 20  1  0  0  0  0
 19 26  1  1  0  0  0
 20 21  1  0  0  0  0
 20 23  1  6  0  0  0
 21 22  1  1  0  0  0
 21 24  1  0  0  0  0
 22 27  1  0  0  0  0
 28 12  1  1  0  0  0
 28 29  1  0  0  0  0
 28 33  1  0  0  0  0
 29 30  1  0  0  0  0
 29 36  1  1  0  0  0
 30 31  1  0  0  0  0
 30 37  1  6  0  0  0
 31 32  1  0  0  0  0
 31 34  1  6  0  0  0
 32 33  1  0  0  0  0
 33 35  1  1  0  0  0
M  END
>  <CHROM.1>
-178.44706559,168.70864269,-158.29697569,-177.53128405,-63.84975037,83.67808902
18.65103446,-3.62317297,47.23158628,2.06474548,-0.46974561,-1.60985028

>  <Name>
2oe5_lig

>  <RI>
0

>  <Rbt.Current_Directory>
/home/itssahil/PROJECTS/Mol_Feturizer/New_Systems/rnas/2oe5

>  <Rbt.Executable>
rbdock ($Id: //depot/dev/client3/rdock/2013.1/src/exe/rbdock.cxx#4 $)

>  <Rbt.Library>
libRbt.so (2013.1, Build901 2013/11/27)

>  <Rbt.Parameter_File>
/export/apps/rDock/src/rDock_2013.1_src/data/scripts/dock_solv.prm

>  <Rbt.Receptor>
prm/blind_docking_60.prm

>  <SCORE>
-21.1966

>  <SCORE.INTER>
-15.5005

>  <SCORE.INTER.CONST>
1

>  <SCORE.INTER.POLAR>
-2.04277

>  <SCORE.INTER.ROT>
6

>  <SCORE.INTER.SOLV>
17.3266

>  <SCORE.INTER.VDW>
-16.9

>  <SCORE.INTER.norm>
-0.418932

>  <SCORE.INTRA>
-5.69606

>  <SCORE.INTRA.DIHEDRAL>
-11.4134

>  <SCORE.INTRA.DIHEDRAL.0>
16.2083

>  <SCORE.INTRA.POLAR>
0

>  <SCORE.INTRA.POLAR.0>
0

>  <SCORE.INTRA.REPUL>
0

>  <SCORE.INTRA.REPUL.0>
0

>  <SCORE.INTRA.SOLV>
-0.306964

>  <SCORE.INTRA.SOLV.lig_0>
-89.8095

>  <SCORE.INTRA.VDW>
0.164116

>  <SCORE.INTRA.VDW.0>
-3.19502

>  <SCORE.INTRA.norm>
-0.153948

>  <SCORE.RESTR>
0

>  <SCORE.RESTR.CAVITY>
0

>  <SCORE.RESTR.norm>
0

>  <SCORE.SYSTEM>
0

>  <SCORE.SYSTEM.CONST>
0

>  <SCORE.SYSTEM.DIHEDRAL>
0

>  <SCORE.SYSTEM.SOLV>
0

>  <SCORE.SYSTEM.norm>
0

>  <SCORE.heavy>
37

>  <SCORE.norm>
-0.57288

>  <RMSD>
11.148

$$$$
2oe5_lig
 OpenBabel11021811463D
libRbt.so/2013.1/901 2013/11/27
 37 40  0  0  0  0  0  0  0  0999 V2000
   18.2966   -4.7265   44.4620 C   0  0  1  0  0  0  0  0  0  0  0  0
   17.1625   -4.9622   45.4845 C   0  0  1  0  0  0  0  0  0  0  0  0
   17.1043   -3.7482   46.4846 C   0  0  0  0  0  0  0  0  0  0  0  0
   18.4962   -3.7041   47.1541 C   0  0  1  0  0  0  0  0  0  0  0  0
   19.6526   -3.4655   46.0854 C   0  0  1  0  0  0  0  0  0  0  0  0
   21.0604   -3.4105   46.7390 C   0  0  1  0  0  0  0  0  0  0  0  0
   21.0353   -2.2433   47.7665 C   0  0  1  0  0  0  0  0  0  0  0  0
   19.8514   -2.4956   48.7755 C   0  0  2  0  0  0  0  0  0  0  0  0
   23.4789   -1.3141   47.9334 C   0  0  0  0  0  0  0  0  0  0  0  0
   15.8647   -5.0844   44.7815 N   0  0  0  0  0  0  0  0  0  0  0  0
   22.3591   -2.1507   48.4900 N   0  0  0  0  0  0  0  0  0  0  0  0
   18.0597   -3.5609   43.6556 O   0  0  0  0  0  0  0  0  0  0  0  0
   19.6050   -4.5585   45.1121 O   0  0  0  0  0  0  0  0  0  0  0  0
   18.5411   -2.6075   48.1059 O   0  0  0  0  0  0  0  0  0  0  0  0
   21.3016   -4.6707   47.3730 O   0  0  0  0  0  0  0  0  0  0  0  0
   19.7573   -1.4202   49.6887 O   0  0  0  0  0  0  0  0  0  0  0  0
   19.1737   -1.8587   50.9012 C   0  0  2  0  0  0  0  0  0  0  0  0
   19.2086   -0.7820   51.9851 C   0  0  1  0  0  0  0  0  0  0  0  0
   20.6693   -0.4314   52.3807 C   0  0  2  0  0  0  0  0  0  0  0  0
   21.3578   -1.7483   52.8471 C   0  0  1  0  0  0  0  0  0  0  0  0
   21.3139   -2.7677   51.6617 C   0  0  1  0  0  0  0  0  0  0  0  0
   21.9124   -4.1095   52.0206 C   0  0  0  0  0  0  0  0  0  0  0  0
   22.7798   -1.4173   53.2374 N   0  0  0  0  0  0  0  0  0  0  0  0
   19.9043   -3.0404   51.3567 O   0  0  0  0  0  0  0  0  0  0  0  0
   18.5254    0.3767   51.4671 O   0  0  0  0  0  0  0  0  0  0  0  0
   20.6231    0.5021   53.4750 O   0  0  0  0  0  0  0  0  0  0  0  0
   23.2350   -3.9981   52.4217 O   0  0  0  0  0  0  0  0  0  0  0  0
   17.1480   -3.7715   42.5771 C   0  0  1  0  0  0  0  0  0  0  0  0
   16.2222   -2.5141   42.4079 C   0  0  1  0  0  0  0  0  0  0  0  0
   15.2384   -2.7639   41.2086 C   0  0  2  0  0  0  0  0  0  0  0  0
   16.0499   -2.9776   39.9219 C   0  0  1  0  0  0  0  0  0  0  0  0
   16.9686   -4.2490   40.0882 C   0  0  0  0  0  0  0  0  0  0  0  0
   17.9483   -4.0068   41.3032 C   0  0  2  0  0  0  0  0  0  0  0  0
   15.1285   -3.1887   38.8176 N   0  0  0  0  0  0  0  0  0  0  0  0
   18.8187   -5.1944   41.5078 N   0  0  0  0  0  0  0  0  0  0  0  0
   15.4511   -2.3072   43.6261 O   0  0  0  0  0  0  0  0  0  0  0  0
   14.4217   -1.6353   41.0421 O   0  0  0  0  0  0  0  0  0  0  0  0
  1  2  1  0  0  0  0
  1 12  1  1  0  0  0
  1 13  1  0  0  0  0
  2  3  1  0  0  0  0
  2 10  1  6  0  0  0
  4  3  1  6  0  0  0
  4  5  1  0  0  0  0
  4 14  1  0  0  0  0
  5  6  1  0  0  0  0
  5 13  1  6  0  0  0
  6  7  1  0  0  0  0
  6 15  1  1  0  0  0
  7  8  1  0  0  0  0
  7 11  1  1  0  0  0
  8 14  1  0  0  0  0
  8 16  1  1  0  0  0
  9 11  1  0  0  0  0
 17 16  1  6  0  0  0
 17 18  1  0  0  0  0
 17 24  1  0  0  0  0
 18 19  1  0  0  0  0
 18 25  1  6  0  0  0
 19 20  1  0  0  0  0
 19 26  1  1  0  0  0
 20 21  1  0  0  0  0
 20 23  1  6  0  0  0
 21 22  1  1  0  0  0
 21 24  1  0  0  0  0
 22 27  1  0  0  0  0
 28 12  1  1  0  0  0
 28 29  1  0  0  0  0
 28 33  1  0  0  0  0
 29 30  1  0  0  0  0
 29 36  1  1  0  0  0
 30 31  1  0  0  0  0
 30 37  1  6  0  0  0
 31 32  1  0  0  0  0
 31 34  1  6  0  0  0
 32 33  1  0  0  0  0
 33 35  1  1  0  0  0
M  END
>  <CHROM.1>
-80.16863343,88.84515811,-153.59101402,172.77877855,-58.74691813,141.11324127
19.03560149,-2.84479785,46.92675156,-2.08241663,-0.53798990,1.12428092

>  <Name>
2oe5_lig

>  <RI>
0

>  <Rbt.Current_Directory>
/home/itssahil/PROJECTS/Mol_Feturizer/New_Systems/rnas/2oe5

>  <Rbt.Executable>
rbdock ($Id: //depot/dev/client3/rdock/2013.1/src/exe/rbdock.cxx#4 $)

>  <Rbt.Library>
libRbt.so (2013.1, Build901 2013/11/27)

>  <Rbt.Parameter_File>
/export/apps/rDock/src/rDock_2013.1_src/data/scripts/dock_solv.prm

>  <Rbt.Receptor>
prm/blind_docking_100.prm

>  <SCORE>
-20.1716

>  <SCORE.INTER>
-19.2403

>  <SCORE.INTER.CONST>
1

>  <SCORE.INTER.POLAR>
-1.56312

>  <SCORE.INTER.ROT>
6

>  <SCORE.INTER.SOLV>
12.9234

>  <SCORE.INTER.VDW>
-19.5243

>  <SCORE.INTER.norm>
-0.520009

>  <SCORE.INTRA>
-1.52879

>  <SCORE.INTRA.DIHEDRAL>
-5.36621

>  <SCORE.INTRA.DIHEDRAL.0>
16.2083

>  <SCORE.INTRA.POLAR>
0

>  <SCORE.INTRA.POLAR.0>
0

>  <SCORE.INTRA.REPUL>
0

>  <SCORE.INTRA.REPUL.0>
0

>  <SCORE.INTRA.SOLV>
1.95048

>  <SCORE.INTRA.SOLV.lig_0>
-89.8095

>  <SCORE.INTRA.VDW>
0.17907

>  <SCORE.INTRA.VDW.0>
-3.19502

>  <SCORE.INTRA.norm>
-0.0413187

>  <SCORE.RESTR>
0.597537

>  <SCORE.RESTR.CAVITY>
0.597537

>  <SCORE.RESTR.norm>
0.0161496

>  <SCORE.SYSTEM>
0

>  <SCORE.SYSTEM.CONST>
0

>  <SCORE.SYSTEM.DIHEDRAL>
0

>  <SCORE.SYSTEM.SOLV>
0

>  <SCORE.SYSTEM.norm>
0

>  <SCORE.heavy>
37

>  <SCORE.norm>
-0.545178

>  <RMSD>
11.151

$$$$
2oe5_lig
 OpenBabel11021811463D
libRbt.so/2013.1/901 2013/11/27
 37 40  0  0  0  0  0  0  0  0999 V2000
   18.3655   -4.6824   44.3966 C   0  0  1  0  0  0  0  0  0  0  0  0
   17.4228   -5.0168   45.5742 C   0  0  1  0  0  0  0  0  0  0  0  0
   17.4886   -3.8582   46.6374 C   0  0  0  0  0  0  0  0  0  0  0  0
   18.9691   -3.7890   47.0742 C   0  0  1  0  0  0  0  0  0  0  0  0
   19.9262   -3.4485   45.8478 C   0  0  1  0  0  0  0  0  0  0  0  0
   21.4194   -3.3670   46.2670 C   0  0  1  0  0  0  0  0  0  0  0  0
   21.5239   -2.2550   47.3492 C   0  0  1  0  0  0  0  0  0  0  0  0
   20.5304   -2.6073   48.5206 C   0  0  2  0  0  0  0  0  0  0  0  0
   23.3020   -1.1435   48.9194 C   0  0  0  0  0  0  0  0  0  0  0  0
   16.0321   -5.1582   45.0846 N   0  0  0  0  0  0  0  0  0  0  0  0
   22.9445   -2.1430   47.8532 N   0  0  0  0  0  0  0  0  0  0  0  0
   17.9609   -3.4888   43.7062 O   0  0  0  0  0  0  0  0  0  0  0  0
   19.7564   -4.4922   44.8348 O   0  0  0  0  0  0  0  0  0  0  0  0
   19.1326   -2.7406   48.0666 O   0  0  0  0  0  0  0  0  0  0  0  0
   21.8033   -4.6461   46.7816 O   0  0  0  0  0  0  0  0  0  0  0  0
   20.5512   -1.5841   49.4962 O   0  0  0  0  0  0  0  0  0  0  0  0
   19.8529   -1.9997   50.6549 C   0  0  2  0  0  0  0  0  0  0  0  0
   19.7659   -0.8954   51.7078 C   0  0  1  0  0  0  0  0  0  0  0  0
   21.1750   -0.5147   52.2392 C   0  0  2  0  0  0  0  0  0  0  0  0
   21.8275   -1.8096   52.8076 C   0  0  1  0  0  0  0  0  0  0  0  0
   21.9153   -2.8592   51.6514 C   0  0  1  0  0  0  0  0  0  0  0  0
   22.4894   -4.1831   52.1045 C   0  0  0  0  0  0  0  0  0  0  0  0
   23.1990   -1.4491   53.3303 N   0  0  0  0  0  0  0  0  0  0  0  0
   20.5469   -3.1592   51.2132 O   0  0  0  0  0  0  0  0  0  0  0  0
   19.1256    0.2401   51.0928 O   0  0  0  0  0  0  0  0  0  0  0  0
   21.0078    0.4456   53.2979 O   0  0  0  0  0  0  0  0  0  0  0  0
   23.7893   -4.0539   52.5696 O   0  0  0  0  0  0  0  0  0  0  0  0
   17.0672   -3.7181   42.6166 C   0  0  1  0  0  0  0  0  0  0  0  0
   16.1207   -2.4782   42.4327 C   0  0  1  0  0  0  0  0  0  0  0  0
   15.1572   -2.7483   41.2215 C   0  0  2  0  0  0  0  0  0  0  0  0
   15.9890   -2.9496   39.9458 C   0  0  1  0  0  0  0  0  0  0  0  0
   16.9285   -4.2037   40.1266 C   0  0  0  0  0  0  0  0  0  0  0  0
   17.8878   -3.9412   41.3535 C   0  0  2  0  0  0  0  0  0  0  0  0
   15.0858   -3.1797   38.8302 N   0  0  0  0  0  0  0  0  0  0  0  0
   18.7771   -5.1123   41.5718 N   0  0  0  0  0  0  0  0  0  0  0  0
   15.3304   -2.2831   43.6405 O   0  0  0  0  0  0  0  0  0  0  0  0
   14.3223   -1.6352   41.0420 O   0  0  0  0  0  0  0  0  0  0  0  0
  1  2  1  0  0  0  0
  1 12  1  1  0  0  0
  1 13  1  0  0  0  0
  2  3  1  0  0  0  0
  2 10  1  6  0  0  0
  4  3  1  6  0  0  0
  4  5  1  0  0  0  0
  4 14  1  0  0  0  0
  5  6  1  0  0  0  0
  5 13  1  6  0  0  0
  6  7  1  0  0  0  0
  6 15  1  1  0  0  0
  7  8  1  0  0  0  0
  7 11  1  1  0  0  0
  8 14  1  0  0  0  0
  8 16  1  1  0  0  0
  9 11  1  0  0  0  0
 17 16  1  6  0  0  0
 17 18  1  0  0  0  0
 17 24  1  0  0  0  0
 18 19  1  0  0  0  0
 18 25  1  6  0  0  0
 19 20  1  0  0  0  0
 19 26  1  1  0  0  0
 20 21  1  0  0  0  0
 20 23  1  6  0  0  0
 21 22  1  1  0  0  0
 21 24  1  0  0  0  0
 22 27  1  0  0  0  0
 28 12  1  1  0  0  0
 28 29  1  0  0  0  0
 28 33  1  0  0  0  0
 29 30  1  0  0  0  0
 29 36  1  1  0  0  0
 30 31  1  0  0  0  0
 30 37  1  6  0  0  0
 31 32  1  0  0  0  0
 31 34  1  6  0  0  0
 32 33  1  0  0  0  0
 33 35  1  1  0  0  0
M  END
>  <CHROM.1>
-90.79638146,-179.37898647,-169.53309240,-176.23867946,-61.86802399,149.92155833
19.32810774,-2.86953408,46.86004095,-2.15272905,-0.55056534,1.08485082

>  <Name>
2oe5_lig

>  <RI>
0

>  <Rbt.Current_Directory>
/home/itssahil/PROJECTS/Mol_Feturizer/New_Systems/rnas/2oe5

>  <Rbt.Executable>
rbdock ($Id: //depot/dev/client3/rdock/2013.1/src/exe/rbdock.cxx#4 $)

>  <Rbt.Library>
libRbt.so (2013.1, Build901 2013/11/27)

>  <Rbt.Parameter_File>
/export/apps/rDock/src/rDock_2013.1_src/data/scripts/dock_solv.prm

>  <Rbt.Receptor>
prm/blind_docking_60.prm

>  <SCORE>
-20.0145

>  <SCORE.INTER>
-17.5471

>  <SCORE.INTER.CONST>
1

>  <SCORE.INTER.POLAR>
-1.29133

>  <SCORE.INTER.ROT>
6

>  <SCORE.INTER.SOLV>
12.6062

>  <SCORE.INTER.VDW>
-19.1957

>  <SCORE.INTER.norm>
-0.474247

>  <SCORE.INTRA>
-2.46738

>  <SCORE.INTRA.DIHEDRAL>
-8.18793

>  <SCORE.INTRA.DIHEDRAL.0>
16.2083

>  <SCORE.INTRA.POLAR>
0

>  <SCORE.INTRA.POLAR.0>
0

>  <SCORE.INTRA.REPUL>
0

>  <SCORE.INTRA.REPUL.0>
0

>  <SCORE.INTRA.SOLV>
1.2077

>  <SCORE.INTRA.SOLV.lig_0>
-89.8095

>  <SCORE.INTRA.VDW>
1.02274

>  <SCORE.INTRA.VDW.0>
-3.19502

>  <SCORE.INTRA.norm>
-0.066686

>  <SCORE.RESTR>
0

>  <SCORE.RESTR.CAVITY>
0

>  <SCORE.RESTR.norm>
0

>  <SCORE.SYSTEM>
0

>  <SCORE.SYSTEM.CONST>
0

>  <SCORE.SYSTEM.DIHEDRAL>
0

>  <SCORE.SYSTEM.SOLV>
0

>  <SCORE.SYSTEM.norm>
0

>  <SCORE.heavy>
37

>  <SCORE.norm>
-0.540933

>  <RMSD>
11.152

$$$$
2oe5_lig
 OpenBabel11021811463D
libRbt.so/2013.1/901 2013/11/27
 37 40  0  0  0  0  0  0  0  0999 V2000
   17.0890   -3.1641   43.4745 C   0  0  1  0  0  0  0  0  0  0  0  0
   18.5320   -2.8572   43.0151 C   0  0  1  0  0  0  0  0  0  0  0  0
   19.5416   -3.7109   43.8689 C   0  0  0  0  0  0  0  0  0  0  0  0
   19.2924   -3.2914   45.3350 C   0  0  1  0  0  0  0  0  0  0  0  0
   17.7998   -3.6104   45.7897 C   0  0  1  0  0  0  0  0  0  0  0  0
   17.5301   -3.2028   47.2639 C   0  0  1  0  0  0  0  0  0  0  0  0
   18.5365   -3.9984   48.1430 C   0  0  1  0  0  0  0  0  0  0  0  0
   19.9946   -3.6894   47.6317 C   0  0  2  0  0  0  0  0  0  0  0  0
   18.9140   -4.5138   50.6836 C   0  0  0  0  0  0  0  0  0  0  0  0
   18.6894   -3.1956   41.5819 N   0  0  0  0  0  0  0  0  0  0  0  0
   18.3767   -3.6214   49.5979 N   0  0  0  0  0  0  0  0  0  0  0  0
   16.7340   -4.5382   43.2493 O   0  0  0  0  0  0  0  0  0  0  0  0
   16.8890   -2.8822   44.9039 O   0  0  0  0  0  0  0  0  0  0  0  0
   20.1877   -4.0300   46.2088 O   0  0  0  0  0  0  0  0  0  0  0  0
   17.7303   -1.7900   47.3743 O   0  0  0  0  0  0  0  0  0  0  0  0
   20.9354   -4.4457   48.3680 O   0  0  0  0  0  0  0  0  0  0  0  0
   22.2357   -4.2518   47.8437 C   0  0  2  0  0  0  0  0  0  0  0  0
   23.1913   -5.3804   48.2290 C   0  0  1  0  0  0  0  0  0  0  0  0
   23.4130   -5.4277   49.7658 C   0  0  2  0  0  0  0  0  0  0  0  0
   23.9523   -4.0341   50.2050 C   0  0  1  0  0  0  0  0  0  0  0  0
   22.8908   -2.9547   49.8119 C   0  0  1  0  0  0  0  0  0  0  0  0
   23.3345   -1.5480   50.1463 C   0  0  0  0  0  0  0  0  0  0  0  0
   24.1742   -4.0706   51.6994 N   0  0  0  0  0  0  0  0  0  0  0  0
   22.7460   -2.9791   48.3515 O   0  0  0  0  0  0  0  0  0  0  0  0
   22.6172   -6.6149   47.7555 O   0  0  0  0  0  0  0  0  0  0  0  0
   24.4014   -6.4363   50.0429 O   0  0  0  0  0  0  0  0  0  0  0  0
   22.3351   -0.6172   49.9073 O   0  0  0  0  0  0  0  0  0  0  0  0
   15.3584   -4.7410   42.9247 C   0  0  1  0  0  0  0  0  0  0  0  0
   14.4485   -4.0283   43.9882 C   0  0  1  0  0  0  0  0  0  0  0  0
   12.9422   -4.2541   43.6026 C   0  0  2  0  0  0  0  0  0  0  0  0
   12.6767   -3.6493   42.2158 C   0  0  1  0  0  0  0  0  0  0  0  0
   13.5807   -4.3758   41.1467 C   0  0  0  0  0  0  0  0  0  0  0  0
   15.0954   -4.1635   41.5405 C   0  0  2  0  0  0  0  0  0  0  0  0
   11.2765   -3.8480   41.8793 N   0  0  0  0  0  0  0  0  0  0  0  0
   15.9823   -4.8534   40.5672 N   0  0  0  0  0  0  0  0  0  0  0  0
   14.6974   -4.5983   45.3052 O   0  0  0  0  0  0  0  0  0  0  0  0
   12.1260   -3.6034   44.5400 O   0  0  0  0  0  0  0  0  0  0  0  0
  1  2  1  0  0  0  0
  1 12  1  1  0  0  0
  1 13  1  0  0  0  0
  2  3  1  0  0  0  0
  2 10  1  6  0  0  0
  4  3  1  6  0  0  0
  4  5  1  0  0  0  0
  4 14  1  0  0  0  0
  5  6  1  0  0  0  0
  5 13  1  6  0  0  0
  6  7  1  0  0  0  0
  6 15  1  6  0  0  0
  7  8  1  0  0  0  0
  7 11  1  1  0  0  0
  8 14  1  0  0  0  0
  8 16  1  1  0  0  0
  9 11  1  0  0  0  0
 17 16  1  1  0  0  0
 17 18  1  0  0  0  0
 17 24  1  0  0  0  0
 18 19  1  0  0  0  0
 18 25  1  1  0  0  0
 19 20  1  0  0  0  0
 19 26  1  6  0  0  0
 20 21  1  0  0  0  0
 20 23  1  1  0  0  0
 21 22  1  6  0  0  0
 21 24  1  0  0  0  0
 22 27  1  0  0  0  0
 28 12  1  1  0  0  0
 28 29  1  0  0  0  0
 28 33  1  0  0  0  0
 29 30  1  0  0  0  0
 29 36  1  1  0  0  0
 30 31  1  0  0  0  0
 30 37  1  1  0  0  0
 31 32  1  0  0  0  0
 31 34  1  6  0  0  0
 32 33  1  0  0  0  0
 33 35  1  6  0  0  0
M  END
>  <CHROM.1>
-146.69673206,161.49692565,175.41879632,-159.13830848,-174.39321701,-51.34150047
18.68347521,-3.86350989,46.20850684,-2.47660553,-0.15378035,1.38305423

>  <Name>
2oe5_lig

>  <RI>
0

>  <Rbt.Current_Directory>
/home/itssahil/PROJECTS/Mol_Feturizer/New_Systems/rnas/2oe5

>  <Rbt.Executable>
rbdock ($Id: //depot/dev/client3/rdock/2013.1/src/exe/rbdock.cxx#4 $)

>  <Rbt.Library>
libRbt.so (2013.1, Build901 2013/11/27)

>  <Rbt.Parameter_File>
/export/apps/rDock/src/rDock_2013.1_src/data/scripts/dock_solv.prm

>  <Rbt.Receptor>
prm/blind_docking_80.prm

>  <SCORE>
-18.6523

>  <SCORE.INTER>
-15.4573

>  <SCORE.INTER.CONST>
1

>  <SCORE.INTER.POLAR>
-1.91823

>  <SCORE.INTER.ROT>
6

>  <SCORE.INTER.SOLV>
15.9863

>  <SCORE.INTER.VDW>
-16.8395

>  <SCORE.INTER.norm>
-0.417766

>  <SCORE.INTRA>
-3.19496

>  <SCORE.INTRA.DIHEDRAL>
-9.17236

>  <SCORE.INTRA.DIHEDRAL.0>
16.2083

>  <SCORE.INTRA.POLAR>
0

>  <SCORE.INTRA.POLAR.0>
0

>  <SCORE.INTRA.REPUL>
0

>  <SCORE.INTRA.REPUL.0>
0

>  <SCORE.INTRA.SOLV>
-0.7072

>  <SCORE.INTRA.SOLV.lig_0>
-89.8095

>  <SCORE.INTRA.VDW>
1.74482

>  <SCORE.INTRA.VDW.0>
-3.19502

>  <SCORE.INTRA.norm>
-0.0863503

>  <SCORE.RESTR>
0

>  <SCORE.RESTR.CAVITY>
0

>  <SCORE.RESTR.norm>
0

>  <SCORE.SYSTEM>
0

>  <SCORE.SYSTEM.CONST>
0

>  <SCORE.SYSTEM.DIHEDRAL>
0

>  <SCORE.SYSTEM.SOLV>
0

>  <SCORE.SYSTEM.norm>
0

>  <SCORE.heavy>
37

>  <SCORE.norm>
-0.504116

>  <RMSD>
11.172

$$$$
2oe5_lig
 OpenBabel11021811463D
libRbt.so/2013.1/901 2013/11/27
 37 40  0  0  0  0  0  0  0  0999 V2000
   17.4169   -5.4490   45.2368 C   0  0  1  0  0  0  0  0  0  0  0  0
   16.6471   -5.5577   46.5720 C   0  0  1  0  0  0  0  0  0  0  0  0
   16.9358   -4.2794   47.4436 C   0  0  0  0  0  0  0  0  0  0  0  0
   18.4670   -4.2638   47.6503 C   0  0  1  0  0  0  0  0  0  0  0  0
   19.2439   -4.1564   46.2642 C   0  0  1  0  0  0  0  0  0  0  0  0
   20.7856   -4.1319   46.4501 C   0  0  1  0  0  0  0  0  0  0  0  0
   21.1128   -2.9000   47.3412 C   0  0  1  0  0  0  0  0  0  0  0  0
   20.2911   -3.0236   48.6802 C   0  0  2  0  0  0  0  0  0  0  0  0
   23.2136   -1.5746   48.1737 C   0  0  0  0  0  0  0  0  0  0  0  0
   15.1928   -5.6582   46.3109 N   0  0  0  0  0  0  0  0  0  0  0  0
   22.5974   -2.8290   47.6163 N   0  0  0  0  0  0  0  0  0  0  0  0
   16.9771   -4.3281   44.4525 O   0  0  0  0  0  0  0  0  0  0  0  0
   18.8664   -5.3069   45.4408 O   0  0  0  0  0  0  0  0  0  0  0  0
   18.8354   -3.1109   48.4538 O   0  0  0  0  0  0  0  0  0  0  0  0
   21.1736   -5.3585   47.0770 O   0  0  0  0  0  0  0  0  0  0  0  0
   20.5147   -1.8871   49.4912 O   0  0  0  0  0  0  0  0  0  0  0  0
   20.1328   -2.1575   50.8269 C   0  0  2  0  0  0  0  0  0  0  0  0
   19.9606   -0.8820   51.6509 C   0  0  1  0  0  0  0  0  0  0  0  0
   21.3073   -0.1215   51.7958 C   0  0  2  0  0  0  0  0  0  0  0  0
   22.3307   -1.0996   52.4454 C   0  0  1  0  0  0  0  0  0  0  0  0
   22.4738   -2.3462   51.5117 C   0  0  1  0  0  0  0  0  0  0  0  0
   23.4101   -3.3934   52.0724 C   0  0  0  0  0  0  0  0  0  0  0  0
   23.6447   -0.3678   52.5934 N   0  0  0  0  0  0  0  0  0  0  0  0
   21.1623   -3.0005   51.4329 O   0  0  0  0  0  0  0  0  0  0  0  0
   18.9790   -0.0642   50.9836 O   0  0  0  0  0  0  0  0  0  0  0  0
   21.0933    1.0022   52.6690 O   0  0  0  0  0  0  0  0  0  0  0  0
   22.9386   -3.9289   53.2613 O   0  0  0  0  0  0  0  0  0  0  0  0
   17.4476   -4.3371   43.1044 C   0  0  1  0  0  0  0  0  0  0  0  0
   16.4127   -5.0765   42.1829 C   0  0  1  0  0  0  0  0  0  0  0  0
   16.9454   -5.0617   40.7050 C   0  0  2  0  0  0  0  0  0  0  0  0
   17.0998   -3.6074   40.2352 C   0  0  1  0  0  0  0  0  0  0  0  0
   18.1501   -2.8702   41.1526 C   0  0  0  0  0  0  0  0  0  0  0  0
   17.6243   -2.8972   42.6417 C   0  0  2  0  0  0  0  0  0  0  0  0
   17.5749   -3.6077   38.8614 N   0  0  0  0  0  0  0  0  0  0  0  0
   18.5990   -2.2299   43.5443 N   0  0  0  0  0  0  0  0  0  0  0  0
   16.2626   -6.4561   42.6252 O   0  0  0  0  0  0  0  0  0  0  0  0
   16.0149   -5.7051   39.8752 O   0  0  0  0  0  0  0  0  0  0  0  0
  1  2  1  0  0  0  0
  1 12  1  1  0  0  0
  1 13  1  0  0  0  0
  2  3  1  0  0  0  0
  2 10  1  6  0  0  0
  4  3  1  6  0  0  0
  4  5  1  0  0  0  0
  4 14  1  0  0  0  0
  5  6  1  0  0  0  0
  5 13  1  6  0  0  0
  6  7  1  0  0  0  0
  6 15  1  1  0  0  0
  7  8  1  0  0  0  0
  7 11  1  1  0  0  0
  8 14  1  0  0  0  0
  8 16  1  1  0  0  0
  9 11  1  0  0  0  0
 17 16  1  6  0  0  0
 17 18  1  0  0  0  0
 17 24  1  0  0  0  0
 18 19  1  0  0  0  0
 18 25  1  6  0  0  0
 19 20  1  0  0  0  0
 19 26  1  1  0  0  0
 20 21  1  0  0  0  0
 20 23  1  6  0  0  0
 21 22  1  1  0  0  0
 21 24  1  0  0  0  0
 22 27  1  0  0  0  0
 28 12  1  1  0  0  0
 28 29  1  0  0  0  0
 28 33  1  0  0  0  0
 29 30  1  0  0  0  0
 29 36  1  1  0  0  0
 30 31  1  0  0  0  0
 30 37  1  6  0  0  0
 31 32  1  0  0  0  0
 31 34  1  6  0  0  0
 32 33  1  0  0  0  0
 33 35  1  1  0  0  0
M  END
>  <CHROM.1>
-167.63743211,165.59843889,-162.16213992,-163.20165605,63.58677673,91.03980365
19.41395380,-3.29977729,47.03791507,2.17080731,-0.70630607,-1.45794648

>  <Name>
2oe5_lig

>  <RI>
0

>  <Rbt.Current_Directory>
/home/itssahil/PROJECTS/Mol_Feturizer/New_Systems/rnas/2oe5

>  <Rbt.Executable>
rbdock ($Id: //depot/dev/client3/rdock/2013.1/src/exe/rbdock.cxx#4 $)

>  <Rbt.Library>
libRbt.so (2013.1, Build901 2013/11/27)

>  <Rbt.Parameter_File>
/export/apps/rDock/src/rDock_2013.1_src/data/scripts/dock_solv.prm

>  <Rbt.Receptor>
prm/blind_docking_100.prm

>  <SCORE>
-23.5872

>  <SCORE.INTER>
-18.8194

>  <SCORE.INTER.CONST>
1

>  <SCORE.INTER.POLAR>
-2.41884

>  <SCORE.INTER.ROT>
6

>  <SCORE.INTER.SOLV>
16.0965

>  <SCORE.INTER.VDW>
-17.449

>  <SCORE.INTER.norm>
-0.508634

>  <SCORE.INTRA>
-4.91315

>  <SCORE.INTRA.DIHEDRAL>
-8.64049

>  <SCORE.INTRA.DIHEDRAL.0>
16.2083

>  <SCORE.INTRA.POLAR>
0

>  <SCORE.INTRA.POLAR.0>
0

>  <SCORE.INTRA.REPUL>
0

>  <SCORE.INTRA.REPUL.0>
0

>  <SCORE.INTRA.SOLV>
-0.623841

>  <SCORE.INTRA.SOLV.lig_0>
-89.8095

>  <SCORE.INTRA.VDW>
-0.280983

>  <SCORE.INTRA.VDW.0>
-3.19502

>  <SCORE.INTRA.norm>
-0.132788

>  <SCORE.RESTR>
0.14538

>  <SCORE.RESTR.CAVITY>
0.14538

>  <SCORE.RESTR.norm>
0.00392919

>  <SCORE.SYSTEM>
0

>  <SCORE.SYSTEM.CONST>
0

>  <SCORE.SYSTEM.DIHEDRAL>
0

>  <SCORE.SYSTEM.SOLV>
0

>  <SCORE.SYSTEM.norm>
0

>  <SCORE.heavy>
37

>  <SCORE.norm>
-0.637492

>  <RMSD>
11.173

$$$$
2oe5_lig
 OpenBabel11021811463D
libRbt.so/2013.1/901 2013/11/27
 37 40  0  0  0  0  0  0  0  0999 V2000
   15.4179   -5.9467   44.4426 C   0  0  1  0  0  0  0  0  0  0  0  0
   14.8659   -6.6486   45.7035 C   0  0  1  0  0  0  0  0  0  0  0  0
   15.2884   -5.8307   46.9802 C   0  0  0  0  0  0  0  0  0  0  0  0
   16.8330   -5.8033   46.9544 C   0  0  1  0  0  0  0  0  0  0  0  0
   17.3841   -5.0811   45.6463 C   0  0  1  0  0  0  0  0  0  0  0  0
   18.9360   -5.0363   45.6042 C   0  0  1  0  0  0  0  0  0  0  0  0
   19.3995   -4.2662   46.8734 C   0  0  1  0  0  0  0  0  0  0  0  0
   18.7968   -4.9864   48.1388 C   0  0  2  0  0  0  0  0  0  0  0  0
   21.6891   -3.3392   46.0010 C   0  0  0  0  0  0  0  0  0  0  0  0
   13.3885   -6.7255   45.6339 N   0  0  0  0  0  0  0  0  0  0  0  0
   20.9089   -4.2199   46.9388 N   0  0  0  0  0  0  0  0  0  0  0  0
   14.8622   -4.6326   44.2721 O   0  0  0  0  0  0  0  0  0  0  0  0
   16.8816   -5.8087   44.4791 O   0  0  0  0  0  0  0  0  0  0  0  0
   17.3235   -5.0659   48.1061 O   0  0  0  0  0  0  0  0  0  0  0  0
   19.4159   -6.3846   45.5965 O   0  0  0  0  0  0  0  0  0  0  0  0
   19.1454   -4.2765   49.3108 O   0  0  0  0  0  0  0  0  0  0  0  0
   19.3763   -5.1777   50.3773 C   0  0  2  0  0  0  0  0  0  0  0  0
   19.7355   -4.4591   51.6773 C   0  0  1  0  0  0  0  0  0  0  0  0
   21.0793   -3.6916   51.5412 C   0  0  2  0  0  0  0  0  0  0  0  0
   22.1693   -4.7243   51.1275 C   0  0  1  0  0  0  0  0  0  0  0  0
   21.7383   -5.3706   49.7700 C   0  0  1  0  0  0  0  0  0  0  0  0
   22.7035   -6.4337   49.2950 C   0  0  0  0  0  0  0  0  0  0  0  0
   23.4822   -3.9876   50.9952 N   0  0  0  0  0  0  0  0  0  0  0  0
   20.4673   -6.0709   49.9903 O   0  0  0  0  0  0  0  0  0  0  0  0
   18.6567   -3.5538   51.9844 O   0  0  0  0  0  0  0  0  0  0  0  0
   21.4066   -3.1341   52.8270 O   0  0  0  0  0  0  0  0  0  0  0  0
   23.9479   -5.9055   48.9866 O   0  0  0  0  0  0  0  0  0  0  0  0
   15.2421   -3.9905   43.0546 C   0  0  1  0  0  0  0  0  0  0  0  0
   16.7168   -3.4620   43.1677 C   0  0  1  0  0  0  0  0  0  0  0  0
   17.1158   -2.7725   41.8136 C   0  0  2  0  0  0  0  0  0  0  0  0
   17.0274   -3.8000   40.6750 C   0  0  1  0  0  0  0  0  0  0  0  0
   15.5428   -4.3191   40.5534 C   0  0  0  0  0  0  0  0  0  0  0  0
   15.1338   -4.9991   41.9189 C   0  0  2  0  0  0  0  0  0  0  0  0
   17.4168   -3.1550   39.4319 N   0  0  0  0  0  0  0  0  0  0  0  0
   13.7299   -5.4835   41.8531 N   0  0  0  0  0  0  0  0  0  0  0  0
   16.8056   -2.4877   44.2468 O   0  0  0  0  0  0  0  0  0  0  0  0
   18.4391   -2.3152   41.9037 O   0  0  0  0  0  0  0  0  0  0  0  0
  1  2  1  0  0  0  0
  1 12  1  1  0  0  0
  1 13  1  0  0  0  0
  2  3  1  0  0  0  0
  2 10  1  6  0  0  0
  4  3  1  6  0  0  0
  4  5  1  0  0  0  0
  4 14  1  0  0  0  0
  5  6  1  0  0  0  0
  5 13  1  6  0  0  0
  6  7  1  0  0  0  0
  6 15  1  1  0  0  0
  7  8  1  0  0  0  0
  7 11  1  1  0  0  0
  8 14  1  0  0  0  0
  8 16  1  1  0  0  0
  9 11  1  0  0  0  0
 17 16  1  6  0  0  0
 17 18  1  0  0  0  0
 17 24  1  0  0  0  0
 18 19  1  0  0  0  0
 18 25  1  6  0  0  0
 19 20  1  0  0  0  0
 19 26  1  1  0  0  0
 20 21  1  0  0  0  0
 20 23  1  6  0  0  0
 21 22  1  1  0  0  0
 21 24  1  0  0  0  0
 22 27  1  0  0  0  0
 28 12  1  1  0  0  0
 28 29  1  0  0  0  0
 28 33  1  0  0  0  0
 29 30  1  0  0  0  0
 29 36  1  1  0  0  0
 30 31  1  0  0  0  0
 30 37  1  1  0  0  0
 31 32  1  0  0  0  0
 31 34  1  6  0  0  0
 32 33  1  0  0  0  0
 33 35  1  6  0  0  0
M  END
>  <CHROM.1>
-174.36008047,72.59351344,-144.24406485,-179.07871725,-65.32473261,-76.30861633
18.37395704,-4.67419189,46.47131040,2.18611397,-0.26857620,-1.35627429

>  <Name>
2oe5_lig

>  <RI>
0

>  <Rbt.Current_Directory>
/home/itssahil/PROJECTS/Mol_Feturizer/New_Systems/rnas/2oe5

>  <Rbt.Executable>
rbdock ($Id: //depot/dev/client3/rdock/2013.1/src/exe/rbdock.cxx#4 $)

>  <Rbt.Library>
libRbt.so (2013.1, Build901 2013/11/27)

>  <Rbt.Parameter_File>
/export/apps/rDock/src/rDock_2013.1_src/data/scripts/dock_solv.prm

>  <Rbt.Receptor>
prm/blind_docking_80.prm

>  <SCORE>
-23.6972

>  <SCORE.INTER>
-21.2233

>  <SCORE.INTER.CONST>
1

>  <SCORE.INTER.POLAR>
-2.72147

>  <SCORE.INTER.ROT>
6

>  <SCORE.INTER.SOLV>
12.124

>  <SCORE.INTER.VDW>
-16.7187

>  <SCORE.INTER.norm>
-0.573603

>  <SCORE.INTRA>
-2.47388

>  <SCORE.INTRA.DIHEDRAL>
-9.85487

>  <SCORE.INTRA.DIHEDRAL.0>
16.2083

>  <SCORE.INTRA.POLAR>
0

>  <SCORE.INTRA.POLAR.0>
0

>  <SCORE.INTRA.REPUL>
0

>  <SCORE.INTRA.REPUL.0>
0

>  <SCORE.INTRA.SOLV>
0.657399

>  <SCORE.INTRA.SOLV.lig_0>
-89.8095

>  <SCORE.INTRA.VDW>
2.12486

>  <SCORE.INTRA.VDW.0>
-3.19502

>  <SCORE.INTRA.norm>
-0.0668615

>  <SCORE.RESTR>
0

>  <SCORE.RESTR.CAVITY>
0

>  <SCORE.RESTR.norm>
0

>  <SCORE.SYSTEM>
0

>  <SCORE.SYSTEM.CONST>
0

>  <SCORE.SYSTEM.DIHEDRAL>
0

>  <SCORE.SYSTEM.SOLV>
0

>  <SCORE.SYSTEM.norm>
0

>  <SCORE.heavy>
37

>  <SCORE.norm>
-0.640465

>  <RMSD>
11.181

$$$$
2oe5_lig
 OpenBabel11021811463D
libRbt.so/2013.1/901 2013/11/27
 37 40  0  0  0  0  0  0  0  0999 V2000
   16.8683   -3.2515   43.6754 C   0  0  1  0  0  0  0  0  0  0  0  0
   18.2962   -3.0040   43.1396 C   0  0  1  0  0  0  0  0  0  0  0  0
   19.3171   -3.8783   43.9586 C   0  0  0  0  0  0  0  0  0  0  0  0
   19.1561   -3.4252   45.4270 C   0  0  1  0  0  0  0  0  0  0  0  0
   17.6779   -3.6830   45.9607 C   0  0  1  0  0  0  0  0  0  0  0  0
   17.4965   -3.2409   47.4384 C   0  0  1  0  0  0  0  0  0  0  0  0
   18.5174   -4.0567   48.2817 C   0  0  1  0  0  0  0  0  0  0  0  0
   19.9580   -3.8084   47.6933 C   0  0  2  0  0  0  0  0  0  0  0  0
   18.9561   -4.5647   50.8139 C   0  0  0  0  0  0  0  0  0  0  0  0
   18.3701   -3.3722   41.7070 N   0  0  0  0  0  0  0  0  0  0  0  0
   18.4437   -3.6493   49.7354 N   0  0  0  0  0  0  0  0  0  0  0  0
   16.4550   -4.6157   43.4939 O   0  0  0  0  0  0  0  0  0  0  0  0
   16.7498   -2.9382   45.1074 O   0  0  0  0  0  0  0  0  0  0  0  0
   20.0679   -4.1800   46.2693 O   0  0  0  0  0  0  0  0  0  0  0  0
   17.7508   -1.8345   47.5121 O   0  0  0  0  0  0  0  0  0  0  0  0
   20.9077   -4.5850   48.3964 O   0  0  0  0  0  0  0  0  0  0  0  0
   22.1600   -4.5382   47.7388 C   0  0  2  0  0  0  0  0  0  0  0  0
   23.2107   -5.4079   48.4283 C   0  0  1  0  0  0  0  0  0  0  0  0
   23.5213   -4.8853   49.8578 C   0  0  2  0  0  0  0  0  0  0  0  0
   23.9881   -3.4053   49.7248 C   0  0  1  0  0  0  0  0  0  0  0  0
   22.8350   -2.5888   49.0540 C   0  0  1  0  0  0  0  0  0  0  0  0
   23.1998   -1.1388   48.8263 C   0  0  0  0  0  0  0  0  0  0  0  0
   24.2959   -2.8879   51.1110 N   0  0  0  0  0  0  0  0  0  0  0  0
   22.6101   -3.1473   47.7153 O   0  0  0  0  0  0  0  0  0  0  0  0
   22.6964   -6.7537   48.4748 O   0  0  0  0  0  0  0  0  0  0  0  0
   24.5903   -5.6810   50.4010 O   0  0  0  0  0  0  0  0  0  0  0  0
   24.0710   -0.9836   47.7588 O   0  0  0  0  0  0  0  0  0  0  0  0
   15.1091   -4.7636   43.0410 C   0  0  1  0  0  0  0  0  0  0  0  0
   14.1345   -3.9960   44.0042 C   0  0  1  0  0  0  0  0  0  0  0  0
   12.6633   -4.1621   43.4784 C   0  0  2  0  0  0  0  0  0  0  0  0
   12.5586   -3.5675   42.0658 C   0  0  1  0  0  0  0  0  0  0  0  0
   13.5273   -4.3488   41.0965 C   0  0  0  0  0  0  0  0  0  0  0  0
   15.0054   -4.1964   41.6316 C   0  0  2  0  0  0  0  0  0  0  0  0
   11.1895   -3.7105   41.5987 N   0  0  0  0  0  0  0  0  0  0  0  0
   15.9495   -4.9390   40.7557 N   0  0  0  0  0  0  0  0  0  0  0  0
   14.2309   -4.5561   45.3453 O   0  0  0  0  0  0  0  0  0  0  0  0
   11.7912   -3.4623   44.3257 O   0  0  0  0  0  0  0  0  0  0  0  0
  1  2  1  0  0  0  0
  1 12  1  1  0  0  0
  1 13  1  0  0  0  0
  2  3  1  0  0  0  0
  2 10  1  6  0  0  0
  4  3  1  6  0  0  0
  4  5  1  0  0  0  0
  4 14  1  0  0  0  0
  5  6  1  0  0  0  0
  5 13  1  6  0  0  0
  6  7  1  0  0  0  0
  6 15  1  6  0  0  0
  7  8  1  0  0  0  0
  7 11  1  1  0  0  0
  8 14  1  0  0  0  0
  8 16  1  1  0  0  0
  9 11  1  0  0  0  0
 17 16  1  1  0  0  0
 17 18  1  0  0  0  0
 17 24  1  0  0  0  0
 18 19  1  0  0  0  0
 18 25  1  1  0  0  0
 19 20  1  0  0  0  0
 19 26  1  6  0  0  0
 20 21  1  0  0  0  0
 20 23  1  1  0  0  0
 21 22  1  6  0  0  0
 21 24  1  0  0  0  0
 22 27  1  0  0  0  0
 28 12  1  1  0  0  0
 28 29  1  0  0  0  0
 28 33  1  0  0  0  0
 29 30  1  0  0  0  0
 29 36  1  1  0  0  0
 30 31  1  0  0  0  0
 30 37  1  1  0  0  0
 31 32  1  0  0  0  0
 31 34  1  6  0  0  0
 32 33  1  0  0  0  0
 33 35  1  6  0  0  0
M  END
>  <CHROM.1>
-137.58174940,159.16387138,170.40481822,-177.71545804,75.11052963,-54.18284182
18.63764963,-3.81860710,46.12658274,-2.51421084,0.03944490,1.60181570

>  <Name>
2oe5_lig

>  <RI>
0

>  <Rbt.Current_Directory>
/home/itssahil/PROJECTS/Mol_Feturizer/New_Systems/rnas/2oe5

>  <Rbt.Executable>
rbdock ($Id: //depot/dev/client3/rdock/2013.1/src/exe/rbdock.cxx#4 $)

>  <Rbt.Library>
libRbt.so (2013.1, Build901 2013/11/27)

>  <Rbt.Parameter_File>
/export/apps/rDock/src/rDock_2013.1_src/data/scripts/dock_solv.prm

>  <Rbt.Receptor>
prm/blind_docking_80.prm

>  <SCORE>
-18.5856

>  <SCORE.INTER>
-16.8435

>  <SCORE.INTER.CONST>
1

>  <SCORE.INTER.POLAR>
-1.90595

>  <SCORE.INTER.ROT>
6

>  <SCORE.INTER.SOLV>
14.7885

>  <SCORE.INTER.VDW>
-17.4054

>  <SCORE.INTER.norm>
-0.45523

>  <SCORE.INTRA>
-1.75218

>  <SCORE.INTRA.DIHEDRAL>
-8.68315

>  <SCORE.INTRA.DIHEDRAL.0>
16.2083

>  <SCORE.INTRA.POLAR>
0

>  <SCORE.INTRA.POLAR.0>
0

>  <SCORE.INTRA.REPUL>
0

>  <SCORE.INTRA.REPUL.0>
0

>  <SCORE.INTRA.SOLV>
0.399247

>  <SCORE.INTRA.SOLV.lig_0>
-89.8095

>  <SCORE.INTRA.VDW>
2.38978

>  <SCORE.INTRA.VDW.0>
-3.19502

>  <SCORE.INTRA.norm>
-0.0473561

>  <SCORE.RESTR>
0.0101229

>  <SCORE.RESTR.CAVITY>
0.0101229

>  <SCORE.RESTR.norm>
0.000273593

>  <SCORE.SYSTEM>
0

>  <SCORE.SYSTEM.CONST>
0

>  <SCORE.SYSTEM.DIHEDRAL>
0

>  <SCORE.SYSTEM.SOLV>
0

>  <SCORE.SYSTEM.norm>
0

>  <SCORE.heavy>
37

>  <SCORE.norm>
-0.502313

>  <RMSD>
11.181

$$$$
2oe5_lig
 OpenBabel11021811463D
libRbt.so/2013.1/901 2013/11/27
 37 40  0  0  0  0  0  0  0  0999 V2000
   17.7128   -5.1374   44.3633 C   0  0  1  0  0  0  0  0  0  0  0  0
   18.3005   -3.7735   43.9373 C   0  0  1  0  0  0  0  0  0  0  0  0
   19.4903   -3.3980   44.8968 C   0  0  0  0  0  0  0  0  0  0  0  0
   18.8737   -3.3531   46.3129 C   0  0  1  0  0  0  0  0  0  0  0  0
   18.2688   -4.7651   46.7332 C   0  0  1  0  0  0  0  0  0  0  0  0
   17.6499   -4.7436   48.1575 C   0  0  1  0  0  0  0  0  0  0  0  0
   18.7876   -4.3383   49.1374 C   0  0  1  0  0  0  0  0  0  0  0  0
   19.3867   -2.9612   48.6601 C   0  0  2  0  0  0  0  0  0  0  0  0
   19.1734   -4.4361   51.7267 C   0  0  0  0  0  0  0  0  0  0  0  0
   18.7962   -3.8492   42.5437 N   0  0  0  0  0  0  0  0  0  0  0  0
   18.2567   -4.2428   50.5493 N   0  0  0  0  0  0  0  0  0  0  0  0
   18.6727   -6.1994   44.2372 O   0  0  0  0  0  0  0  0  0  0  0  0
   17.2406   -5.1286   45.7560 O   0  0  0  0  0  0  0  0  0  0  0  0
   19.9030   -3.0083   47.2784 O   0  0  0  0  0  0  0  0  0  0  0  0
   16.5825   -3.7904   48.1601 O   0  0  0  0  0  0  0  0  0  0  0  0
   20.4682   -2.5903   49.4919 O   0  0  0  0  0  0  0  0  0  0  0  0
   20.8230   -1.2402   49.2589 C   0  0  2  0  0  0  0  0  0  0  0  0
   22.2615   -0.9374   49.6770 C   0  0  1  0  0  0  0  0  0  0  0  0
   22.4490   -1.1122   51.2091 C   0  0  2  0  0  0  0  0  0  0  0  0
   21.4279   -0.1728   51.9167 C   0  0  1  0  0  0  0  0  0  0  0  0
   19.9893   -0.5873   51.4643 C   0  0  1  0  0  0  0  0  0  0  0  0
   18.9127    0.2968   52.0531 C   0  0  0  0  0  0  0  0  0  0  0  0
   21.6044   -0.3333   53.4091 N   0  0  0  0  0  0  0  0  0  0  0  0
   19.9017   -0.3909   50.0123 O   0  0  0  0  0  0  0  0  0  0  0  0
   23.1224   -1.8356   48.9492 O   0  0  0  0  0  0  0  0  0  0  0  0
   23.7888   -0.7072   51.5435 O   0  0  0  0  0  0  0  0  0  0  0  0
   18.8652    0.2070   53.4360 O   0  0  0  0  0  0  0  0  0  0  0  0
   18.1573   -7.4936   44.5504 C   0  0  1  0  0  0  0  0  0  0  0  0
   17.2743   -8.0182   43.3621 C   0  0  1  0  0  0  0  0  0  0  0  0
   16.7304   -9.4470   43.7242 C   0  0  2  0  0  0  0  0  0  0  0  0
   17.9144  -10.4014   43.9409 C   0  0  1  0  0  0  0  0  0  0  0  0
   18.7922   -9.8810   45.1437 C   0  0  0  0  0  0  0  0  0  0  0  0
   19.3276   -8.4381   44.7888 C   0  0  2  0  0  0  0  0  0  0  0  0
   17.3979  -11.7231   44.2563 N   0  0  0  0  0  0  0  0  0  0  0  0
   20.1437   -7.9014   45.9095 N   0  0  0  0  0  0  0  0  0  0  0  0
   16.1504   -7.1157   43.1526 O   0  0  0  0  0  0  0  0  0  0  0  0
   15.9561   -9.9273   42.6574 O   0  0  0  0  0  0  0  0  0  0  0  0
  1  2  1  0  0  0  0
  1 12  1  1  0  0  0
  1 13  1  0  0  0  0
  2  3  1  0  0  0  0
  2 10  1  6  0  0  0
  4  3  1  6  0  0  0
  4  5  1  0  0  0  0
  4 14  1  0  0  0  0
  5  6  1  0  0  0  0
  5 13  1  6  0  0  0
  6  7  1  0  0  0  0
  6 15  1  6  0  0  0
  7  8  1  0  0  0  0
  7 11  1  1  0  0  0
  8 14  1  0  0  0  0
  8 16  1  1  0  0  0
  9 11  1  0  0  0  0
 17 16  1  1  0  0  0
 17 18  1  0  0  0  0
 17 24  1  0  0  0  0
 18 19  1  0  0  0  0
 18 25  1  6  0  0  0
 19 20  1  0  0  0  0
 19 26  1  1  0  0  0
 20 21  1  0  0  0  0
 20 23  1  1  0  0  0
 21 22  1  1  0  0  0
 21 24  1  0  0  0  0
 22 27  1  0  0  0  0
 28 12  1  6  0  0  0
 28 29  1  0  0  0  0
 28 33  1  0  0  0  0
 29 30  1  0  0  0  0
 29 36  1  1  0  0  0
 30 31  1  0  0  0  0
 30 37  1  6  0  0  0
 31 32  1  0  0  0  0
 31 34  1  1  0  0  0
 32 33  1  0  0  0  0
 33 35  1  1  0  0  0
M  END
>  <CHROM.1>
-176.80325911,154.44695685,-167.43448852,-157.44122806,-63.23295826,76.42626410
19.15054805,-4.36800822,47.49788834,-2.44729827,1.16999435,1.61457785

>  <Name>
2oe5_lig

>  <RI>
0

>  <Rbt.Current_Directory>
/home/itssahil/PROJECTS/Mol_Feturizer/New_Systems/rnas/2oe5

>  <Rbt.Executable>
rbdock ($Id: //depot/dev/client3/rdock/2013.1/src/exe/rbdock.cxx#4 $)

>  <Rbt.Library>
libRbt.so (2013.1, Build901 2013/11/27)

>  <Rbt.Parameter_File>
/export/apps/rDock/src/rDock_2013.1_src/data/scripts/dock_solv.prm

>  <Rbt.Receptor>
prm/pocket_docking_8.prm

>  <SCORE>
-25.6389

>  <SCORE.INTER>
-19.3939

>  <SCORE.INTER.CONST>
1

>  <SCORE.INTER.POLAR>
-1.98466

>  <SCORE.INTER.ROT>
6

>  <SCORE.INTER.SOLV>
13.4663

>  <SCORE.INTER.VDW>
-18.4025

>  <SCORE.INTER.norm>
-0.524159

>  <SCORE.INTRA>
-6.24503

>  <SCORE.INTRA.DIHEDRAL>
-11.3336

>  <SCORE.INTRA.DIHEDRAL.0>
16.2083

>  <SCORE.INTRA.POLAR>
0

>  <SCORE.INTRA.POLAR.0>
0

>  <SCORE.INTRA.REPUL>
0

>  <SCORE.INTRA.REPUL.0>
0

>  <SCORE.INTRA.SOLV>
-1.65371

>  <SCORE.INTRA.SOLV.lig_0>
-89.8095

>  <SCORE.INTRA.VDW>
0.248637

>  <SCORE.INTRA.VDW.0>
-3.19502

>  <SCORE.INTRA.norm>
-0.168785

>  <SCORE.RESTR>
0

>  <SCORE.RESTR.CAVITY>
0

>  <SCORE.RESTR.norm>
0

>  <SCORE.SYSTEM>
0

>  <SCORE.SYSTEM.CONST>
0

>  <SCORE.SYSTEM.DIHEDRAL>
0

>  <SCORE.SYSTEM.SOLV>
0

>  <SCORE.SYSTEM.norm>
0

>  <SCORE.heavy>
37

>  <SCORE.norm>
-0.692944

>  <RMSD>
11.190

$$$$
2oe5_lig
 OpenBabel11021811463D
libRbt.so/2013.1/901 2013/11/27
 37 40  0  0  0  0  0  0  0  0999 V2000
   14.6343   -5.4120   45.1337 C   0  0  1  0  0  0  0  0  0  0  0  0
   14.4515   -6.1075   46.5012 C   0  0  1  0  0  0  0  0  0  0  0  0
   15.3654   -5.4004   47.5698 C   0  0  0  0  0  0  0  0  0  0  0  0
   16.8066   -5.5396   47.0303 C   0  0  1  0  0  0  0  0  0  0  0  0
   16.9753   -4.8217   45.6188 C   0  0  1  0  0  0  0  0  0  0  0  0
   18.4199   -4.9436   45.0616 C   0  0  1  0  0  0  0  0  0  0  0  0
   19.3641   -4.2881   46.1092 C   0  0  1  0  0  0  0  0  0  0  0  0
   19.1331   -4.9965   47.4977 C   0  0  2  0  0  0  0  0  0  0  0  0
   21.3624   -3.4895   44.6152 C   0  0  0  0  0  0  0  0  0  0  0  0
   13.0360   -6.0203   46.9280 N   0  0  0  0  0  0  0  0  0  0  0  0
   20.8046   -4.4089   45.6675 N   0  0  0  0  0  0  0  0  0  0  0  0
   14.2123   -4.0388   45.1683 O   0  0  0  0  0  0  0  0  0  0  0  0
   16.0333   -5.4355   44.6807 O   0  0  0  0  0  0  0  0  0  0  0  0
   17.7334   -4.9140   47.9579 O   0  0  0  0  0  0  0  0  0  0  0  0
   18.7080   -6.3342   44.8841 O   0  0  0  0  0  0  0  0  0  0  0  0
   19.9306   -4.3837   48.4916 O   0  0  0  0  0  0  0  0  0  0  0  0
   19.9780   -5.1961   49.6494 C   0  0  2  0  0  0  0  0  0  0  0  0
   19.2968   -4.5381   50.8488 C   0  0  1  0  0  0  0  0  0  0  0  0
   20.0390   -3.2412   51.2736 C   0  0  2  0  0  0  0  0  0  0  0  0
   21.5161   -3.6262   51.5831 C   0  0  1  0  0  0  0  0  0  0  0  0
   22.1396   -4.2459   50.2895 C   0  0  1  0  0  0  0  0  0  0  0  0
   23.5660   -4.7071   50.4899 C   0  0  0  0  0  0  0  0  0  0  0  0
   22.2467   -2.3709   52.0006 N   0  0  0  0  0  0  0  0  0  0  0  0
   21.3815   -5.4597   49.9633 O   0  0  0  0  0  0  0  0  0  0  0  0
   17.9363   -4.2496   50.4699 O   0  0  0  0  0  0  0  0  0  0  0  0
   19.4114   -2.7390   52.4674 O   0  0  0  0  0  0  0  0  0  0  0  0
   24.1104   -5.2328   49.3280 O   0  0  0  0  0  0  0  0  0  0  0  0
   14.1295   -3.4200   43.8842 C   0  0  1  0  0  0  0  0  0  0  0  0
   15.5719   -3.2098   43.2992 C   0  0  1  0  0  0  0  0  0  0  0  0
   15.4543   -2.5408   41.8825 C   0  0  2  0  0  0  0  0  0  0  0  0
   14.6544   -3.4631   40.9501 C   0  0  1  0  0  0  0  0  0  0  0  0
   13.2016   -3.6617   41.5315 C   0  0  0  0  0  0  0  0  0  0  0  0
   13.3176   -4.3199   42.9624 C   0  0  2  0  0  0  0  0  0  0  0  0
   14.5690   -2.8419   39.6386 N   0  0  0  0  0  0  0  0  0  0  0  0
   11.9671   -4.5041   43.5558 N   0  0  0  0  0  0  0  0  0  0  0  0
   16.3345   -2.3362   44.1806 O   0  0  0  0  0  0  0  0  0  0  0  0
   16.7400   -2.3681   41.3482 O   0  0  0  0  0  0  0  0  0  0  0  0
  1  2  1  0  0  0  0
  1 12  1  1  0  0  0
  1 13  1  0  0  0  0
  2  3  1  0  0  0  0
  2 10  1  1  0  0  0
  4  3  1  1  0  0  0
  4  5  1  0  0  0  0
  4 14  1  0  0  0  0
  5  6  1  0  0  0  0
  5 13  1  6  0  0  0
  6  7  1  0  0  0  0
  6 15  1  1  0  0  0
  7  8  1  0  0  0  0
  7 11  1  6  0  0  0
  8 14  1  0  0  0  0
  8 16  1  1  0  0  0
  9 11  1  0  0  0  0
 17 16  1  6  0  0  0
 17 18  1  0  0  0  0
 17 24  1  0  0  0  0
 18 19  1  0  0  0  0
 18 25  1  6  0  0  0
 19 20  1  0  0  0  0
 19 26  1  1  0  0  0
 20 21  1  0  0  0  0
 20 23  1  6  0  0  0
 21 22  1  1  0  0  0
 21 24  1  0  0  0  0
 22 27  1  0  0  0  0
 28 12  1  1  0  0  0
 28 29  1  0  0  0  0
 28 33  1  0  0  0  0
 29 30  1  0  0  0  0
 29 36  1  1  0  0  0
 30 31  1  0  0  0  0
 30 37  1  6  0  0  0
 31 32  1  0  0  0  0
 31 34  1  6  0  0  0
 32 33  1  0  0  0  0
 33 35  1  1  0  0  0
M  END
>  <CHROM.1>
-169.18215932,78.16120319,-166.06719366,-114.18982458,-178.98479937,-70.25335081
17.73653223,-4.28980577,46.52664675,2.31342363,-0.12948740,-1.40848736

>  <Name>
2oe5_lig

>  <RI>
0

>  <Rbt.Current_Directory>
/home/itssahil/PROJECTS/Mol_Feturizer/New_Systems/rnas/2oe5

>  <Rbt.Executable>
rbdock ($Id: //depot/dev/client3/rdock/2013.1/src/exe/rbdock.cxx#4 $)

>  <Rbt.Library>
libRbt.so (2013.1, Build901 2013/11/27)

>  <Rbt.Parameter_File>
/export/apps/rDock/src/rDock_2013.1_src/data/scripts/dock_solv.prm

>  <Rbt.Receptor>
prm/blind_docking_60.prm

>  <SCORE>
-24.5897

>  <SCORE.INTER>
-22.7197

>  <SCORE.INTER.CONST>
1

>  <SCORE.INTER.POLAR>
-3.07445

>  <SCORE.INTER.ROT>
6

>  <SCORE.INTER.SOLV>
16.1375

>  <SCORE.INTER.VDW>
-17.8775

>  <SCORE.INTER.norm>
-0.614045

>  <SCORE.INTRA>
-1.86999

>  <SCORE.INTRA.DIHEDRAL>
-6.86129

>  <SCORE.INTRA.DIHEDRAL.0>
16.2083

>  <SCORE.INTRA.POLAR>
0

>  <SCORE.INTRA.POLAR.0>
0

>  <SCORE.INTRA.REPUL>
0

>  <SCORE.INTRA.REPUL.0>
0

>  <SCORE.INTRA.SOLV>
-1.12491

>  <SCORE.INTRA.SOLV.lig_0>
-89.8095

>  <SCORE.INTRA.VDW>
2.12311

>  <SCORE.INTRA.VDW.0>
-3.19502

>  <SCORE.INTRA.norm>
-0.0505403

>  <SCORE.RESTR>
0

>  <SCORE.RESTR.CAVITY>
0

>  <SCORE.RESTR.norm>
0

>  <SCORE.SYSTEM>
0

>  <SCORE.SYSTEM.CONST>
0

>  <SCORE.SYSTEM.DIHEDRAL>
0

>  <SCORE.SYSTEM.SOLV>
0

>  <SCORE.SYSTEM.norm>
0

>  <SCORE.heavy>
37

>  <SCORE.norm>
-0.664585

>  <RMSD>
11.203

$$$$
2oe5_lig
 OpenBabel11021811463D
libRbt.so/2013.1/901 2013/11/27
 37 40  0  0  0  0  0  0  0  0999 V2000
   16.5985   -5.5713   45.4958 C   0  0  1  0  0  0  0  0  0  0  0  0
   15.7855   -5.7019   46.8032 C   0  0  1  0  0  0  0  0  0  0  0  0
   15.9597   -4.3908   47.6563 C   0  0  0  0  0  0  0  0  0  0  0  0
   17.4777   -4.2744   47.9202 C   0  0  1  0  0  0  0  0  0  0  0  0
   18.2998   -4.1457   46.5623 C   0  0  1  0  0  0  0  0  0  0  0  0
   19.8286   -4.0202   46.8056 C   0  0  1  0  0  0  0  0  0  0  0  0
   20.0433   -2.7526   47.6807 C   0  0  1  0  0  0  0  0  0  0  0  0
   19.1793   -2.9011   48.9901 C   0  0  2  0  0  0  0  0  0  0  0  0
   22.4824   -2.1291   46.9563 C   0  0  0  0  0  0  0  0  0  0  0  0
   14.3515   -5.8992   46.4897 N   0  0  0  0  0  0  0  0  0  0  0  0
   21.5087   -2.5825   48.0099 N   0  0  0  0  0  0  0  0  0  0  0  0
   16.1206   -4.4963   44.6707 O   0  0  0  0  0  0  0  0  0  0  0  0
   18.0272   -5.3340   45.7511 O   0  0  0  0  0  0  0  0  0  0  0  0
   17.7419   -3.0847   48.7111 O   0  0  0  0  0  0  0  0  0  0  0  0
   20.2676   -5.2072   47.4739 O   0  0  0  0  0  0  0  0  0  0  0  0
   19.2998   -1.7369   49.7834 O   0  0  0  0  0  0  0  0  0  0  0  0
   20.3591   -1.8849   50.7103 C   0  0  2  0  0  0  0  0  0  0  0  0
   19.8642   -1.9281   52.1556 C   0  0  1  0  0  0  0  0  0  0  0  0
   19.1997   -0.5839   52.5614 C   0  0  2  0  0  0  0  0  0  0  0  0
   20.2505    0.5443   52.3403 C   0  0  1  0  0  0  0  0  0  0  0  0
   20.6600    0.5400   50.8308 C   0  0  1  0  0  0  0  0  0  0  0  0
   21.7218    1.5679   50.5091 C   0  0  0  0  0  0  0  0  0  0  0  0
   19.6144    1.8570   52.7353 N   0  0  0  0  0  0  0  0  0  0  0  0
   21.2761   -0.7594   50.5369 O   0  0  0  0  0  0  0  0  0  0  0  0
   18.9249   -3.0164   52.2596 O   0  0  0  0  0  0  0  0  0  0  0  0
   18.8591   -0.6585   53.9577 O   0  0  0  0  0  0  0  0  0  0  0  0
   22.8702    1.3825   51.2636 O   0  0  0  0  0  0  0  0  0  0  0  0
   16.7788   -4.3914   43.4080 C   0  0  1  0  0  0  0  0  0  0  0  0
   16.0741   -5.3250   42.3597 C   0  0  1  0  0  0  0  0  0  0  0  0
   16.8067   -5.1823   40.9772 C   0  0  2  0  0  0  0  0  0  0  0  0
   16.7177   -3.7237   40.5034 C   0  0  1  0  0  0  0  0  0  0  0  0
   17.4383   -2.7890   41.5499 C   0  0  0  0  0  0  0  0  0  0  0  0
   16.7134   -2.9423   42.9447 C   0  0  2  0  0  0  0  0  0  0  0  0
   17.3823   -3.6091   39.2156 N   0  0  0  0  0  0  0  0  0  0  0  0
   17.3780   -2.0918   43.9669 N   0  0  0  0  0  0  0  0  0  0  0  0
   16.1555   -6.7093   42.8054 O   0  0  0  0  0  0  0  0  0  0  0  0
   16.1688   -6.0007   40.0330 O   0  0  0  0  0  0  0  0  0  0  0  0
  1  2  1  0  0  0  0
  1 12  1  6  0  0  0
  1 13  1  0  0  0  0
  2  3  1  0  0  0  0
  2 10  1  6  0  0  0
  4  3  1  6  0  0  0
  4  5  1  0  0  0  0
  4 14  1  0  0  0  0
  5  6  1  0  0  0  0
  5 13  1  6  0  0  0
  6  7  1  0  0  0  0
  6 15  1  1  0  0  0
  7  8  1  0  0  0  0
  7 11  1  1  0  0  0
  8 14  1  0  0  0  0
  8 16  1  1  0  0  0
  9 11  1  0  0  0  0
 17 16  1  6  0  0  0
 17 18  1  0  0  0  0
 17 24  1  0  0  0  0
 18 19  1  0  0  0  0
 18 25  1  6  0  0  0
 19 20  1  0  0  0  0
 19 26  1  1  0  0  0
 20 21  1  0  0  0  0
 20 23  1  6  0  0  0
 21 22  1  1  0  0  0
 21 24  1  0  0  0  0
 22 27  1  0  0  0  0
 28 12  1  1  0  0  0
 28 29  1  0  0  0  0
 28 33  1  0  0  0  0
 29 30  1  0  0  0  0
 29 36  1  1  0  0  0
 30 31  1  0  0  0  0
 30 37  1  6  0  0  0
 31 32  1  0  0  0  0
 31 34  1  6  0  0  0
 32 33  1  0  0  0  0
 33 35  1  1  0  0  0
M  END
>  <CHROM.1>
-175.88698183,72.98385142,-91.66837787,-113.67453841,57.98692539,86.56958011
18.51507901,-2.97349431,47.15581758,2.08499026,-0.77879364,-1.64108319

>  <Name>
2oe5_lig

>  <RI>
0

>  <Rbt.Current_Directory>
/home/itssahil/PROJECTS/Mol_Feturizer/New_Systems/rnas/2oe5

>  <Rbt.Executable>
rbdock ($Id: //depot/dev/client3/rdock/2013.1/src/exe/rbdock.cxx#4 $)

>  <Rbt.Library>
libRbt.so (2013.1, Build901 2013/11/27)

>  <Rbt.Parameter_File>
/export/apps/rDock/src/rDock_2013.1_src/data/scripts/dock_solv.prm

>  <Rbt.Receptor>
prm/blind_docking_60.prm

>  <SCORE>
-26.3047

>  <SCORE.INTER>
-24.796

>  <SCORE.INTER.CONST>
1

>  <SCORE.INTER.POLAR>
-3.33479

>  <SCORE.INTER.ROT>
6

>  <SCORE.INTER.SOLV>
21.6953

>  <SCORE.INTER.VDW>
-20.2464

>  <SCORE.INTER.norm>
-0.670161

>  <SCORE.INTRA>
-1.50872

>  <SCORE.INTRA.DIHEDRAL>
-2.04438

>  <SCORE.INTRA.DIHEDRAL.0>
16.2083

>  <SCORE.INTRA.POLAR>
0

>  <SCORE.INTRA.POLAR.0>
0

>  <SCORE.INTRA.REPUL>
0

>  <SCORE.INTRA.REPUL.0>
0

>  <SCORE.INTRA.SOLV>
-0.52513

>  <SCORE.INTRA.SOLV.lig_0>
-89.8095

>  <SCORE.INTRA.VDW>
-0.223963

>  <SCORE.INTRA.VDW.0>
-3.19502

>  <SCORE.INTRA.norm>
-0.0407761

>  <SCORE.RESTR>
0

>  <SCORE.RESTR.CAVITY>
0

>  <SCORE.RESTR.norm>
0

>  <SCORE.SYSTEM>
0

>  <SCORE.SYSTEM.CONST>
0

>  <SCORE.SYSTEM.DIHEDRAL>
0

>  <SCORE.SYSTEM.SOLV>
0

>  <SCORE.SYSTEM.norm>
0

>  <SCORE.heavy>
37

>  <SCORE.norm>
-0.710937

>  <RMSD>
11.211

$$$$
2oe5_lig
 OpenBabel11021811463D
libRbt.so/2013.1/901 2013/11/27
 37 40  0  0  0  0  0  0  0  0999 V2000
   15.0271   -5.4701   45.2850 C   0  0  1  0  0  0  0  0  0  0  0  0
   15.1860   -5.9430   46.7473 C   0  0  1  0  0  0  0  0  0  0  0  0
   15.8953   -4.8143   47.5840 C   0  0  0  0  0  0  0  0  0  0  0  0
   17.2575   -4.5877   46.8909 C   0  0  1  0  0  0  0  0  0  0  0  0
   17.0747   -4.1057   45.3840 C   0  0  1  0  0  0  0  0  0  0  0  0
   18.4331   -3.8649   44.6706 C   0  0  1  0  0  0  0  0  0  0  0  0
   19.1864   -2.7785   45.4899 C   0  0  1  0  0  0  0  0  0  0  0  0
   19.3057   -3.2749   46.9807 C   0  0  2  0  0  0  0  0  0  0  0  0
   21.6628   -3.5159   45.0583 C   0  0  0  0  0  0  0  0  0  0  0  0
   13.8565   -6.2296   47.3337 N   0  0  0  0  0  0  0  0  0  0  0  0
   20.5492   -2.5181   44.8904 N   0  0  0  0  0  0  0  0  0  0  0  0
   14.1821   -4.3123   45.1832 O   0  0  0  0  0  0  0  0  0  0  0  0
   16.3181   -5.1336   44.6662 O   0  0  0  0  0  0  0  0  0  0  0  0
   17.9951   -3.5553   47.5985 O   0  0  0  0  0  0  0  0  0  0  0  0
   19.1469   -5.1052   44.6513 O   0  0  0  0  0  0  0  0  0  0  0  0
   19.9306   -2.2835   47.7717 O   0  0  0  0  0  0  0  0  0  0  0  0
   19.9442   -2.6794   49.1304 C   0  0  2  0  0  0  0  0  0  0  0  0
   20.6278   -1.6491   50.0286 C   0  0  1  0  0  0  0  0  0  0  0  0
   22.1318   -1.5014   49.6691 C   0  0  2  0  0  0  0  0  0  0  0  0
   22.7852   -2.9094   49.7978 C   0  0  1  0  0  0  0  0  0  0  0  0
   22.0528   -3.8786   48.8126 C   0  0  1  0  0  0  0  0  0  0  0  0
   22.5735   -5.2964   48.8906 C   0  0  0  0  0  0  0  0  0  0  0  0
   24.2505   -2.7759   49.4526 N   0  0  0  0  0  0  0  0  0  0  0  0
   20.6463   -3.9584   49.2248 O   0  0  0  0  0  0  0  0  0  0  0  0
   19.9343   -0.3971   49.8576 O   0  0  0  0  0  0  0  0  0  0  0  0
   22.7315   -0.6029   50.6200 O   0  0  0  0  0  0  0  0  0  0  0  0
   23.9238   -5.3717   48.5846 O   0  0  0  0  0  0  0  0  0  0  0  0
   14.0360   -3.8100   43.8546 C   0  0  1  0  0  0  0  0  0  0  0  0
   12.5785   -4.0847   43.3376 C   0  0  1  0  0  0  0  0  0  0  0  0
   12.4385   -3.5120   41.8813 C   0  0  2  0  0  0  0  0  0  0  0  0
   12.6955   -1.9977   41.9040 C   0  0  1  0  0  0  0  0  0  0  0  0
   14.1644   -1.7242   42.4098 C   0  0  0  0  0  0  0  0  0  0  0  0
   14.3125   -2.3127   43.8679 C   0  0  2  0  0  0  0  0  0  0  0  0
   12.5446   -1.4775   40.5551 N   0  0  0  0  0  0  0  0  0  0  0  0
   15.6932   -2.0944   44.3738 N   0  0  0  0  0  0  0  0  0  0  0  0
   12.3301   -5.5197   43.3150 O   0  0  0  0  0  0  0  0  0  0  0  0
   11.1323   -3.7388   41.4225 O   0  0  0  0  0  0  0  0  0  0  0  0
  1  2  1  0  0  0  0
  1 12  1  1  0  0  0
  1 13  1  0  0  0  0
  2  3  1  0  0  0  0
  2 10  1  1  0  0  0
  4  3  1  1  0  0  0
  4  5  1  0  0  0  0
  4 14  1  0  0  0  0
  5  6  1  0  0  0  0
  5 13  1  6  0  0  0
  6  7  1  0  0  0  0
  6 15  1  1  0  0  0
  7  8  1  0  0  0  0
  7 11  1  6  0  0  0
  8 14  1  0  0  0  0
  8 16  1  1  0  0  0
  9 11  1  0  0  0  0
 17 16  1  6  0  0  0
 17 18  1  0  0  0  0
 17 24  1  0  0  0  0
 18 19  1  0  0  0  0
 18 25  1  6  0  0  0
 19 20  1  0  0  0  0
 19 26  1  1  0  0  0
 20 21  1  0  0  0  0
 20 23  1  6  0  0  0
 21 22  1  1  0  0  0
 21 24  1  0  0  0  0
 22 27  1  0  0  0  0
 28 12  1  1  0  0  0
 28 29  1  0  0  0  0
 28 33  1  0  0  0  0
 29 30  1  0  0  0  0
 29 36  1  6  0  0  0
 30 31  1  0  0  0  0
 30 37  1  1  0  0  0
 31 32  1  0  0  0  0
 31 34  1  6  0  0  0
 32 33  1  0  0  0  0
 33 35  1  6  0  0  0
M  END
>  <CHROM.1>
178.16971638,-73.95139070,175.35431899,179.20515912,-59.91544761,109.67915951
17.72253265,-3.48874703,46.15936920,2.89155592,-0.55121264,-0.57776362

>  <Name>
2oe5_lig

>  <RI>
0

>  <Rbt.Current_Directory>
/home/itssahil/PROJECTS/Mol_Feturizer/New_Systems/rnas/2oe5

>  <Rbt.Executable>
rbdock ($Id: //depot/dev/client3/rdock/2013.1/src/exe/rbdock.cxx#4 $)

>  <Rbt.Library>
libRbt.so (2013.1, Build901 2013/11/27)

>  <Rbt.Parameter_File>
/export/apps/rDock/src/rDock_2013.1_src/data/scripts/dock_solv.prm

>  <Rbt.Receptor>
prm/blind_docking_100.prm

>  <SCORE>
-25.0977

>  <SCORE.INTER>
-24.5199

>  <SCORE.INTER.CONST>
1

>  <SCORE.INTER.POLAR>
-3.18334

>  <SCORE.INTER.ROT>
6

>  <SCORE.INTER.SOLV>
23.2829

>  <SCORE.INTER.VDW>
-21.0965

>  <SCORE.INTER.norm>
-0.6627

>  <SCORE.INTRA>
-1.2503

>  <SCORE.INTRA.DIHEDRAL>
-9.14832

>  <SCORE.INTRA.DIHEDRAL.0>
16.2083

>  <SCORE.INTRA.POLAR>
0

>  <SCORE.INTRA.POLAR.0>
0

>  <SCORE.INTRA.REPUL>
0

>  <SCORE.INTRA.REPUL.0>
0

>  <SCORE.INTRA.SOLV>
1.53702

>  <SCORE.INTRA.SOLV.lig_0>
-89.8095

>  <SCORE.INTRA.VDW>
2.55535

>  <SCORE.INTRA.VDW.0>
-3.19502

>  <SCORE.INTRA.norm>
-0.0337918

>  <SCORE.RESTR>
0.672488

>  <SCORE.RESTR.CAVITY>
0.672488

>  <SCORE.RESTR.norm>
0.0181754

>  <SCORE.SYSTEM>
0

>  <SCORE.SYSTEM.CONST>
0

>  <SCORE.SYSTEM.DIHEDRAL>
0

>  <SCORE.SYSTEM.SOLV>
0

>  <SCORE.SYSTEM.norm>
0

>  <SCORE.heavy>
37

>  <SCORE.norm>
-0.678317

>  <RMSD>
11.216

$$$$
2oe5_lig
 OpenBabel11021811463D
libRbt.so/2013.1/901 2013/11/27
 37 40  0  0  0  0  0  0  0  0999 V2000
   16.3246   -5.7285   45.3015 C   0  0  1  0  0  0  0  0  0  0  0  0
   15.5067   -5.8613   46.6056 C   0  0  1  0  0  0  0  0  0  0  0  0
   15.7148   -4.5713   47.4829 C   0  0  0  0  0  0  0  0  0  0  0  0
   17.2351   -4.5006   47.7501 C   0  0  1  0  0  0  0  0  0  0  0  0
   18.0621   -4.3690   46.3955 C   0  0  1  0  0  0  0  0  0  0  0  0
   19.5934   -4.2890   46.6422 C   0  0  1  0  0  0  0  0  0  0  0  0
   19.8409   -3.0440   47.5408 C   0  0  1  0  0  0  0  0  0  0  0  0
   18.9715   -3.1935   48.8466 C   0  0  2  0  0  0  0  0  0  0  0  0
   22.2545   -2.2320   46.9261 C   0  0  0  0  0  0  0  0  0  0  0  0
   14.0683   -6.0143   46.2874 N   0  0  0  0  0  0  0  0  0  0  0  0
   21.3099   -2.9194   47.8742 N   0  0  0  0  0  0  0  0  0  0  0  0
   15.8767   -4.6260   44.4960 O   0  0  0  0  0  0  0  0  0  0  0  0
   17.7588   -5.5343   45.5622 O   0  0  0  0  0  0  0  0  0  0  0  0
   17.5300   -3.3333   48.5631 O   0  0  0  0  0  0  0  0  0  0  0  0
   19.9996   -5.4995   47.2888 O   0  0  0  0  0  0  0  0  0  0  0  0
   19.1222   -2.0478   49.6614 O   0  0  0  0  0  0  0  0  0  0  0  0
   18.8694   -2.3745   51.0151 C   0  0  2  0  0  0  0  0  0  0  0  0
   19.2040   -1.2229   51.9625 C   0  0  1  0  0  0  0  0  0  0  0  0
   20.7227   -0.8976   51.9356 C   0  0  2  0  0  0  0  0  0  0  0  0
   21.4882   -2.2008   52.3116 C   0  0  1  0  0  0  0  0  0  0  0  0
   21.1194   -3.3023   51.2643 C   0  0  1  0  0  0  0  0  0  0  0  0
   21.7695   -4.6349   51.5623 C   0  0  0  0  0  0  0  0  0  0  0  0
   22.9679   -1.8939   52.2912 N   0  0  0  0  0  0  0  0  0  0  0  0
   19.6749   -3.5453   51.3588 O   0  0  0  0  0  0  0  0  0  0  0  0
   18.4276   -0.0814   51.5481 O   0  0  0  0  0  0  0  0  0  0  0  0
   20.9794    0.1150   52.9255 O   0  0  0  0  0  0  0  0  0  0  0  0
   23.1505   -4.5754   51.4536 O   0  0  0  0  0  0  0  0  0  0  0  0
   16.5841   -4.4760   43.2648 C   0  0  1  0  0  0  0  0  0  0  0  0
   15.9813   -5.4410   42.1821 C   0  0  1  0  0  0  0  0  0  0  0  0
   16.7662   -5.2483   40.8348 C   0  0  2  0  0  0  0  0  0  0  0  0
   16.6163   -3.7941   40.3631 C   0  0  1  0  0  0  0  0  0  0  0  0
   17.2350   -2.8271   41.4449 C   0  0  0  0  0  0  0  0  0  0  0  0
   16.4578   -3.0300   42.8047 C   0  0  2  0  0  0  0  0  0  0  0  0
   17.3307   -3.6340   39.1072 N   0  0  0  0  0  0  0  0  0  0  0  0
   17.0265   -2.1500   43.8594 N   0  0  0  0  0  0  0  0  0  0  0  0
   16.1207   -6.8214   42.6256 O   0  0  0  0  0  0  0  0  0  0  0  0
   16.2188   -6.0953   39.8595 O   0  0  0  0  0  0  0  0  0  0  0  0
  1  2  1  0  0  0  0
  1 12  1  1  0  0  0
  1 13  1  0  0  0  0
  2  3  1  0  0  0  0
  2 10  1  6  0  0  0
  4  3  1  6  0  0  0
  4  5  1  0  0  0  0
  4 14  1  0  0  0  0
  5  6  1  0  0  0  0
  5 13  1  6  0  0  0
  6  7  1  0  0  0  0
  6 15  1  1  0  0  0
  7  8  1  0  0  0  0
  7 11  1  1  0  0  0
  8 14  1  0  0  0  0
  8 16  1  1  0  0  0
  9 11  1  0  0  0  0
 17 16  1  6  0  0  0
 17 18  1  0  0  0  0
 17 24  1  0  0  0  0
 18 19  1  0  0  0  0
 18 25  1  6  0  0  0
 19 20  1  0  0  0  0
 19 26  1  1  0  0  0
 20 21  1  0  0  0  0
 20 23  1  6  0  0  0
 21 22  1  1  0  0  0
 21 24  1  0  0  0  0
 22 27  1  0  0  0  0
 28 12  1  1  0  0  0
 28 29  1  0  0  0  0
 28 33  1  0  0  0  0
 29 30  1  0  0  0  0
 29 36  1  1  0  0  0
 30 31  1  0  0  0  0
 30 37  1  6  0  0  0
 31 32  1  0  0  0  0
 31 34  1  6  0  0  0
 32 33  1  0  0  0  0
 33 35  1  1  0  0  0
M  END
>  <CHROM.1>
-178.81146093,84.62737578,-154.33811220,172.12671736,-65.25488664,83.00607764
18.50565753,-3.67528323,47.04057624,2.04625686,-0.43173587,-1.63228071

>  <Name>
2oe5_lig

>  <RI>
0

>  <Rbt.Current_Directory>
/home/itssahil/PROJECTS/Mol_Feturizer/New_Systems/rnas/2oe5

>  <Rbt.Executable>
rbdock ($Id: //depot/dev/client3/rdock/2013.1/src/exe/rbdock.cxx#4 $)

>  <Rbt.Library>
libRbt.so (2013.1, Build901 2013/11/27)

>  <Rbt.Parameter_File>
/export/apps/rDock/src/rDock_2013.1_src/data/scripts/dock_solv.prm

>  <Rbt.Receptor>
prm/blind_docking_100.prm

>  <SCORE>
-22.3285

>  <SCORE.INTER>
-17.3239

>  <SCORE.INTER.CONST>
1

>  <SCORE.INTER.POLAR>
-2.35075

>  <SCORE.INTER.ROT>
6

>  <SCORE.INTER.SOLV>
18.0786

>  <SCORE.INTER.VDW>
-17.3396

>  <SCORE.INTER.norm>
-0.468214

>  <SCORE.INTRA>
-5.00461

>  <SCORE.INTRA.DIHEDRAL>
-10.1887

>  <SCORE.INTRA.DIHEDRAL.0>
16.2083

>  <SCORE.INTRA.POLAR>
0

>  <SCORE.INTRA.POLAR.0>
0

>  <SCORE.INTRA.REPUL>
0

>  <SCORE.INTRA.REPUL.0>
0

>  <SCORE.INTRA.SOLV>
-0.663012

>  <SCORE.INTRA.SOLV.lig_0>
-89.8095

>  <SCORE.INTRA.VDW>
0.421229

>  <SCORE.INTRA.VDW.0>
-3.19502

>  <SCORE.INTRA.norm>
-0.13526

>  <SCORE.RESTR>
0

>  <SCORE.RESTR.CAVITY>
0

>  <SCORE.RESTR.norm>
0

>  <SCORE.SYSTEM>
0

>  <SCORE.SYSTEM.CONST>
0

>  <SCORE.SYSTEM.DIHEDRAL>
0

>  <SCORE.SYSTEM.SOLV>
0

>  <SCORE.SYSTEM.norm>
0

>  <SCORE.heavy>
37

>  <SCORE.norm>
-0.603474

>  <RMSD>
11.220

$$$$
2oe5_lig
 OpenBabel11021811463D
libRbt.so/2013.1/901 2013/11/27
 37 40  0  0  0  0  0  0  0  0999 V2000
   15.2787   -6.3084   45.4146 C   0  0  1  0  0  0  0  0  0  0  0  0
   14.7095   -5.8692   46.7822 C   0  0  1  0  0  0  0  0  0  0  0  0
   15.7706   -4.9734   47.5230 C   0  0  0  0  0  0  0  0  0  0  0  0
   17.0249   -5.8637   47.6696 C   0  0  1  0  0  0  0  0  0  0  0  0
   17.5947   -6.3107   46.2513 C   0  0  1  0  0  0  0  0  0  0  0  0
   18.8611   -7.2012   46.3761 C   0  0  1  0  0  0  0  0  0  0  0  0
   19.9273   -6.3646   47.1390 C   0  0  1  0  0  0  0  0  0  0  0  0
   19.3080   -5.9061   48.5135 C   0  0  2  0  0  0  0  0  0  0  0  0
   21.2172   -8.2806   48.3749 C   0  0  0  0  0  0  0  0  0  0  0  0
   13.4620   -5.0954   46.5862 N   0  0  0  0  0  0  0  0  0  0  0  0
   21.1827   -7.1792   47.3504 N   0  0  0  0  0  0  0  0  0  0  0  0
   15.5231   -5.1877   44.5491 O   0  0  0  0  0  0  0  0  0  0  0  0
   16.5421   -7.0488   45.5503 O   0  0  0  0  0  0  0  0  0  0  0  0
   18.0701   -5.1193   48.3510 O   0  0  0  0  0  0  0  0  0  0  0  0
   18.4992   -8.3837   47.0964 O   0  0  0  0  0  0  0  0  0  0  0  0
   20.2279   -5.0882   49.2093 O   0  0  0  0  0  0  0  0  0  0  0  0
   20.1534   -5.3426   50.5995 C   0  0  2  0  0  0  0  0  0  0  0  0
   19.2595   -4.3385   51.3264 C   0  0  1  0  0  0  0  0  0  0  0  0
   19.8449   -2.9021   51.2419 C   0  0  2  0  0  0  0  0  0  0  0  0
   21.2806   -2.9447   51.8441 C   0  0  1  0  0  0  0  0  0  0  0  0
   22.1293   -3.9597   51.0099 C   0  0  1  0  0  0  0  0  0  0  0  0
   23.5362   -4.1219   51.5407 C   0  0  0  0  0  0  0  0  0  0  0  0
   21.8584   -1.5502   51.7692 N   0  0  0  0  0  0  0  0  0  0  0  0
   21.5080   -5.2825   51.1464 O   0  0  0  0  0  0  0  0  0  0  0  0
   17.9554   -4.3976   50.7152 O   0  0  0  0  0  0  0  0  0  0  0  0
   19.0148   -2.0348   52.0354 O   0  0  0  0  0  0  0  0  0  0  0  0
   24.3337   -4.8626   50.6815 O   0  0  0  0  0  0  0  0  0  0  0  0
   14.3405   -4.5952   44.0115 C   0  0  1  0  0  0  0  0  0  0  0  0
   14.6866   -3.2075   43.3623 C   0  0  1  0  0  0  0  0  0  0  0  0
   13.3739   -2.5824   42.7669 C   0  0  2  0  0  0  0  0  0  0  0  0
   12.8061   -3.5217   41.6922 C   0  0  1  0  0  0  0  0  0  0  0  0
   12.4457   -4.9100   42.3485 C   0  0  0  0  0  0  0  0  0  0  0  0
   13.7609   -5.5335   42.9616 C   0  0  2  0  0  0  0  0  0  0  0  0
   11.6034   -2.9235   41.1365 N   0  0  0  0  0  0  0  0  0  0  0  0
   13.4592   -6.8363   43.6110 N   0  0  0  0  0  0  0  0  0  0  0  0
   15.2261   -2.3136   44.3779 O   0  0  0  0  0  0  0  0  0  0  0  0
   13.6819   -1.3509   42.1696 O   0  0  0  0  0  0  0  0  0  0  0  0
  1  2  1  0  0  0  0
  1 12  1  6  0  0  0
  1 13  1  0  0  0  0
  2  3  1  0  0  0  0
  2 10  1  6  0  0  0
  4  3  1  6  0  0  0
  4  5  1  0  0  0  0
  4 14  1  0  0  0  0
  5  6  1  0  0  0  0
  5 13  1  1  0  0  0
  6  7  1  0  0  0  0
  6 15  1  1  0  0  0
  7  8  1  0  0  0  0
  7 11  1  1  0  0  0
  8 14  1  0  0  0  0
  8 16  1  6  0  0  0
  9 11  1  0  0  0  0
 17 16  1  6  0  0  0
 17 18  1  0  0  0  0
 17 24  1  0  0  0  0
 18 19  1  0  0  0  0
 18 25  1  6  0  0  0
 19 20  1  0  0  0  0
 19 26  1  1  0  0  0
 20 21  1  0  0  0  0
 20 23  1  6  0  0  0
 21 22  1  1  0  0  0
 21 24  1  0  0  0  0
 22 27  1  0  0  0  0
 28 12  1  6  0  0  0
 28 29  1  0  0  0  0
 28 33  1  0  0  0  0
 29 30  1  0  0  0  0
 29 36  1  1  0  0  0
 30 31  1  0  0  0  0
 30 37  1  6  0  0  0
 31 32  1  0  0  0  0
 31 34  1  1  0  0  0
 32 33  1  0  0  0  0
 33 35  1  1  0  0  0
M  END
>  <CHROM.1>
-73.30949994,-74.09743817,-143.30953192,-96.77384149,-170.90341734,167.10043625
17.59619631,-4.85393092,47.19904526,-2.86377053,-0.73112732,0.44452946

>  <Name>
2oe5_lig

>  <RI>
0

>  <Rbt.Current_Directory>
/home/itssahil/PROJECTS/Mol_Feturizer/New_Systems/rnas/2oe5

>  <Rbt.Executable>
rbdock ($Id: //depot/dev/client3/rdock/2013.1/src/exe/rbdock.cxx#4 $)

>  <Rbt.Library>
libRbt.so (2013.1, Build901 2013/11/27)

>  <Rbt.Parameter_File>
/export/apps/rDock/src/rDock_2013.1_src/data/scripts/dock_solv.prm

>  <Rbt.Receptor>
prm/blind_docking_80.prm

>  <SCORE>
-23.4627

>  <SCORE.INTER>
-25.2101

>  <SCORE.INTER.CONST>
1

>  <SCORE.INTER.POLAR>
-3.16297

>  <SCORE.INTER.ROT>
6

>  <SCORE.INTER.SOLV>
13.059

>  <SCORE.INTER.VDW>
-18.2164

>  <SCORE.INTER.norm>
-0.681353

>  <SCORE.INTRA>
1.74739

>  <SCORE.INTRA.DIHEDRAL>
-4.41026

>  <SCORE.INTRA.DIHEDRAL.0>
16.2083

>  <SCORE.INTRA.POLAR>
0

>  <SCORE.INTRA.POLAR.0>
0

>  <SCORE.INTRA.REPUL>
0

>  <SCORE.INTRA.REPUL.0>
0

>  <SCORE.INTRA.SOLV>
2.14043

>  <SCORE.INTRA.SOLV.lig_0>
-89.8095

>  <SCORE.INTRA.VDW>
2.88231

>  <SCORE.INTRA.VDW.0>
-3.19502

>  <SCORE.INTRA.norm>
0.0472267

>  <SCORE.RESTR>
0

>  <SCORE.RESTR.CAVITY>
0

>  <SCORE.RESTR.norm>
0

>  <SCORE.SYSTEM>
0

>  <SCORE.SYSTEM.CONST>
0

>  <SCORE.SYSTEM.DIHEDRAL>
0

>  <SCORE.SYSTEM.SOLV>
0

>  <SCORE.SYSTEM.norm>
0

>  <SCORE.heavy>
37

>  <SCORE.norm>
-0.634126

>  <RMSD>
11.241

$$$$
2oe5_lig
 OpenBabel11021811463D
libRbt.so/2013.1/901 2013/11/27
 37 40  0  0  0  0  0  0  0  0999 V2000
   16.0041   -5.8737   44.8118 C   0  0  1  0  0  0  0  0  0  0  0  0
   15.1490   -5.5904   46.0672 C   0  0  1  0  0  0  0  0  0  0  0  0
   15.7718   -4.3802   46.8575 C   0  0  0  0  0  0  0  0  0  0  0  0
   17.2083   -4.8226   47.2155 C   0  0  1  0  0  0  0  0  0  0  0  0
   18.0732   -5.1149   45.9106 C   0  0  1  0  0  0  0  0  0  0  0  0
   19.5241   -5.5545   46.2482 C   0  0  1  0  0  0  0  0  0  0  0  0
   20.1669   -4.3980   47.0655 C   0  0  1  0  0  0  0  0  0  0  0  0
   19.2578   -4.1120   48.3205 C   0  0  2  0  0  0  0  0  0  0  0  0
   22.5813   -5.2143   46.4598 C   0  0  0  0  0  0  0  0  0  0  0  0
   13.7615   -5.2580   45.6698 N   0  0  0  0  0  0  0  0  0  0  0  0
   21.5724   -4.7661   47.4821 N   0  0  0  0  0  0  0  0  0  0  0  0
   16.0038   -4.7635   43.8995 O   0  0  0  0  0  0  0  0  0  0  0  0
   17.4043   -6.1715   45.1487 O   0  0  0  0  0  0  0  0  0  0  0  0
   17.8708   -3.7631   47.9564 O   0  0  0  0  0  0  0  0  0  0  0  0
   19.4524   -6.7653   47.0077 O   0  0  0  0  0  0  0  0  0  0  0  0
   19.7777   -3.0219   49.0557 O   0  0  0  0  0  0  0  0  0  0  0  0
   19.2406   -3.0152   50.3651 C   0  0  2  0  0  0  0  0  0  0  0  0
   19.8383   -1.9078   51.2321 C   0  0  1  0  0  0  0  0  0  0  0  0
   21.3596   -2.1292   51.4551 C   0  0  2  0  0  0  0  0  0  0  0  0
   21.5391   -3.5347   52.1019 C   0  0  1  0  0  0  0  0  0  0  0  0
   20.9417   -4.6005   51.1255 C   0  0  1  0  0  0  0  0  0  0  0  0
   21.0148   -6.0067   51.6777 C   0  0  0  0  0  0  0  0  0  0  0  0
   23.0168   -3.7589   52.3259 N   0  0  0  0  0  0  0  0  0  0  0  0
   19.5095   -4.3171   50.9739 O   0  0  0  0  0  0  0  0  0  0  0  0
   19.5952   -0.6545   50.5628 O   0  0  0  0  0  0  0  0  0  0  0  0
   21.8292   -1.1168   52.3638 O   0  0  0  0  0  0  0  0  0  0  0  0
   20.7086   -6.9587   50.7172 O   0  0  0  0  0  0  0  0  0  0  0  0
   14.7031   -4.3578   43.4726 C   0  0  1  0  0  0  0  0  0  0  0  0
   14.7549   -2.8848   42.9300 C   0  0  1  0  0  0  0  0  0  0  0  0
   13.3170   -2.4664   42.4547 C   0  0  2  0  0  0  0  0  0  0  0  0
   12.8592   -3.4087   41.3313 C   0  0  1  0  0  0  0  0  0  0  0  0
   12.7939   -4.8856   41.8816 C   0  0  0  0  0  0  0  0  0  0  0  0
   14.2351   -5.3033   42.3745 C   0  0  2  0  0  0  0  0  0  0  0  0
   11.5366   -2.9997   40.8879 N   0  0  0  0  0  0  0  0  0  0  0  0
   14.2118   -6.6850   42.9226 N   0  0  0  0  0  0  0  0  0  0  0  0
   15.1893   -1.9876   43.9920 O   0  0  0  0  0  0  0  0  0  0  0  0
   13.3625   -1.1574   41.9521 O   0  0  0  0  0  0  0  0  0  0  0  0
  1  2  1  0  0  0  0
  1 12  1  6  0  0  0
  1 13  1  0  0  0  0
  2  3  1  0  0  0  0
  2 10  1  6  0  0  0
  4  3  1  6  0  0  0
  4  5  1  0  0  0  0
  4 14  1  0  0  0  0
  5  6  1  0  0  0  0
  5 13  1  1  0  0  0
  6  7  1  0  0  0  0
  6 15  1  1  0  0  0
  7  8  1  0  0  0  0
  7 11  1  1  0  0  0
  8 14  1  0  0  0  0
  8 16  1  6  0  0  0
  9 11  1  0  0  0  0
 17 16  1  6  0  0  0
 17 18  1  0  0  0  0
 17 24  1  0  0  0  0
 18 19  1  0  0  0  0
 18 25  1  6  0  0  0
 19 20  1  0  0  0  0
 19 26  1  1  0  0  0
 20 21  1  0  0  0  0
 20 23  1  6  0  0  0
 21 22  1  1  0  0  0
 21 24  1  0  0  0  0
 22 27  1  0  0  0  0
 28 12  1  6  0  0  0
 28 29  1  0  0  0  0
 28 33  1  0  0  0  0
 29 30  1  0  0  0  0
 29 36  1  1  0  0  0
 30 31  1  0  0  0  0
 30 37  1  6  0  0  0
 31 32  1  0  0  0  0
 31 34  1  1  0  0  0
 32 33  1  0  0  0  0
 33 35  1  1  0  0  0
M  END
>  <CHROM.1>
-56.53566858,53.62999653,-161.94916183,176.33516384,-169.16479549,159.70318634
17.74370143,-4.14025709,46.90648752,-2.77295302,-0.77578694,0.47227993

>  <Name>
2oe5_lig

>  <RI>
0

>  <Rbt.Current_Directory>
/home/itssahil/PROJECTS/Mol_Feturizer/New_Systems/rnas/2oe5

>  <Rbt.Executable>
rbdock ($Id: //depot/dev/client3/rdock/2013.1/src/exe/rbdock.cxx#4 $)

>  <Rbt.Library>
libRbt.so (2013.1, Build901 2013/11/27)

>  <Rbt.Parameter_File>
/export/apps/rDock/src/rDock_2013.1_src/data/scripts/dock_solv.prm

>  <Rbt.Receptor>
prm/blind_docking_80.prm

>  <SCORE>
-21.3952

>  <SCORE.INTER>
-20.0227

>  <SCORE.INTER.CONST>
1

>  <SCORE.INTER.POLAR>
-2.6539

>  <SCORE.INTER.ROT>
6

>  <SCORE.INTER.SOLV>
11.9707

>  <SCORE.INTER.VDW>
-16.0923

>  <SCORE.INTER.norm>
-0.541153

>  <SCORE.INTRA>
-1.37256

>  <SCORE.INTRA.DIHEDRAL>
-12.224

>  <SCORE.INTRA.DIHEDRAL.0>
16.2083

>  <SCORE.INTRA.POLAR>
0

>  <SCORE.INTRA.POLAR.0>
0

>  <SCORE.INTRA.REPUL>
0.0160126

>  <SCORE.INTRA.REPUL.0>
0

>  <SCORE.INTRA.SOLV>
3.14901

>  <SCORE.INTRA.SOLV.lig_0>
-89.8095

>  <SCORE.INTRA.VDW>
3.08488

>  <SCORE.INTRA.VDW.0>
-3.19502

>  <SCORE.INTRA.norm>
-0.0370962

>  <SCORE.RESTR>
0

>  <SCORE.RESTR.CAVITY>
0

>  <SCORE.RESTR.norm>
0

>  <SCORE.SYSTEM>
0

>  <SCORE.SYSTEM.CONST>
0

>  <SCORE.SYSTEM.DIHEDRAL>
0

>  <SCORE.SYSTEM.SOLV>
0

>  <SCORE.SYSTEM.norm>
0

>  <SCORE.heavy>
37

>  <SCORE.norm>
-0.578249

>  <RMSD>
11.243

$$$$
2oe5_lig
 OpenBabel11021811463D
libRbt.so/2013.1/901 2013/11/27
 37 40  0  0  0  0  0  0  0  0999 V2000
   16.3683   -5.5532   45.4851 C   0  0  1  0  0  0  0  0  0  0  0  0
   15.6787   -5.7739   46.8500 C   0  0  1  0  0  0  0  0  0  0  0  0
   15.8733   -4.4929   47.7435 C   0  0  0  0  0  0  0  0  0  0  0  0
   17.4026   -4.3204   47.8815 C   0  0  1  0  0  0  0  0  0  0  0  0
   18.0971   -4.0990   46.4655 C   0  0  1  0  0  0  0  0  0  0  0  0
   19.6349   -3.9160   46.5826 C   0  0  1  0  0  0  0  0  0  0  0  0
   19.8736   -2.6776   47.4925 C   0  0  1  0  0  0  0  0  0  0  0  0
   19.1341   -2.9186   48.8630 C   0  0  2  0  0  0  0  0  0  0  0  0
   22.3061   -2.4916   46.5379 C   0  0  0  0  0  0  0  0  0  0  0  0
   14.2320   -6.0214   46.6517 N   0  0  0  0  0  0  0  0  0  0  0  0
   21.3540   -2.4565   47.7025 N   0  0  0  0  0  0  0  0  0  0  0  0
   15.7769   -4.4670   44.7533 O   0  0  0  0  0  0  0  0  0  0  0  0
   17.8031   -5.2635   45.6277 O   0  0  0  0  0  0  0  0  0  0  0  0
   17.6864   -3.1540   48.6999 O   0  0  0  0  0  0  0  0  0  0  0  0
   20.1784   -5.1091   47.1564 O   0  0  0  0  0  0  0  0  0  0  0  0
   19.2761   -1.7842   49.6949 O   0  0  0  0  0  0  0  0  0  0  0  0
   18.9441   -2.1134   51.0308 C   0  0  2  0  0  0  0  0  0  0  0  0
   19.1454   -0.9374   51.9858 C   0  0  1  0  0  0  0  0  0  0  0  0
   20.6419   -0.5283   52.0644 C   0  0  2  0  0  0  0  0  0  0  0  0
   21.4485   -1.7839   52.5102 C   0  0  1  0  0  0  0  0  0  0  0  0
   21.2176   -2.9126   51.4524 C   0  0  1  0  0  0  0  0  0  0  0  0
   21.9166   -4.2046   51.8125 C   0  0  0  0  0  0  0  0  0  0  0  0
   22.9067   -1.3953   52.5927 N   0  0  0  0  0  0  0  0  0  0  0  0
   19.7856   -3.2348   51.4457 O   0  0  0  0  0  0  0  0  0  0  0  0
   18.3396    0.1558   51.5028 O   0  0  0  0  0  0  0  0  0  0  0  0
   20.7701    0.5049   53.0579 O   0  0  0  0  0  0  0  0  0  0  0  0
   21.8366   -5.1405   50.7926 O   0  0  0  0  0  0  0  0  0  0  0  0
   16.1875   -4.3897   43.3880 C   0  0  1  0  0  0  0  0  0  0  0  0
   15.5756   -5.5882   42.5780 C   0  0  1  0  0  0  0  0  0  0  0  0
   16.0300   -5.4740   41.0784 C   0  0  2  0  0  0  0  0  0  0  0  0
   15.5202   -4.1486   40.4927 C   0  0  1  0  0  0  0  0  0  0  0  0
   16.1468   -2.9457   41.2981 C   0  0  0  0  0  0  0  0  0  0  0  0
   15.7042   -3.0668   42.8093 C   0  0  2  0  0  0  0  0  0  0  0  0
   15.9308   -4.0639   39.1008 N   0  0  0  0  0  0  0  0  0  0  0  0
   16.2937   -1.9609   43.6089 N   0  0  0  0  0  0  0  0  0  0  0  0
   16.0559   -6.8475   43.1305 O   0  0  0  0  0  0  0  0  0  0  0  0
   15.4704   -6.5326   40.3473 O   0  0  0  0  0  0  0  0  0  0  0  0
  1  2  1  0  0  0  0
  1 12  1  1  0  0  0
  1 13  1  0  0  0  0
  2  3  1  0  0  0  0
  2 10  1  6  0  0  0
  4  3  1  6  0  0  0
  4  5  1  0  0  0  0
  4 14  1  0  0  0  0
  5  6  1  0  0  0  0
  5 13  1  6  0  0  0
  6  7  1  0  0  0  0
  6 15  1  1  0  0  0
  7  8  1  0  0  0  0
  7 11  1  1  0  0  0
  8 14  1  0  0  0  0
  8 16  1  1  0  0  0
  9 11  1  0  0  0  0
 17 16  1  6  0  0  0
 17 18  1  0  0  0  0
 17 24  1  0  0  0  0
 18 19  1  0  0  0  0
 18 25  1  6  0  0  0
 19 20  1  0  0  0  0
 19 26  1  1  0  0  0
 20 21  1  0  0  0  0
 20 23  1  6  0  0  0
 21 22  1  1  0  0  0
 21 24  1  0  0  0  0
 22 27  1  0  0  0  0
 28 12  1  1  0  0  0
 28 29  1  0  0  0  0
 28 33  1  0  0  0  0
 29 30  1  0  0  0  0
 29 36  1  1  0  0  0
 30 31  1  0  0  0  0
 30 37  1  6  0  0  0
 31 32  1  0  0  0  0
 31 34  1  6  0  0  0
 32 33  1  0  0  0  0
 33 35  1  1  0  0  0
M  END
>  <CHROM.1>
-168.01282714,46.89666642,-164.16579887,177.25217395,-172.76767085,70.03836104
18.30780650,-3.54867959,47.12133904,2.11661823,-0.52950043,-1.58706963

>  <Name>
2oe5_lig

>  <RI>
0

>  <Rbt.Current_Directory>
/home/itssahil/PROJECTS/Mol_Feturizer/New_Systems/rnas/2oe5

>  <Rbt.Executable>
rbdock ($Id: //depot/dev/client3/rdock/2013.1/src/exe/rbdock.cxx#4 $)

>  <Rbt.Library>
libRbt.so (2013.1, Build901 2013/11/27)

>  <Rbt.Parameter_File>
/export/apps/rDock/src/rDock_2013.1_src/data/scripts/dock_solv.prm

>  <Rbt.Receptor>
prm/blind_docking_60.prm

>  <SCORE>
-21.1101

>  <SCORE.INTER>
-15.1729

>  <SCORE.INTER.CONST>
1

>  <SCORE.INTER.POLAR>
-2.06093

>  <SCORE.INTER.ROT>
6

>  <SCORE.INTER.SOLV>
17.4043

>  <SCORE.INTER.VDW>
-16.6469

>  <SCORE.INTER.norm>
-0.410077

>  <SCORE.INTRA>
-5.93725

>  <SCORE.INTRA.DIHEDRAL>
-13.437

>  <SCORE.INTRA.DIHEDRAL.0>
16.2083

>  <SCORE.INTRA.POLAR>
0

>  <SCORE.INTRA.POLAR.0>
0

>  <SCORE.INTRA.REPUL>
0.013739

>  <SCORE.INTRA.REPUL.0>
0

>  <SCORE.INTRA.SOLV>
-2.21086

>  <SCORE.INTRA.SOLV.lig_0>
-89.8095

>  <SCORE.INTRA.VDW>
1.81798

>  <SCORE.INTRA.VDW.0>
-3.19502

>  <SCORE.INTRA.norm>
-0.160466

>  <SCORE.RESTR>
0

>  <SCORE.RESTR.CAVITY>
0

>  <SCORE.RESTR.norm>
0

>  <SCORE.SYSTEM>
0

>  <SCORE.SYSTEM.CONST>
0

>  <SCORE.SYSTEM.DIHEDRAL>
0

>  <SCORE.SYSTEM.SOLV>
0

>  <SCORE.SYSTEM.norm>
0

>  <SCORE.heavy>
37

>  <SCORE.norm>
-0.570543

>  <RMSD>
11.246

$$$$
2oe5_lig
 OpenBabel11021811463D
libRbt.so/2013.1/901 2013/11/27
 37 40  0  0  0  0  0  0  0  0999 V2000
   17.4673   -5.5069   45.0668 C   0  0  1  0  0  0  0  0  0  0  0  0
   16.7263   -5.6602   46.4139 C   0  0  1  0  0  0  0  0  0  0  0  0
   16.9983   -4.3909   47.3038 C   0  0  0  0  0  0  0  0  0  0  0  0
   18.5322   -4.3388   47.4822 C   0  0  1  0  0  0  0  0  0  0  0  0
   19.2794   -4.1856   46.0841 C   0  0  1  0  0  0  0  0  0  0  0  0
   20.8233   -4.1239   46.2416 C   0  0  1  0  0  0  0  0  0  0  0  0
   21.1354   -2.9003   47.1494 C   0  0  1  0  0  0  0  0  0  0  0  0
   20.3429   -3.0700   48.5009 C   0  0  2  0  0  0  0  0  0  0  0  0
   23.2044   -1.5738   48.0560 C   0  0  0  0  0  0  0  0  0  0  0  0
   15.2703   -5.7941   46.1781 N   0  0  0  0  0  0  0  0  0  0  0  0
   22.6226   -2.7954   47.3980 N   0  0  0  0  0  0  0  0  0  0  0  0
   16.9836   -4.3838   44.3120 O   0  0  0  0  0  0  0  0  0  0  0  0
   18.9162   -5.3305   45.2464 O   0  0  0  0  0  0  0  0  0  0  0  0
   18.8859   -3.1914   48.3001 O   0  0  0  0  0  0  0  0  0  0  0  0
   21.2549   -5.3512   46.8380 O   0  0  0  0  0  0  0  0  0  0  0  0
   20.5524   -1.9430   49.3288 O   0  0  0  0  0  0  0  0  0  0  0  0
   20.7852   -2.3536   50.6630 C   0  0  2  0  0  0  0  0  0  0  0  0
   19.5900   -2.0739   51.5734 C   0  0  1  0  0  0  0  0  0  0  0  0
   19.3222   -0.5485   51.6949 C   0  0  2  0  0  0  0  0  0  0  0  0
   20.6265    0.1156   52.2273 C   0  0  1  0  0  0  0  0  0  0  0  0
   21.7767   -0.1853   51.2110 C   0  0  1  0  0  0  0  0  0  0  0  0
   23.1110    0.3714   51.6550 C   0  0  0  0  0  0  0  0  0  0  0  0
   20.3754    1.6007   52.3519 N   0  0  0  0  0  0  0  0  0  0  0  0
   21.9609   -1.6406   51.1602 O   0  0  0  0  0  0  0  0  0  0  0  0
   18.4489   -2.7517   51.0112 O   0  0  0  0  0  0  0  0  0  0  0  0
   18.2602   -0.3567   52.6470 O   0  0  0  0  0  0  0  0  0  0  0  0
   23.5346   -0.1864   52.8517 O   0  0  0  0  0  0  0  0  0  0  0  0
   17.4433   -4.3458   42.9608 C   0  0  1  0  0  0  0  0  0  0  0  0
   16.4048   -5.0598   42.0235 C   0  0  1  0  0  0  0  0  0  0  0  0
   16.9256   -4.9934   40.5427 C   0  0  2  0  0  0  0  0  0  0  0  0
   17.0689   -3.5235   40.1201 C   0  0  1  0  0  0  0  0  0  0  0  0
   18.1228   -2.8115   41.0531 C   0  0  0  0  0  0  0  0  0  0  0  0
   17.6091   -2.8905   42.5446 C   0  0  2  0  0  0  0  0  0  0  0  0
   17.5329   -3.4760   38.7433 N   0  0  0  0  0  0  0  0  0  0  0  0
   18.5876   -2.2482   43.4611 N   0  0  0  0  0  0  0  0  0  0  0  0
   16.2652   -6.4541   42.4211 O   0  0  0  0  0  0  0  0  0  0  0  0
   15.9918   -5.6140   39.6994 O   0  0  0  0  0  0  0  0  0  0  0  0
  1  2  1  0  0  0  0
  1 12  1  1  0  0  0
  1 13  1  0  0  0  0
  2  3  1  0  0  0  0
  2 10  1  6  0  0  0
  4  3  1  6  0  0  0
  4  5  1  0  0  0  0
  4 14  1  0  0  0  0
  5  6  1  0  0  0  0
  5 13  1  6  0  0  0
  6  7  1  0  0  0  0
  6 15  1  1  0  0  0
  7  8  1  0  0  0  0
  7 11  1  1  0  0  0
  8 14  1  0  0  0  0
  8 16  1  1  0  0  0
  9 11  1  0  0  0  0
 17 16  1  6  0  0  0
 17 18  1  0  0  0  0
 17 24  1  0  0  0  0
 18 19  1  0  0  0  0
 18 25  1  6  0  0  0
 19 20  1  0  0  0  0
 19 26  1  1  0  0  0
 20 21  1  0  0  0  0
 20 23  1  6  0  0  0
 21 22  1  1  0  0  0
 21 24  1  0  0  0  0
 22 27  1  0  0  0  0
 28 12  1  1  0  0  0
 28 29  1  0  0  0  0
 28 33  1  0  0  0  0
 29 30  1  0  0  0  0
 29 36  1  1  0  0  0
 30 31  1  0  0  0  0
 30 37  1  6  0  0  0
 31 32  1  0  0  0  0
 31 34  1  6  0  0  0
 32 33  1  0  0  0  0
 33 35  1  1  0  0  0
M  END
>  <CHROM.1>
-168.46588295,169.90845732,-136.43357099,-106.57738237,61.80411029,92.78075410
19.17152266,-3.08354436,46.86702171,2.00877124,-0.51874884,-1.72553229

>  <Name>
2oe5_lig

>  <RI>
0

>  <Rbt.Current_Directory>
/home/itssahil/PROJECTS/Mol_Feturizer/New_Systems/rnas/2oe5

>  <Rbt.Executable>
rbdock ($Id: //depot/dev/client3/rdock/2013.1/src/exe/rbdock.cxx#4 $)

>  <Rbt.Library>
libRbt.so (2013.1, Build901 2013/11/27)

>  <Rbt.Parameter_File>
/export/apps/rDock/src/rDock_2013.1_src/data/scripts/dock_solv.prm

>  <Rbt.Receptor>
prm/blind_docking_80.prm

>  <SCORE>
-19.4376

>  <SCORE.INTER>
-19.2161

>  <SCORE.INTER.CONST>
1

>  <SCORE.INTER.POLAR>
-2.42706

>  <SCORE.INTER.ROT>
6

>  <SCORE.INTER.SOLV>
18.7163

>  <SCORE.INTER.VDW>
-18.5593

>  <SCORE.INTER.norm>
-0.519354

>  <SCORE.INTRA>
-0.227036

>  <SCORE.INTRA.DIHEDRAL>
0.970885

>  <SCORE.INTRA.DIHEDRAL.0>
16.2083

>  <SCORE.INTRA.POLAR>
0

>  <SCORE.INTRA.POLAR.0>
0

>  <SCORE.INTRA.REPUL>
0

>  <SCORE.INTRA.REPUL.0>
0

>  <SCORE.INTRA.SOLV>
-0.307255

>  <SCORE.INTRA.SOLV.lig_0>
-89.8095

>  <SCORE.INTRA.VDW>
-0.558851

>  <SCORE.INTRA.VDW.0>
-3.19502

>  <SCORE.INTRA.norm>
-0.00613612

>  <SCORE.RESTR>
0.00556683

>  <SCORE.RESTR.CAVITY>
0.00556683

>  <SCORE.RESTR.norm>
0.000150455

>  <SCORE.SYSTEM>
0

>  <SCORE.SYSTEM.CONST>
0

>  <SCORE.SYSTEM.DIHEDRAL>
0

>  <SCORE.SYSTEM.SOLV>
0

>  <SCORE.SYSTEM.norm>
0

>  <SCORE.heavy>
37

>  <SCORE.norm>
-0.52534

>  <RMSD>
11.253

$$$$
2oe5_lig
 OpenBabel11021811463D
libRbt.so/2013.1/901 2013/11/27
 37 40  0  0  0  0  0  0  0  0999 V2000
   18.1633   -4.9233   44.0319 C   0  0  1  0  0  0  0  0  0  0  0  0
   17.3725   -5.2361   45.3220 C   0  0  1  0  0  0  0  0  0  0  0  0
   17.5347   -4.0409   46.3332 C   0  0  0  0  0  0  0  0  0  0  0  0
   19.0540   -3.9278   46.5908 C   0  0  1  0  0  0  0  0  0  0  0  0
   19.8531   -3.6102   45.2504 C   0  0  1  0  0  0  0  0  0  0  0  0
   21.3827   -3.4851   45.4887 C   0  0  1  0  0  0  0  0  0  0  0  0
   21.5865   -2.3351   46.5156 C   0  0  1  0  0  0  0  0  0  0  0  0
   20.7452   -2.6670   47.8060 C   0  0  2  0  0  0  0  0  0  0  0  0
   23.5093   -1.1341   47.8283 C   0  0  0  0  0  0  0  0  0  0  0  0
   15.9380   -5.4214   45.0038 N   0  0  0  0  0  0  0  0  0  0  0  0
   23.0532   -2.1781   46.8455 N   0  0  0  0  0  0  0  0  0  0  0  0
   17.6528   -3.7621   43.3567 O   0  0  0  0  0  0  0  0  0  0  0  0
   19.5909   -4.6909   44.2976 O   0  0  0  0  0  0  0  0  0  0  0  0
   19.3074   -2.8432   47.5237 O   0  0  0  0  0  0  0  0  0  0  0  0
   21.8540   -4.7382   45.9945 O   0  0  0  0  0  0  0  0  0  0  0  0
   20.8555   -1.6111   48.7398 O   0  0  0  0  0  0  0  0  0  0  0  0
   21.5782   -2.0397   49.8787 C   0  0  2  0  0  0  0  0  0  0  0  0
   20.7732   -3.0055   50.7475 C   0  0  1  0  0  0  0  0  0  0  0  0
   19.5177   -2.3111   51.3431 C   0  0  2  0  0  0  0  0  0  0  0  0
   20.0059   -1.0719   52.1505 C   0  0  1  0  0  0  0  0  0  0  0  0
   20.7749   -0.1246   51.1720 C   0  0  1  0  0  0  0  0  0  0  0  0
   21.3427    1.0951   51.8629 C   0  0  0  0  0  0  0  0  0  0  0  0
   18.7912   -0.3904   52.7370 N   0  0  0  0  0  0  0  0  0  0  0  0
   21.9390   -0.8577   50.6602 O   0  0  0  0  0  0  0  0  0  0  0  0
   20.3964   -4.1228   49.9185 O   0  0  0  0  0  0  0  0  0  0  0  0
   18.8727   -3.2417   52.2314 O   0  0  0  0  0  0  0  0  0  0  0  0
   20.3475    1.9047   52.3892 O   0  0  0  0  0  0  0  0  0  0  0  0
   16.3792   -3.9563   42.7412 C   0  0  1  0  0  0  0  0  0  0  0  0
   15.7346   -2.5657   42.3985 C   0  0  1  0  0  0  0  0  0  0  0  0
   14.3423   -2.8054   41.7111 C   0  0  2  0  0  0  0  0  0  0  0  0
   14.5462   -3.6068   40.4165 C   0  0  1  0  0  0  0  0  0  0  0  0
   15.1804   -5.0087   40.7638 C   0  0  0  0  0  0  0  0  0  0  0  0
   16.5734   -4.7703   41.4690 C   0  0  2  0  0  0  0  0  0  0  0  0
   13.2540   -3.8055   39.7811 N   0  0  0  0  0  0  0  0  0  0  0  0
   17.1955   -6.0703   41.8334 N   0  0  0  0  0  0  0  0  0  0  0  0
   15.5399   -1.8019   43.6233 O   0  0  0  0  0  0  0  0  0  0  0  0
   13.7711   -1.5658   41.3864 O   0  0  0  0  0  0  0  0  0  0  0  0
  1  2  1  0  0  0  0
  1 12  1  1  0  0  0
  1 13  1  0  0  0  0
  2  3  1  0  0  0  0
  2 10  1  6  0  0  0
  4  3  1  6  0  0  0
  4  5  1  0  0  0  0
  4 14  1  0  0  0  0
  5  6  1  0  0  0  0
  5 13  1  6  0  0  0
  6  7  1  0  0  0  0
  6 15  1  1  0  0  0
  7  8  1  0  0  0  0
  7 11  1  1  0  0  0
  8 14  1  0  0  0  0
  8 16  1  1  0  0  0
  9 11  1  0  0  0  0
 17 16  1  6  0  0  0
 17 18  1  0  0  0  0
 17 24  1  0  0  0  0
 18 19  1  0  0  0  0
 18 25  1  6  0  0  0
 19 20  1  0  0  0  0
 19 26  1  1  0  0  0
 20 21  1  0  0  0  0
 20 23  1  6  0  0  0
 21 22  1  1  0  0  0
 21 24  1  0  0  0  0
 22 27  1  0  0  0  0
 28 12  1  6  0  0  0
 28 29  1  0  0  0  0
 28 33  1  0  0  0  0
 29 30  1  0  0  0  0
 29 36  1  1  0  0  0
 30 31  1  0  0  0  0
 30 37  1  6  0  0  0
 31 32  1  0  0  0  0
 31 34  1  1  0  0  0
 32 33  1  0  0  0  0
 33 35  1  1  0  0  0
M  END
>  <CHROM.1>
-70.87051291,-179.50708113,-112.12212101,-71.96792713,-63.46535940,163.97299360
18.78960372,-2.85792291,46.48272615,-2.12528739,-0.35883143,1.05757896

>  <Name>
2oe5_lig

>  <RI>
0

>  <Rbt.Current_Directory>
/home/itssahil/PROJECTS/Mol_Feturizer/New_Systems/rnas/2oe5

>  <Rbt.Executable>
rbdock ($Id: //depot/dev/client3/rdock/2013.1/src/exe/rbdock.cxx#4 $)

>  <Rbt.Library>
libRbt.so (2013.1, Build901 2013/11/27)

>  <Rbt.Parameter_File>
/export/apps/rDock/src/rDock_2013.1_src/data/scripts/dock_solv.prm

>  <Rbt.Receptor>
prm/blind_docking_60.prm

>  <SCORE>
-16.1134

>  <SCORE.INTER>
-19.0574

>  <SCORE.INTER.CONST>
1

>  <SCORE.INTER.POLAR>
-2.50974

>  <SCORE.INTER.ROT>
6

>  <SCORE.INTER.SOLV>
16.4627

>  <SCORE.INTER.VDW>
-17.4267

>  <SCORE.INTER.norm>
-0.515066

>  <SCORE.INTRA>
2.94401

>  <SCORE.INTRA.DIHEDRAL>
-6.78229

>  <SCORE.INTRA.DIHEDRAL.0>
16.2083

>  <SCORE.INTRA.POLAR>
0

>  <SCORE.INTRA.POLAR.0>
0

>  <SCORE.INTRA.REPUL>
0

>  <SCORE.INTRA.REPUL.0>
0

>  <SCORE.INTRA.SOLV>
3.347

>  <SCORE.INTRA.SOLV.lig_0>
-89.8095

>  <SCORE.INTRA.VDW>
4.66166

>  <SCORE.INTRA.VDW.0>
-3.19502

>  <SCORE.INTRA.norm>
0.079568

>  <SCORE.RESTR>
0

>  <SCORE.RESTR.CAVITY>
0

>  <SCORE.RESTR.norm>
0

>  <SCORE.SYSTEM>
0

>  <SCORE.SYSTEM.CONST>
0

>  <SCORE.SYSTEM.DIHEDRAL>
0

>  <SCORE.SYSTEM.SOLV>
0

>  <SCORE.SYSTEM.norm>
0

>  <SCORE.heavy>
37

>  <SCORE.norm>
-0.435498

>  <RMSD>
11.254

$$$$
2oe5_lig
 OpenBabel11021811463D
libRbt.so/2013.1/901 2013/11/27
 37 40  0  0  0  0  0  0  0  0999 V2000
   16.1362   -5.6834   45.3839 C   0  0  1  0  0  0  0  0  0  0  0  0
   15.5152   -5.9501   46.7734 C   0  0  1  0  0  0  0  0  0  0  0  0
   15.7099   -4.6797   47.6818 C   0  0  0  0  0  0  0  0  0  0  0  0
   17.2377   -4.4613   47.7558 C   0  0  1  0  0  0  0  0  0  0  0  0
   17.8613   -4.1929   46.3151 C   0  0  1  0  0  0  0  0  0  0  0  0
   19.3964   -3.9634   46.3679 C   0  0  1  0  0  0  0  0  0  0  0  0
   19.6371   -2.7344   47.2901 C   0  0  1  0  0  0  0  0  0  0  0  0
   18.9672   -3.0231   48.6869 C   0  0  2  0  0  0  0  0  0  0  0  0
   22.0734   -2.8216   46.3310 C   0  0  0  0  0  0  0  0  0  0  0  0
   14.0694   -6.2397   46.6342 N   0  0  0  0  0  0  0  0  0  0  0  0
   21.1179   -2.4704   47.4390 N   0  0  0  0  0  0  0  0  0  0  0  0
   15.4796   -4.6037   44.6998 O   0  0  0  0  0  0  0  0  0  0  0  0
   17.5663   -5.3510   45.4689 O   0  0  0  0  0  0  0  0  0  0  0  0
   17.5216   -3.3013   48.5831 O   0  0  0  0  0  0  0  0  0  0  0  0
   20.0015   -5.1487   46.8944 O   0  0  0  0  0  0  0  0  0  0  0  0
   19.1110   -1.8997   49.5334 O   0  0  0  0  0  0  0  0  0  0  0  0
   18.8130   -2.2544   50.8707 C   0  0  2  0  0  0  0  0  0  0  0  0
   19.2107   -1.1627   51.8633 C   0  0  1  0  0  0  0  0  0  0  0  0
   20.7487   -0.9441   51.8704 C   0  0  2  0  0  0  0  0  0  0  0  0
   21.4149   -2.3101   52.2108 C   0  0  1  0  0  0  0  0  0  0  0  0
   20.9882   -3.3461   51.1195 C   0  0  1  0  0  0  0  0  0  0  0  0
   21.5386   -4.7306   51.3793 C   0  0  0  0  0  0  0  0  0  0  0  0
   22.9125   -2.1074   52.2231 N   0  0  0  0  0  0  0  0  0  0  0  0
   19.5289   -3.4901   51.1842 O   0  0  0  0  0  0  0  0  0  0  0  0
   18.5230    0.0443   51.4787 O   0  0  0  0  0  0  0  0  0  0  0  0
   21.0583    0.0131   52.8995 O   0  0  0  0  0  0  0  0  0  0  0  0
   22.8897   -4.8174   51.0797 O   0  0  0  0  0  0  0  0  0  0  0  0
   15.9962   -4.3376   43.3956 C   0  0  1  0  0  0  0  0  0  0  0  0
   15.6305   -5.5177   42.4258 C   0  0  1  0  0  0  0  0  0  0  0  0
   16.1972   -5.1961   40.9962 C   0  0  2  0  0  0  0  0  0  0  0  0
   15.5640   -3.8954   40.4795 C   0  0  1  0  0  0  0  0  0  0  0  0
   15.9441   -2.7087   41.4466 C   0  0  0  0  0  0  0  0  0  0  0  0
   15.3889   -3.0366   42.8884 C   0  0  2  0  0  0  0  0  0  0  0  0
   16.0820   -3.6194   39.1496 N   0  0  0  0  0  0  0  0  0  0  0  0
   15.7463   -1.9498   43.8376 N   0  0  0  0  0  0  0  0  0  0  0  0
   16.2284   -6.7535   42.9123 O   0  0  0  0  0  0  0  0  0  0  0  0
   15.8567   -6.2393   40.1221 O   0  0  0  0  0  0  0  0  0  0  0  0
  1  2  1  0  0  0  0
  1 12  1  1  0  0  0
  1 13  1  0  0  0  0
  2  3  1  0  0  0  0
  2 10  1  6  0  0  0
  4  3  1  6  0  0  0
  4  5  1  0  0  0  0
  4 14  1  0  0  0  0
  5  6  1  0  0  0  0
  5 13  1  6  0  0  0
  6  7  1  0  0  0  0
  6 15  1  1  0  0  0
  7  8  1  0  0  0  0
  7 11  1  1  0  0  0
  8 14  1  0  0  0  0
  8 16  1  1  0  0  0
  9 11  1  0  0  0  0
 17 16  1  6  0  0  0
 17 18  1  0  0  0  0
 17 24  1  0  0  0  0
 18 19  1  0  0  0  0
 18 25  1  6  0  0  0
 19 20  1  0  0  0  0
 19 26  1  1  0  0  0
 20 21  1  0  0  0  0
 20 23  1  6  0  0  0
 21 22  1  1  0  0  0
 21 24  1  0  0  0  0
 22 27  1  0  0  0  0
 28 12  1  1  0  0  0
 28 29  1  0  0  0  0
 28 33  1  0  0  0  0
 29 30  1  0  0  0  0
 29 36  1  1  0  0  0
 30 31  1  0  0  0  0
 30 37  1  6  0  0  0
 31 32  1  0  0  0  0
 31 34  1  6  0  0  0
 32 33  1  0  0  0  0
 33 35  1  1  0  0  0
M  END
>  <CHROM.1>
-178.58255235,29.85548613,-165.78852347,168.85456447,-75.17064459,69.30220603
18.23694696,-3.64937831,46.99738829,2.06562010,-0.20973556,-1.72964292

>  <Name>
2oe5_lig

>  <RI>
0

>  <Rbt.Current_Directory>
/home/itssahil/PROJECTS/Mol_Feturizer/New_Systems/rnas/2oe5

>  <Rbt.Executable>
rbdock ($Id: //depot/dev/client3/rdock/2013.1/src/exe/rbdock.cxx#4 $)

>  <Rbt.Library>
libRbt.so (2013.1, Build901 2013/11/27)

>  <Rbt.Parameter_File>
/export/apps/rDock/src/rDock_2013.1_src/data/scripts/dock_solv.prm

>  <Rbt.Receptor>
prm/blind_docking_100.prm

>  <SCORE>
-20.7858

>  <SCORE.INTER>
-16.8397

>  <SCORE.INTER.CONST>
1

>  <SCORE.INTER.POLAR>
-2.17817

>  <SCORE.INTER.ROT>
6

>  <SCORE.INTER.SOLV>
18.2845

>  <SCORE.INTER.VDW>
-17.6607

>  <SCORE.INTER.norm>
-0.455126

>  <SCORE.INTRA>
-3.94617

>  <SCORE.INTRA.DIHEDRAL>
-12.743

>  <SCORE.INTRA.DIHEDRAL.0>
16.2083

>  <SCORE.INTRA.POLAR>
0

>  <SCORE.INTRA.POLAR.0>
0

>  <SCORE.INTRA.REPUL>
0

>  <SCORE.INTRA.REPUL.0>
0

>  <SCORE.INTRA.SOLV>
-1.8138

>  <SCORE.INTRA.SOLV.lig_0>
-89.8095

>  <SCORE.INTRA.VDW>
3.33221

>  <SCORE.INTRA.VDW.0>
-3.19502

>  <SCORE.INTRA.norm>
-0.106653

>  <SCORE.RESTR>
0

>  <SCORE.RESTR.CAVITY>
0

>  <SCORE.RESTR.norm>
0

>  <SCORE.SYSTEM>
0

>  <SCORE.SYSTEM.CONST>
0

>  <SCORE.SYSTEM.DIHEDRAL>
0

>  <SCORE.SYSTEM.SOLV>
0

>  <SCORE.SYSTEM.norm>
0

>  <SCORE.heavy>
37

>  <SCORE.norm>
-0.561779

>  <RMSD>
11.258

$$$$
2oe5_lig
 OpenBabel11021811463D
libRbt.so/2013.1/901 2013/11/27
 37 40  0  0  0  0  0  0  0  0999 V2000
   18.4942   -6.2560   44.3221 C   0  0  1  0  0  0  0  0  0  0  0  0
   18.3911   -7.2178   45.5269 C   0  0  1  0  0  0  0  0  0  0  0  0
   18.3882   -6.3816   46.8603 C   0  0  0  0  0  0  0  0  0  0  0  0
   19.7180   -5.5949   46.8514 C   0  0  1  0  0  0  0  0  0  0  0  0
   19.8091   -4.6129   45.6010 C   0  0  1  0  0  0  0  0  0  0  0  0
   21.1363   -3.8065   45.5771 C   0  0  1  0  0  0  0  0  0  0  0  0
   21.1923   -2.9911   46.9002 C   0  0  1  0  0  0  0  0  0  0  0  0
   21.0542   -3.9941   48.1077 C   0  0  2  0  0  0  0  0  0  0  0  0
   22.9516   -1.6410   48.2949 C   0  0  0  0  0  0  0  0  0  0  0  0
   17.1418   -8.0082   45.4379 N   0  0  0  0  0  0  0  0  0  0  0  0
   22.4844   -2.2112   46.9832 N   0  0  0  0  0  0  0  0  0  0  0  0
   17.3595   -5.3786   44.2360 O   0  0  0  0  0  0  0  0  0  0  0  0
   19.7007   -5.4172   44.3821 O   0  0  0  0  0  0  0  0  0  0  0  0
   19.8107   -4.7871   48.0553 O   0  0  0  0  0  0  0  0  0  0  0  0
   22.2174   -4.7395   45.4823 O   0  0  0  0  0  0  0  0  0  0  0  0
   21.0375   -3.2813   49.3287 O   0  0  0  0  0  0  0  0  0  0  0  0
   20.7664   -4.1606   50.4040 C   0  0  2  0  0  0  0  0  0  0  0  0
   19.7074   -3.6050   51.3555 C   0  0  1  0  0  0  0  0  0  0  0  0
   20.2037   -2.3080   52.0516 C   0  0  2  0  0  0  0  0  0  0  0  0
   21.5291   -2.6519   52.7938 C   0  0  1  0  0  0  0  0  0  0  0  0
   22.5608   -3.1658   51.7365 C   0  0  1  0  0  0  0  0  0  0  0  0
   23.8766   -3.5810   52.3559 C   0  0  0  0  0  0  0  0  0  0  0  0
   22.0192   -1.3963   53.4774 N   0  0  0  0  0  0  0  0  0  0  0  0
   22.0137   -4.3866   51.1327 O   0  0  0  0  0  0  0  0  0  0  0  0
   18.5198   -3.3485   50.5799 O   0  0  0  0  0  0  0  0  0  0  0  0
   19.2063   -1.9053   53.0076 O   0  0  0  0  0  0  0  0  0  0  0  0
   23.7016   -4.4946   53.3842 O   0  0  0  0  0  0  0  0  0  0  0  0
   17.3967   -4.4817   43.1257 C   0  0  1  0  0  0  0  0  0  0  0  0
   17.2906   -5.2898   41.7831 C   0  0  1  0  0  0  0  0  0  0  0  0
   17.3203   -4.2818   40.5783 C   0  0  2  0  0  0  0  0  0  0  0  0
   16.1278   -3.3201   40.6912 C   0  0  1  0  0  0  0  0  0  0  0  0
   16.2434   -2.4990   42.0331 C   0  0  0  0  0  0  0  0  0  0  0  0
   16.2294   -3.5112   43.2454 C   0  0  2  0  0  0  0  0  0  0  0  0
   16.1560   -2.4057   39.5615 N   0  0  0  0  0  0  0  0  0  0  0  0
   16.3590   -2.7767   44.5313 N   0  0  0  0  0  0  0  0  0  0  0  0
   18.4193   -6.2038   41.6721 O   0  0  0  0  0  0  0  0  0  0  0  0
   17.2071   -4.9983   39.3774 O   0  0  0  0  0  0  0  0  0  0  0  0
  1  2  1  0  0  0  0
  1 12  1  1  0  0  0
  1 13  1  0  0  0  0
  2  3  1  0  0  0  0
  2 10  1  6  0  0  0
  4  3  1  1  0  0  0
  4  5  1  0  0  0  0
  4 14  1  0  0  0  0
  5  6  1  0  0  0  0
  5 13  1  6  0  0  0
  6  7  1  0  0  0  0
  6 15  1  1  0  0  0
  7  8  1  0  0  0  0
  7 11  1  1  0  0  0
  8 14  1  0  0  0  0
  8 16  1  1  0  0  0
  9 11  1  0  0  0  0
 17 16  1  6  0  0  0
 17 18  1  0  0  0  0
 17 24  1  0  0  0  0
 18 19  1  0  0  0  0
 18 25  1  6  0  0  0
 19 20  1  0  0  0  0
 19 26  1  1  0  0  0
 20 21  1  0  0  0  0
 20 23  1  6  0  0  0
 21 22  1  1  0  0  0
 21 24  1  0  0  0  0
 22 27  1  0  0  0  0
 28 12  1  1  0  0  0
 28 29  1  0  0  0  0
 28 33  1  0  0  0  0
 29 30  1  0  0  0  0
 29 36  1  6  0  0  0
 30 31  1  0  0  0  0
 30 37  1  6  0  0  0
 31 32  1  0  0  0  0
 31 34  1  6  0  0  0
 32 33  1  0  0  0  0
 33 35  1  1  0  0  0
M  END
>  <CHROM.1>
-179.10674410,-163.66241571,173.57936619,-133.53674607,53.10564059,66.01620937
19.58930019,-4.09058795,46.81378031,-2.20585541,-0.80259586,0.93862832

>  <Name>
2oe5_lig

>  <RI>
0

>  <Rbt.Current_Directory>
/home/itssahil/PROJECTS/Mol_Feturizer/New_Systems/rnas/2oe5

>  <Rbt.Executable>
rbdock ($Id: //depot/dev/client3/rdock/2013.1/src/exe/rbdock.cxx#4 $)

>  <Rbt.Library>
libRbt.so (2013.1, Build901 2013/11/27)

>  <Rbt.Parameter_File>
/export/apps/rDock/src/rDock_2013.1_src/data/scripts/dock_solv.prm

>  <Rbt.Receptor>
prm/blind_docking_60.prm

>  <SCORE>
-20.8314

>  <SCORE.INTER>
-19.0156

>  <SCORE.INTER.CONST>
1

>  <SCORE.INTER.POLAR>
-2.53656

>  <SCORE.INTER.ROT>
6

>  <SCORE.INTER.SOLV>
16.0352

>  <SCORE.INTER.VDW>
-17.1669

>  <SCORE.INTER.norm>
-0.513936

>  <SCORE.INTRA>
-1.81572

>  <SCORE.INTRA.DIHEDRAL>
-9.02459

>  <SCORE.INTRA.DIHEDRAL.0>
16.2083

>  <SCORE.INTRA.POLAR>
0

>  <SCORE.INTRA.POLAR.0>
0

>  <SCORE.INTRA.REPUL>
0

>  <SCORE.INTRA.REPUL.0>
0

>  <SCORE.INTRA.SOLV>
-2.35953

>  <SCORE.INTRA.SOLV.lig_0>
-89.8095

>  <SCORE.INTRA.VDW>
3.87633

>  <SCORE.INTRA.VDW.0>
-3.19502

>  <SCORE.INTRA.norm>
-0.0490736

>  <SCORE.RESTR>
0

>  <SCORE.RESTR.CAVITY>
0

>  <SCORE.RESTR.norm>
0

>  <SCORE.SYSTEM>
0

>  <SCORE.SYSTEM.CONST>
0

>  <SCORE.SYSTEM.DIHEDRAL>
0

>  <SCORE.SYSTEM.SOLV>
0

>  <SCORE.SYSTEM.norm>
0

>  <SCORE.heavy>
37

>  <SCORE.norm>
-0.56301

>  <RMSD>
11.281

$$$$
2oe5_lig
 OpenBabel11021811463D
libRbt.so/2013.1/901 2013/11/27
 37 40  0  0  0  0  0  0  0  0999 V2000
   15.5575   -5.6395   44.4423 C   0  0  1  0  0  0  0  0  0  0  0  0
   15.1518   -6.1377   45.8475 C   0  0  1  0  0  0  0  0  0  0  0  0
   15.5281   -5.0441   46.9150 C   0  0  0  0  0  0  0  0  0  0  0  0
   17.0553   -4.8514   46.7806 C   0  0  1  0  0  0  0  0  0  0  0  0
   17.4555   -4.3427   45.3255 C   0  0  1  0  0  0  0  0  0  0  0  0
   18.9870   -4.1354   45.1713 C   0  0  1  0  0  0  0  0  0  0  0  0
   19.4095   -3.0853   46.2379 C   0  0  1  0  0  0  0  0  0  0  0  0
   18.9559   -3.6061   47.6542 C   0  0  2  0  0  0  0  0  0  0  0  0
   21.8568   -4.0117   46.3618 C   0  0  0  0  0  0  0  0  0  0  0  0
   13.6931   -6.3899   45.8933 N   0  0  0  0  0  0  0  0  0  0  0  0
   20.9034   -2.8602   46.1916 N   0  0  0  0  0  0  0  0  0  0  0  0
   14.8389   -4.4540   44.0641 O   0  0  0  0  0  0  0  0  0  0  0  0
   16.9937   -5.3358   44.3535 O   0  0  0  0  0  0  0  0  0  0  0  0
   17.5033   -3.8532   47.7364 O   0  0  0  0  0  0  0  0  0  0  0  0
   19.6265   -5.3975   45.3866 O   0  0  0  0  0  0  0  0  0  0  0  0
   19.2675   -2.6464   48.6447 O   0  0  0  0  0  0  0  0  0  0  0  0
   20.0972   -3.2203   49.6372 C   0  0  2  0  0  0  0  0  0  0  0  0
   19.7925   -2.6784   51.0333 C   0  0  1  0  0  0  0  0  0  0  0  0
   20.1001   -1.1585   51.1246 C   0  0  2  0  0  0  0  0  0  0  0  0
   21.5952   -0.9585   50.7370 C   0  0  1  0  0  0  0  0  0  0  0  0
   21.7984   -1.4981   49.2831 C   0  0  1  0  0  0  0  0  0  0  0  0
   23.2342   -1.4017   48.8179 C   0  0  0  0  0  0  0  0  0  0  0  0
   21.9057    0.5179   50.8256 N   0  0  0  0  0  0  0  0  0  0  0  0
   21.4881   -2.9327   49.2898 O   0  0  0  0  0  0  0  0  0  0  0  0
   18.4006   -2.9372   51.3042 O   0  0  0  0  0  0  0  0  0  0  0  0
   19.8955   -0.7433   52.4872 O   0  0  0  0  0  0  0  0  0  0  0  0
   23.3472   -1.5570   47.4447 O   0  0  0  0  0  0  0  0  0  0  0  0
   15.1514   -3.9730   42.7565 C   0  0  1  0  0  0  0  0  0  0  0  0
   16.5547   -3.2678   42.7686 C   0  0  1  0  0  0  0  0  0  0  0  0
   16.8818   -2.7597   41.3183 C   0  0  2  0  0  0  0  0  0  0  0  0
   16.9203   -3.9574   40.3571 C   0  0  1  0  0  0  0  0  0  0  0  0
   15.5061   -4.6559   40.3352 C   0  0  0  0  0  0  0  0  0  0  0  0
   15.1680   -5.1540   41.7954 C   0  0  2  0  0  0  0  0  0  0  0  0
   17.2420   -3.4765   39.0236 N   0  0  0  0  0  0  0  0  0  0  0  0
   13.8296   -5.8004   41.8222 N   0  0  0  0  0  0  0  0  0  0  0  0
   16.5231   -2.1316   43.6794 O   0  0  0  0  0  0  0  0  0  0  0  0
   18.1430   -2.1453   41.3207 O   0  0  0  0  0  0  0  0  0  0  0  0
  1  2  1  0  0  0  0
  1 12  1  1  0  0  0
  1 13  1  0  0  0  0
  2  3  1  0  0  0  0
  2 10  1  6  0  0  0
  4  3  1  6  0  0  0
  4  5  1  0  0  0  0
  4 14  1  0  0  0  0
  5  6  1  0  0  0  0
  5 13  1  6  0  0  0
  6  7  1  0  0  0  0
  6 15  1  1  0  0  0
  7  8  1  0  0  0  0
  7 11  1  1  0  0  0
  8 14  1  0  0  0  0
  8 16  1  1  0  0  0
  9 11  1  0  0  0  0
 17 16  1  6  0  0  0
 17 18  1  0  0  0  0
 17 24  1  0  0  0  0
 18 19  1  0  0  0  0
 18 25  1  6  0  0  0
 19 20  1  0  0  0  0
 19 26  1  1  0  0  0
 20 21  1  0  0  0  0
 20 23  1  6  0  0  0
 21 22  1  1  0  0  0
 21 24  1  0  0  0  0
 22 27  1  0  0  0  0
 28 12  1  1  0  0  0
 28 29  1  0  0  0  0
 28 33  1  0  0  0  0
 29 30  1  0  0  0  0
 29 36  1  1  0  0  0
 30 31  1  0  0  0  0
 30 37  1  1  0  0  0
 31 32  1  0  0  0  0
 31 34  1  6  0  0  0
 32 33  1  0  0  0  0
 33 35  1  6  0  0  0
M  END
>  <CHROM.1>
-178.37770054,-56.60908018,-122.78710337,-144.35589405,-164.75611445,-75.31578616
18.31352039,-3.43409454,46.09492601,2.22149176,-0.49920379,-1.55523129

>  <Name>
2oe5_lig

>  <RI>
0

>  <Rbt.Current_Directory>
/home/itssahil/PROJECTS/Mol_Feturizer/New_Systems/rnas/2oe5

>  <Rbt.Executable>
rbdock ($Id: //depot/dev/client3/rdock/2013.1/src/exe/rbdock.cxx#4 $)

>  <Rbt.Library>
libRbt.so (2013.1, Build901 2013/11/27)

>  <Rbt.Parameter_File>
/export/apps/rDock/src/rDock_2013.1_src/data/scripts/dock_solv.prm

>  <Rbt.Receptor>
prm/blind_docking_100.prm

>  <SCORE>
-20.0727

>  <SCORE.INTER>
-22.7077

>  <SCORE.INTER.CONST>
1

>  <SCORE.INTER.POLAR>
-2.69689

>  <SCORE.INTER.ROT>
6

>  <SCORE.INTER.SOLV>
15.753

>  <SCORE.INTER.VDW>
-18.9998

>  <SCORE.INTER.norm>
-0.613722

>  <SCORE.INTRA>
2.63504

>  <SCORE.INTRA.DIHEDRAL>
-2.464

>  <SCORE.INTRA.DIHEDRAL.0>
16.2083

>  <SCORE.INTRA.POLAR>
0

>  <SCORE.INTRA.POLAR.0>
0

>  <SCORE.INTRA.REPUL>
0

>  <SCORE.INTRA.REPUL.0>
0

>  <SCORE.INTRA.SOLV>
0.507577

>  <SCORE.INTRA.SOLV.lig_0>
-89.8095

>  <SCORE.INTRA.VDW>
3.61325

>  <SCORE.INTRA.VDW.0>
-3.19502

>  <SCORE.INTRA.norm>
0.0712173

>  <SCORE.RESTR>
0

>  <SCORE.RESTR.CAVITY>
0

>  <SCORE.RESTR.norm>
0

>  <SCORE.SYSTEM>
0

>  <SCORE.SYSTEM.CONST>
0

>  <SCORE.SYSTEM.DIHEDRAL>
0

>  <SCORE.SYSTEM.SOLV>
0

>  <SCORE.SYSTEM.norm>
0

>  <SCORE.heavy>
37

>  <SCORE.norm>
-0.542505

>  <RMSD>
11.283

$$$$
2oe5_lig
 OpenBabel11021811463D
libRbt.so/2013.1/901 2013/11/27
 37 40  0  0  0  0  0  0  0  0999 V2000
   16.0766   -5.8719   45.5829 C   0  0  1  0  0  0  0  0  0  0  0  0
   15.7019   -5.8297   47.0813 C   0  0  1  0  0  0  0  0  0  0  0  0
   16.2770   -4.5128   47.7235 C   0  0  0  0  0  0  0  0  0  0  0  0
   17.8047   -4.5853   47.5040 C   0  0  1  0  0  0  0  0  0  0  0  0
   18.1720   -4.6331   45.9551 C   0  0  1  0  0  0  0  0  0  0  0  0
   19.7046   -4.6989   45.7119 C   0  0  1  0  0  0  0  0  0  0  0  0
   20.3199   -3.4294   46.3665 C   0  0  1  0  0  0  0  0  0  0  0  0
   19.8958   -3.3981   47.8839 C   0  0  2  0  0  0  0  0  0  0  0  0
   22.4608   -3.6063   44.8672 C   0  0  0  0  0  0  0  0  0  0  0  0
   14.2291   -5.8508   47.2354 N   0  0  0  0  0  0  0  0  0  0  0  0
   21.8243   -3.4385   46.2202 N   0  0  0  0  0  0  0  0  0  0  0  0
   15.4874   -4.7849   44.8506 O   0  0  0  0  0  0  0  0  0  0  0  0
   17.5308   -5.8132   45.3717 O   0  0  0  0  0  0  0  0  0  0  0  0
   18.4319   -3.4036   48.0705 O   0  0  0  0  0  0  0  0  0  0  0  0
   20.1958   -5.8993   46.3169 O   0  0  0  0  0  0  0  0  0  0  0  0
   20.3853   -2.2226   48.4984 O   0  0  0  0  0  0  0  0  0  0  0  0
   20.2769   -2.3257   49.9058 C   0  0  2  0  0  0  0  0  0  0  0  0
   20.7231   -1.0490   50.6175 C   0  0  1  0  0  0  0  0  0  0  0  0
   22.2332   -0.7727   50.3799 C   0  0  2  0  0  0  0  0  0  0  0  0
   23.0220   -2.0207   50.8758 C   0  0  1  0  0  0  0  0  0  0  0  0
   22.5315   -3.2628   50.0616 C   0  0  1  0  0  0  0  0  0  0  0  0
   23.1968   -4.5490   50.4977 C   0  0  0  0  0  0  0  0  0  0  0  0
   24.4938   -1.7606   50.6515 N   0  0  0  0  0  0  0  0  0  0  0  0
   21.1034   -3.4491   50.3448 O   0  0  0  0  0  0  0  0  0  0  0  0
   19.9177    0.0337   50.1108 O   0  0  0  0  0  0  0  0  0  0  0  0
   22.6052    0.3755   51.1637 O   0  0  0  0  0  0  0  0  0  0  0  0
   24.5628   -4.5342   50.2598 O   0  0  0  0  0  0  0  0  0  0  0  0
   15.9293   -4.6846   43.4966 C   0  0  1  0  0  0  0  0  0  0  0  0
   15.3209   -5.8582   42.6484 C   0  0  1  0  0  0  0  0  0  0  0  0
   15.8100   -5.7188   41.1619 C   0  0  2  0  0  0  0  0  0  0  0  0
   15.3298   -4.3751   40.5930 C   0  0  1  0  0  0  0  0  0  0  0  0
   15.9531   -3.1972   41.4370 C   0  0  0  0  0  0  0  0  0  0  0  0
   15.4754   -3.3439   42.9353 C   0  0  2  0  0  0  0  0  0  0  0  0
   15.7724   -4.2668   39.2126 N   0  0  0  0  0  0  0  0  0  0  0  0
   16.0605   -2.2624   43.7707 N   0  0  0  0  0  0  0  0  0  0  0  0
   15.7732   -7.1346   43.1848 O   0  0  0  0  0  0  0  0  0  0  0  0
   15.2539   -6.7548   40.3966 O   0  0  0  0  0  0  0  0  0  0  0  0
  1  2  1  0  0  0  0
  1 12  1  6  0  0  0
  1 13  1  0  0  0  0
  2  3  1  0  0  0  0
  2 10  1  6  0  0  0
  4  3  1  6  0  0  0
  4  5  1  0  0  0  0
  4 14  1  0  0  0  0
  5  6  1  0  0  0  0
  5 13  1  1  0  0  0
  6  7  1  0  0  0  0
  6 15  1  1  0  0  0
  7  8  1  0  0  0  0
  7 11  1  1  0  0  0
  8 14  1  0  0  0  0
  8 16  1  6  0  0  0
  9 11  1  0  0  0  0
 17 16  1  6  0  0  0
 17 18  1  0  0  0  0
 17 24  1  0  0  0  0
 18 19  1  0  0  0  0
 18 25  1  6  0  0  0
 19 20  1  0  0  0  0
 19 26  1  1  0  0  0
 20 21  1  0  0  0  0
 20 23  1  6  0  0  0
 21 22  1  1  0  0  0
 21 24  1  0  0  0  0
 22 27  1  0  0  0  0
 28 12  1  1  0  0  0
 28 29  1  0  0  0  0
 28 33  1  0  0  0  0
 29 30  1  0  0  0  0
 29 36  1  1  0  0  0
 30 31  1  0  0  0  0
 30 37  1  6  0  0  0
 31 32  1  0  0  0  0
 31 34  1  6  0  0  0
 32 33  1  0  0  0  0
 33 35  1  1  0  0  0
M  END
>  <CHROM.1>
172.89169152,53.57281395,-166.79106160,-176.90607055,-64.10841147,71.63851732
18.84045069,-3.86522419,46.48543036,2.26999104,-0.19977272,-1.77349420

>  <Name>
2oe5_lig

>  <RI>
0

>  <Rbt.Current_Directory>
/home/itssahil/PROJECTS/Mol_Feturizer/New_Systems/rnas/2oe5

>  <Rbt.Executable>
rbdock ($Id: //depot/dev/client3/rdock/2013.1/src/exe/rbdock.cxx#4 $)

>  <Rbt.Library>
libRbt.so (2013.1, Build901 2013/11/27)

>  <Rbt.Parameter_File>
/export/apps/rDock/src/rDock_2013.1_src/data/scripts/dock_solv.prm

>  <Rbt.Receptor>
prm/blind_docking_100.prm

>  <SCORE>
-23.0247

>  <SCORE.INTER>
-16.9701

>  <SCORE.INTER.CONST>
1

>  <SCORE.INTER.POLAR>
-2.01496

>  <SCORE.INTER.ROT>
6

>  <SCORE.INTER.SOLV>
16.4725

>  <SCORE.INTER.VDW>
-17.6877

>  <SCORE.INTER.norm>
-0.458652

>  <SCORE.INTRA>
-6.0546

>  <SCORE.INTRA.DIHEDRAL>
-14.2548

>  <SCORE.INTRA.DIHEDRAL.0>
16.2083

>  <SCORE.INTRA.POLAR>
0

>  <SCORE.INTRA.POLAR.0>
0

>  <SCORE.INTRA.REPUL>
0

>  <SCORE.INTRA.REPUL.0>
0

>  <SCORE.INTRA.SOLV>
-1.71827

>  <SCORE.INTRA.SOLV.lig_0>
-89.8095

>  <SCORE.INTRA.VDW>
1.93195

>  <SCORE.INTRA.VDW.0>
-3.19502

>  <SCORE.INTRA.norm>
-0.163638

>  <SCORE.RESTR>
0

>  <SCORE.RESTR.CAVITY>
0

>  <SCORE.RESTR.norm>
0

>  <SCORE.SYSTEM>
0

>  <SCORE.SYSTEM.CONST>
0

>  <SCORE.SYSTEM.DIHEDRAL>
0

>  <SCORE.SYSTEM.SOLV>
0

>  <SCORE.SYSTEM.norm>
0

>  <SCORE.heavy>
37

>  <SCORE.norm>
-0.62229

>  <RMSD>
11.284

$$$$
2oe5_lig
 OpenBabel11021811463D
libRbt.so/2013.1/901 2013/11/27
 37 40  0  0  0  0  0  0  0  0999 V2000
   19.4959   -2.9883   44.7363 C   0  0  1  0  0  0  0  0  0  0  0  0
   18.1228   -2.9182   45.4413 C   0  0  1  0  0  0  0  0  0  0  0  0
   17.1270   -3.9146   44.7393 C   0  0  0  0  0  0  0  0  0  0  0  0
   17.0539   -3.4492   43.2677 C   0  0  1  0  0  0  0  0  0  0  0  0
   18.4780   -3.5233   42.5587 C   0  0  1  0  0  0  0  0  0  0  0  0
   18.4253   -3.0662   41.0753 C   0  0  1  0  0  0  0  0  0  0  0  0
   17.4193   -4.0046   40.3499 C   0  0  1  0  0  0  0  0  0  0  0  0
   16.0400   -3.9352   41.1086 C   0  0  2  0  0  0  0  0  0  0  0  0
   16.3899   -2.4336   38.5237 C   0  0  0  0  0  0  0  0  0  0  0  0
   18.2670   -3.2888   46.8679 N   0  0  0  0  0  0  0  0  0  0  0  0
   17.2677   -3.5953   38.9028 N   0  0  0  0  0  0  0  0  0  0  0  0
   20.0931   -4.2903   44.8508 O   0  0  0  0  0  0  0  0  0  0  0  0
   19.4025   -2.6668   43.3043 O   0  0  0  0  0  0  0  0  0  0  0  0
   16.1480   -4.3135   42.5309 O   0  0  0  0  0  0  0  0  0  0  0  0
   17.9924   -1.7024   41.0494 O   0  0  0  0  0  0  0  0  0  0  0  0
   15.1161   -4.8254   40.5143 O   0  0  0  0  0  0  0  0  0  0  0  0
   13.8559   -4.7174   41.1493 C   0  0  2  0  0  0  0  0  0  0  0  0
   12.8886   -5.8162   40.7106 C   0  0  1  0  0  0  0  0  0  0  0  0
   12.5544   -5.6985   39.1982 C   0  0  2  0  0  0  0  0  0  0  0  0
   11.9667   -4.2765   38.9570 C   0  0  1  0  0  0  0  0  0  0  0  0
   13.0407   -3.2252   39.3902 C   0  0  1  0  0  0  0  0  0  0  0  0
   12.5559   -1.7997   39.2474 C   0  0  0  0  0  0  0  0  0  0  0  0
   11.6353   -4.1527   37.4877 N   0  0  0  0  0  0  0  0  0  0  0  0
   13.2935   -3.4073   40.8246 O   0  0  0  0  0  0  0  0  0  0  0  0
   13.5115   -7.0832   41.0012 O   0  0  0  0  0  0  0  0  0  0  0  0
   11.5609   -6.6907   38.8825 O   0  0  0  0  0  0  0  0  0  0  0  0
   13.3862   -0.9006   39.8992 O   0  0  0  0  0  0  0  0  0  0  0  0
   20.4889   -4.6374   46.1780 C   0  0  1  0  0  0  0  0  0  0  0  0
   20.3012   -6.1803   46.4045 C   0  0  1  0  0  0  0  0  0  0  0  0
   20.7552   -6.5394   47.8651 C   0  0  2  0  0  0  0  0  0  0  0  0
   22.2368   -6.1738   48.0409 C   0  0  1  0  0  0  0  0  0  0  0  0
   22.4214   -4.6219   47.8272 C   0  0  0  0  0  0  0  0  0  0  0  0
   21.9511   -4.2557   46.3647 C   0  0  2  0  0  0  0  0  0  0  0  0
   22.6490   -6.5281   49.3891 N   0  0  0  0  0  0  0  0  0  0  0  0
   22.0887   -2.7942   46.1301 N   0  0  0  0  0  0  0  0  0  0  0  0
   18.8976   -6.5317   46.2381 O   0  0  0  0  0  0  0  0  0  0  0  0
   20.6066   -7.9200   48.0656 O   0  0  0  0  0  0  0  0  0  0  0  0
  1  2  1  0  0  0  0
  1 12  1  6  0  0  0
  1 13  1  0  0  0  0
  2  3  1  0  0  0  0
  2 10  1  1  0  0  0
  4  3  1  1  0  0  0
  4  5  1  0  0  0  0
  4 14  1  0  0  0  0
  5  6  1  0  0  0  0
  5 13  1  1  0  0  0
  6  7  1  0  0  0  0
  6 15  1  1  0  0  0
  7  8  1  0  0  0  0
  7 11  1  6  0  0  0
  8 14  1  0  0  0  0
  8 16  1  6  0  0  0
  9 11  1  0  0  0  0
 17 16  1  6  0  0  0
 17 18  1  0  0  0  0
 17 24  1  0  0  0  0
 18 19  1  0  0  0  0
 18 25  1  6  0  0  0
 19 20  1  0  0  0  0
 19 26  1  1  0  0  0
 20 21  1  0  0  0  0
 20 23  1  6  0  0  0
 21 22  1  1  0  0  0
 21 24  1  0  0  0  0
 22 27  1  0  0  0  0
 28 12  1  6  0  0  0
 28 29  1  0  0  0  0
 28 33  1  0  0  0  0
 29 30  1  0  0  0  0
 29 36  1  1  0  0  0
 30 31  1  0  0  0  0
 30 37  1  6  0  0  0
 31 32  1  0  0  0  0
 31 34  1  1  0  0  0
 32 33  1  0  0  0  0
 33 35  1  1  0  0  0
M  END
>  <CHROM.1>
-67.78051679,-79.42819425,-177.04937752,-170.30743903,166.77178344,146.16756242
17.13402572,-4.29718237,42.91428161,-0.53614242,-0.60529894,-0.65635024

>  <Name>
2oe5_lig

>  <RI>
0

>  <Rbt.Current_Directory>
/home/itssahil/PROJECTS/Mol_Feturizer/New_Systems/rnas/2oe5

>  <Rbt.Executable>
rbdock ($Id: //depot/dev/client3/rdock/2013.1/src/exe/rbdock.cxx#4 $)

>  <Rbt.Library>
libRbt.so (2013.1, Build901 2013/11/27)

>  <Rbt.Parameter_File>
/export/apps/rDock/src/rDock_2013.1_src/data/scripts/dock_solv.prm

>  <Rbt.Receptor>
prm/blind_docking_60.prm

>  <SCORE>
-20.9647

>  <SCORE.INTER>
-18.56

>  <SCORE.INTER.CONST>
1

>  <SCORE.INTER.POLAR>
-2.48419

>  <SCORE.INTER.ROT>
6

>  <SCORE.INTER.SOLV>
16.6954

>  <SCORE.INTER.VDW>
-17.2578

>  <SCORE.INTER.norm>
-0.50162

>  <SCORE.INTRA>
-2.40476

>  <SCORE.INTRA.DIHEDRAL>
-10.1088

>  <SCORE.INTRA.DIHEDRAL.0>
16.2083

>  <SCORE.INTRA.POLAR>
0

>  <SCORE.INTRA.POLAR.0>
0

>  <SCORE.INTRA.REPUL>
0

>  <SCORE.INTRA.REPUL.0>
0

>  <SCORE.INTRA.SOLV>
1.52503

>  <SCORE.INTRA.SOLV.lig_0>
-89.8095

>  <SCORE.INTRA.VDW>
1.88714

>  <SCORE.INTRA.VDW.0>
-3.19502

>  <SCORE.INTRA.norm>
-0.0649935

>  <SCORE.RESTR>
0

>  <SCORE.RESTR.CAVITY>
0

>  <SCORE.RESTR.norm>
0

>  <SCORE.SYSTEM>
0

>  <SCORE.SYSTEM.CONST>
0

>  <SCORE.SYSTEM.DIHEDRAL>
0

>  <SCORE.SYSTEM.SOLV>
0

>  <SCORE.SYSTEM.norm>
0

>  <SCORE.heavy>
37

>  <SCORE.norm>
-0.566614

>  <RMSD>
11.287

$$$$
2oe5_lig
 OpenBabel11021811463D
libRbt.so/2013.1/901 2013/11/27
 37 40  0  0  0  0  0  0  0  0999 V2000
   16.7835   -3.2078   43.4536 C   0  0  1  0  0  0  0  0  0  0  0  0
   18.2065   -2.9787   42.8971 C   0  0  1  0  0  0  0  0  0  0  0  0
   19.2274   -3.8685   43.6993 C   0  0  0  0  0  0  0  0  0  0  0  0
   19.0944   -3.4161   45.1707 C   0  0  1  0  0  0  0  0  0  0  0  0
   17.6209   -3.6548   45.7259 C   0  0  1  0  0  0  0  0  0  0  0  0
   17.4676   -3.2131   47.2069 C   0  0  1  0  0  0  0  0  0  0  0  0
   18.4896   -4.0444   48.0335 C   0  0  1  0  0  0  0  0  0  0  0  0
   19.9246   -3.8147   47.4242 C   0  0  2  0  0  0  0  0  0  0  0  0
   18.8265   -4.6146   50.5681 C   0  0  0  0  0  0  0  0  0  0  0  0
   18.2541   -3.3452   41.4630 N   0  0  0  0  0  0  0  0  0  0  0  0
   18.4430   -3.6389   49.4888 N   0  0  0  0  0  0  0  0  0  0  0  0
   16.3489   -4.5660   43.2759 O   0  0  0  0  0  0  0  0  0  0  0  0
   16.6905   -2.8957   44.8878 O   0  0  0  0  0  0  0  0  0  0  0  0
   20.0082   -4.1849   45.9981 O   0  0  0  0  0  0  0  0  0  0  0  0
   17.7421   -1.8104   47.2793 O   0  0  0  0  0  0  0  0  0  0  0  0
   20.8739   -4.6055   48.1118 O   0  0  0  0  0  0  0  0  0  0  0  0
   22.1854   -4.1708   47.8054 C   0  0  2  0  0  0  0  0  0  0  0  0
   23.2505   -5.1571   48.2833 C   0  0  1  0  0  0  0  0  0  0  0  0
   23.2503   -5.2760   49.8322 C   0  0  2  0  0  0  0  0  0  0  0  0
   23.4778   -3.8486   50.4122 C   0  0  1  0  0  0  0  0  0  0  0  0
   22.3190   -2.9270   49.9079 C   0  0  1  0  0  0  0  0  0  0  0  0
   22.4665   -1.4946   50.3702 C   0  0  0  0  0  0  0  0  0  0  0  0
   23.4822   -3.9538   51.9198 N   0  0  0  0  0  0  0  0  0  0  0  0
   22.3951   -2.8719   48.4431 O   0  0  0  0  0  0  0  0  0  0  0  0
   22.9673   -6.4309   47.6711 O   0  0  0  0  0  0  0  0  0  0  0  0
   24.3429   -6.1313   50.2139 O   0  0  0  0  0  0  0  0  0  0  0  0
   21.2770   -0.7896   50.2655 O   0  0  0  0  0  0  0  0  0  0  0  0
   14.9551   -4.7693   43.5096 C   0  0  1  0  0  0  0  0  0  0  0  0
   14.1164   -4.0503   42.3932 C   0  0  1  0  0  0  0  0  0  0  0  0
   12.5890   -4.2992   42.6640 C   0  0  2  0  0  0  0  0  0  0  0  0
   12.3053   -5.8083   42.6238 C   0  0  1  0  0  0  0  0  0  0  0  0
   13.1373   -6.5271   43.7549 C   0  0  0  0  0  0  0  0  0  0  0  0
   14.6728   -6.2655   43.4937 C   0  0  2  0  0  0  0  0  0  0  0  0
   10.8867   -6.0238   42.8569 N   0  0  0  0  0  0  0  0  0  0  0  0
   15.4927   -6.9096   44.5533 N   0  0  0  0  0  0  0  0  0  0  0  0
   14.3828   -2.6187   42.4272 O   0  0  0  0  0  0  0  0  0  0  0  0
   11.8366   -3.6740   41.6584 O   0  0  0  0  0  0  0  0  0  0  0  0
  1  2  1  0  0  0  0
  1 12  1  1  0  0  0
  1 13  1  0  0  0  0
  2  3  1  0  0  0  0
  2 10  1  6  0  0  0
  4  3  1  6  0  0  0
  4  5  1  0  0  0  0
  4 14  1  0  0  0  0
  5  6  1  0  0  0  0
  5 13  1  6  0  0  0
  6  7  1  0  0  0  0
  6 15  1  6  0  0  0
  7  8  1  0  0  0  0
  7 11  1  1  0  0  0
  8 14  1  0  0  0  0
  8 16  1  1  0  0  0
  9 11  1  0  0  0  0
 17 16  1  1  0  0  0
 17 18  1  0  0  0  0
 17 24  1  0  0  0  0
 18 19  1  0  0  0  0
 18 25  1  6  0  0  0
 19 20  1  0  0  0  0
 19 26  1  6  0  0  0
 20 21  1  0  0  0  0
 20 23  1  1  0  0  0
 21 22  1  1  0  0  0
 21 24  1  0  0  0  0
 22 27  1  0  0  0  0
 28 12  1  6  0  0  0
 28 29  1  0  0  0  0
 28 33  1  0  0  0  0
 29 30  1  0  0  0  0
 29 36  1  1  0  0  0
 30 31  1  0  0  0  0
 30 37  1  6  0  0  0
 31 32  1  0  0  0  0
 31 34  1  1  0  0  0
 32 33  1  0  0  0  0
 33 35  1  1  0  0  0
M  END
>  <CHROM.1>
-167.48726502,152.86506626,-165.62489635,-168.18670426,-162.29320147,67.92962122
18.40236601,-4.08573124,46.23402141,-2.51920929,-0.27253966,1.11051624

>  <Name>
2oe5_lig

>  <RI>
0

>  <Rbt.Current_Directory>
/home/itssahil/PROJECTS/Mol_Feturizer/New_Systems/rnas/2oe5

>  <Rbt.Executable>
rbdock ($Id: //depot/dev/client3/rdock/2013.1/src/exe/rbdock.cxx#4 $)

>  <Rbt.Library>
libRbt.so (2013.1, Build901 2013/11/27)

>  <Rbt.Parameter_File>
/export/apps/rDock/src/rDock_2013.1_src/data/scripts/dock_solv.prm

>  <Rbt.Receptor>
prm/blind_docking_60.prm

>  <SCORE>
-17.0735

>  <SCORE.INTER>
-10.6039

>  <SCORE.INTER.CONST>
1

>  <SCORE.INTER.POLAR>
-1.68818

>  <SCORE.INTER.ROT>
6

>  <SCORE.INTER.SOLV>
13.4401

>  <SCORE.INTER.VDW>
-13.522

>  <SCORE.INTER.norm>
-0.286593

>  <SCORE.INTRA>
-6.47723

>  <SCORE.INTRA.DIHEDRAL>
-11.8935

>  <SCORE.INTRA.DIHEDRAL.0>
16.2083

>  <SCORE.INTRA.POLAR>
0

>  <SCORE.INTRA.POLAR.0>
0

>  <SCORE.INTRA.REPUL>
0

>  <SCORE.INTRA.REPUL.0>
0

>  <SCORE.INTRA.SOLV>
-2.48267

>  <SCORE.INTRA.SOLV.lig_0>
-89.8095

>  <SCORE.INTRA.VDW>
0.710856

>  <SCORE.INTRA.VDW.0>
-3.19502

>  <SCORE.INTRA.norm>
-0.17506

>  <SCORE.RESTR>
0.00767721

>  <SCORE.RESTR.CAVITY>
0.00767721

>  <SCORE.RESTR.norm>
0.000207492

>  <SCORE.SYSTEM>
0

>  <SCORE.SYSTEM.CONST>
0

>  <SCORE.SYSTEM.DIHEDRAL>
0

>  <SCORE.SYSTEM.SOLV>
0

>  <SCORE.SYSTEM.norm>
0

>  <SCORE.heavy>
37

>  <SCORE.norm>
-0.461446

>  <RMSD>
11.289

$$$$
2oe5_lig
 OpenBabel11021811463D
libRbt.so/2013.1/901 2013/11/27
 37 40  0  0  0  0  0  0  0  0999 V2000
   16.0872   -5.7668   45.3809 C   0  0  1  0  0  0  0  0  0  0  0  0
   15.4416   -5.9621   46.7710 C   0  0  1  0  0  0  0  0  0  0  0  0
   15.6553   -4.6609   47.6304 C   0  0  0  0  0  0  0  0  0  0  0  0
   17.1870   -4.4763   47.7171 C   0  0  1  0  0  0  0  0  0  0  0  0
   17.8358   -4.2815   46.2757 C   0  0  1  0  0  0  0  0  0  0  0  0
   19.3753   -4.0868   46.3410 C   0  0  1  0  0  0  0  0  0  0  0  0
   19.6338   -2.8275   47.2164 C   0  0  1  0  0  0  0  0  0  0  0  0
   18.9386   -3.0433   48.6140 C   0  0  2  0  0  0  0  0  0  0  0  0
   22.0655   -2.8868   46.2437 C   0  0  0  0  0  0  0  0  0  0  0  0
   13.9912   -6.2224   46.6231 N   0  0  0  0  0  0  0  0  0  0  0  0
   21.1185   -2.5931   47.3754 N   0  0  0  0  0  0  0  0  0  0  0  0
   15.4662   -4.7003   44.6448 O   0  0  0  0  0  0  0  0  0  0  0  0
   17.5238   -5.4655   45.4726 O   0  0  0  0  0  0  0  0  0  0  0  0
   17.4882   -3.2909   48.5011 O   0  0  0  0  0  0  0  0  0  0  0  0
   19.9442   -5.2639   46.9231 O   0  0  0  0  0  0  0  0  0  0  0  0
   19.0988   -1.8903   49.4166 O   0  0  0  0  0  0  0  0  0  0  0  0
   18.8839   -2.2096   50.7786 C   0  0  2  0  0  0  0  0  0  0  0  0
   19.3963   -1.1188   51.7184 C   0  0  1  0  0  0  0  0  0  0  0  0
   20.9383   -0.9648   51.6112 C   0  0  2  0  0  0  0  0  0  0  0  0
   21.5715   -2.3516   51.9302 C   0  0  1  0  0  0  0  0  0  0  0  0
   21.0253   -3.3871   50.8930 C   0  0  1  0  0  0  0  0  0  0  0  0
   21.5364   -4.7889   51.1402 C   0  0  0  0  0  0  0  0  0  0  0  0
   23.0730   -2.2117   51.8314 N   0  0  0  0  0  0  0  0  0  0  0  0
   19.5699   -3.4687   51.0646 O   0  0  0  0  0  0  0  0  0  0  0  0
   18.7321    0.1092   51.3599 O   0  0  0  0  0  0  0  0  0  0  0  0
   21.3601   -0.0042   52.5963 O   0  0  0  0  0  0  0  0  0  0  0  0
   22.8922   -4.9025   50.8726 O   0  0  0  0  0  0  0  0  0  0  0  0
   16.0025   -4.5034   43.3362 C   0  0  1  0  0  0  0  0  0  0  0  0
   15.4926   -5.6358   42.3746 C   0  0  1  0  0  0  0  0  0  0  0  0
   16.0845   -5.3903   40.9401 C   0  0  2  0  0  0  0  0  0  0  0  0
   15.6074   -4.0257   40.4204 C   0  0  1  0  0  0  0  0  0  0  0  0
   16.1323   -2.8884   41.3792 C   0  0  0  0  0  0  0  0  0  0  0  0
   15.5512   -3.1416   42.8258 C   0  0  2  0  0  0  0  0  0  0  0  0
   16.1460   -3.8192   39.0861 N   0  0  0  0  0  0  0  0  0  0  0  0
   16.0415   -2.1009   43.7674 N   0  0  0  0  0  0  0  0  0  0  0  0
   15.9422   -6.9319   42.8640 O   0  0  0  0  0  0  0  0  0  0  0  0
   15.6166   -6.3893   40.0733 O   0  0  0  0  0  0  0  0  0  0  0  0
  1  2  1  0  0  0  0
  1 12  1  1  0  0  0
  1 13  1  0  0  0  0
  2  3  1  0  0  0  0
  2 10  1  6  0  0  0
  4  3  1  6  0  0  0
  4  5  1  0  0  0  0
  4 14  1  0  0  0  0
  5  6  1  0  0  0  0
  5 13  1  6  0  0  0
  6  7  1  0  0  0  0
  6 15  1  1  0  0  0
  7  8  1  0  0  0  0
  7 11  1  1  0  0  0
  8 14  1  0  0  0  0
  8 16  1  1  0  0  0
  9 11  1  0  0  0  0
 17 16  1  6  0  0  0
 17 18  1  0  0  0  0
 17 24  1  0  0  0  0
 18 19  1  0  0  0  0
 18 25  1  6  0  0  0
 19 20  1  0  0  0  0
 19 26  1  1  0  0  0
 20 21  1  0  0  0  0
 20 23  1  6  0  0  0
 21 22  1  1  0  0  0
 21 24  1  0  0  0  0
 22 27  1  0  0  0  0
 28 12  1  1  0  0  0
 28 29  1  0  0  0  0
 28 33  1  0  0  0  0
 29 30  1  0  0  0  0
 29 36  1  1  0  0  0
 30 31  1  0  0  0  0
 30 37  1  6  0  0  0
 31 32  1  0  0  0  0
 31 34  1  6  0  0  0
 32 33  1  0  0  0  0
 33 35  1  1  0  0  0
M  END
>  <CHROM.1>
-178.33014436,35.87937100,-160.88797683,164.83138120,-69.14454258,75.12563430
18.25672593,-3.72081893,46.89828699,2.11996880,-0.40548009,-1.62563048

>  <Name>
2oe5_lig

>  <RI>
0

>  <Rbt.Current_Directory>
/home/itssahil/PROJECTS/Mol_Feturizer/New_Systems/rnas/2oe5

>  <Rbt.Executable>
rbdock ($Id: //depot/dev/client3/rdock/2013.1/src/exe/rbdock.cxx#4 $)

>  <Rbt.Library>
libRbt.so (2013.1, Build901 2013/11/27)

>  <Rbt.Parameter_File>
/export/apps/rDock/src/rDock_2013.1_src/data/scripts/dock_solv.prm

>  <Rbt.Receptor>
prm/blind_docking_80.prm

>  <SCORE>
-20.5621

>  <SCORE.INTER>
-16.849

>  <SCORE.INTER.CONST>
1

>  <SCORE.INTER.POLAR>
-2.05985

>  <SCORE.INTER.ROT>
6

>  <SCORE.INTER.SOLV>
17.1644

>  <SCORE.INTER.VDW>
-17.688

>  <SCORE.INTER.norm>
-0.455378

>  <SCORE.INTRA>
-3.71305

>  <SCORE.INTRA.DIHEDRAL>
-11.5864

>  <SCORE.INTRA.DIHEDRAL.0>
16.2083

>  <SCORE.INTRA.POLAR>
0

>  <SCORE.INTRA.POLAR.0>
0

>  <SCORE.INTRA.REPUL>
0

>  <SCORE.INTRA.REPUL.0>
0

>  <SCORE.INTRA.SOLV>
-1.30883

>  <SCORE.INTRA.SOLV.lig_0>
-89.8095

>  <SCORE.INTRA.VDW>
2.73457

>  <SCORE.INTRA.VDW.0>
-3.19502

>  <SCORE.INTRA.norm>
-0.100353

>  <SCORE.RESTR>
0

>  <SCORE.RESTR.CAVITY>
0

>  <SCORE.RESTR.norm>
0

>  <SCORE.SYSTEM>
0

>  <SCORE.SYSTEM.CONST>
0

>  <SCORE.SYSTEM.DIHEDRAL>
0

>  <SCORE.SYSTEM.SOLV>
0

>  <SCORE.SYSTEM.norm>
0

>  <SCORE.heavy>
37

>  <SCORE.norm>
-0.555731

>  <RMSD>
11.292

$$$$
2oe5_lig
 OpenBabel11021811463D
libRbt.so/2013.1/901 2013/11/27
 37 40  0  0  0  0  0  0  0  0999 V2000
   16.4023   -5.6437   45.5634 C   0  0  1  0  0  0  0  0  0  0  0  0
   15.7289   -5.8510   46.9385 C   0  0  1  0  0  0  0  0  0  0  0  0
   15.9103   -4.5509   47.8068 C   0  0  0  0  0  0  0  0  0  0  0  0
   17.4376   -4.3506   47.9273 C   0  0  1  0  0  0  0  0  0  0  0  0
   18.1153   -4.1436   46.5011 C   0  0  1  0  0  0  0  0  0  0  0  0
   19.6509   -3.9330   46.6003 C   0  0  1  0  0  0  0  0  0  0  0  0
   19.8772   -2.6744   47.4855 C   0  0  1  0  0  0  0  0  0  0  0  0
   19.1543   -2.9027   48.8670 C   0  0  2  0  0  0  0  0  0  0  0  0
   22.3060   -2.5249   46.5154 C   0  0  0  0  0  0  0  0  0  0  0  0
   14.2848   -6.1259   46.7583 N   0  0  0  0  0  0  0  0  0  0  0  0
   21.3555   -2.4251   47.6775 N   0  0  0  0  0  0  0  0  0  0  0  0
   15.7862   -4.5811   44.8177 O   0  0  0  0  0  0  0  0  0  0  0  0
   17.8333   -5.3278   45.6872 O   0  0  0  0  0  0  0  0  0  0  0  0
   17.7093   -3.1650   48.7218 O   0  0  0  0  0  0  0  0  0  0  0  0
   20.2195   -5.1063   47.1905 O   0  0  0  0  0  0  0  0  0  0  0  0
   19.2849   -1.7511   49.6769 O   0  0  0  0  0  0  0  0  0  0  0  0
   20.3512   -1.9164   50.5927 C   0  0  2  0  0  0  0  0  0  0  0  0
   19.8710   -1.9493   52.0432 C   0  0  1  0  0  0  0  0  0  0  0  0
   19.2343   -0.5934   52.4543 C   0  0  2  0  0  0  0  0  0  0  0  0
   20.3020    0.5161   52.2206 C   0  0  1  0  0  0  0  0  0  0  0  0
   20.6953    0.5031   50.7068 C   0  0  1  0  0  0  0  0  0  0  0  0
   21.7712    1.5122   50.3725 C   0  0  0  0  0  0  0  0  0  0  0  0
   19.6929    1.8401   52.6207 N   0  0  0  0  0  0  0  0  0  0  0  0
   21.2857   -0.8071   50.4081 O   0  0  0  0  0  0  0  0  0  0  0  0
   18.9142   -3.0212   52.1586 O   0  0  0  0  0  0  0  0  0  0  0  0
   18.9073   -0.6605   53.8542 O   0  0  0  0  0  0  0  0  0  0  0  0
   22.9704    1.2221   51.0052 O   0  0  0  0  0  0  0  0  0  0  0  0
   16.2429   -4.4717   43.4693 C   0  0  1  0  0  0  0  0  0  0  0  0
   15.6470   -5.6419   42.6076 C   0  0  1  0  0  0  0  0  0  0  0  0
   16.1523   -5.4925   41.1274 C   0  0  2  0  0  0  0  0  0  0  0  0
   15.6750   -4.1468   40.5611 C   0  0  1  0  0  0  0  0  0  0  0  0
   16.2858   -2.9723   41.4188 C   0  0  0  0  0  0  0  0  0  0  0  0
   15.7918   -3.1289   42.9108 C   0  0  2  0  0  0  0  0  0  0  0  0
   16.1326   -4.0293   39.1863 N   0  0  0  0  0  0  0  0  0  0  0  0
   16.3647   -2.0508   43.7590 N   0  0  0  0  0  0  0  0  0  0  0  0
   16.0966   -6.9203   43.1415 O   0  0  0  0  0  0  0  0  0  0  0  0
   15.6074   -6.5254   40.3499 O   0  0  0  0  0  0  0  0  0  0  0  0
  1  2  1  0  0  0  0
  1 12  1  1  0  0  0
  1 13  1  0  0  0  0
  2  3  1  0  0  0  0
  2 10  1  6  0  0  0
  4  3  1  6  0  0  0
  4  5  1  0  0  0  0
  4 14  1  0  0  0  0
  5  6  1  0  0  0  0
  5 13  1  6  0  0  0
  6  7  1  0  0  0  0
  6 15  1  1  0  0  0
  7  8  1  0  0  0  0
  7 11  1  1  0  0  0
  8 14  1  0  0  0  0
  8 16  1  1  0  0  0
  9 11  1  0  0  0  0
 17 16  1  6  0  0  0
 17 18  1  0  0  0  0
 17 24  1  0  0  0  0
 18 19  1  0  0  0  0
 18 25  1  6  0  0  0
 19 20  1  0  0  0  0
 19 26  1  1  0  0  0
 20 21  1  0  0  0  0
 20 23  1  6  0  0  0
 21 22  1  1  0  0  0
 21 24  1  0  0  0  0
 22 27  1  0  0  0  0
 28 12  1  1  0  0  0
 28 29  1  0  0  0  0
 28 33  1  0  0  0  0
 29 30  1  0  0  0  0
 29 36  1  1  0  0  0
 30 31  1  0  0  0  0
 30 37  1  6  0  0  0
 31 32  1  0  0  0  0
 31 34  1  6  0  0  0
 32 33  1  0  0  0  0
 33 35  1  1  0  0  0
M  END
>  <CHROM.1>
-171.58078103,44.20773961,-97.85568491,-114.93057107,64.53468955,73.57094741
18.27459669,-3.07826080,47.11004960,2.17219461,-0.77397417,-1.59759543

>  <Name>
2oe5_lig

>  <RI>
0

>  <Rbt.Current_Directory>
/home/itssahil/PROJECTS/Mol_Feturizer/New_Systems/rnas/2oe5

>  <Rbt.Executable>
rbdock ($Id: //depot/dev/client3/rdock/2013.1/src/exe/rbdock.cxx#4 $)

>  <Rbt.Library>
libRbt.so (2013.1, Build901 2013/11/27)

>  <Rbt.Parameter_File>
/export/apps/rDock/src/rDock_2013.1_src/data/scripts/dock_solv.prm

>  <Rbt.Receptor>
prm/blind_docking_80.prm

>  <SCORE>
-22.4124

>  <SCORE.INTER>
-22.1479

>  <SCORE.INTER.CONST>
1

>  <SCORE.INTER.POLAR>
-2.99259

>  <SCORE.INTER.ROT>
6

>  <SCORE.INTER.SOLV>
20.9058

>  <SCORE.INTER.VDW>
-19.3586

>  <SCORE.INTER.norm>
-0.598593

>  <SCORE.INTRA>
-0.866087

>  <SCORE.INTRA.DIHEDRAL>
-2.57223

>  <SCORE.INTRA.DIHEDRAL.0>
16.2083

>  <SCORE.INTRA.POLAR>
0

>  <SCORE.INTRA.POLAR.0>
0

>  <SCORE.INTRA.REPUL>
0

>  <SCORE.INTRA.REPUL.0>
0

>  <SCORE.INTRA.SOLV>
-1.32303

>  <SCORE.INTRA.SOLV.lig_0>
-89.8095

>  <SCORE.INTRA.VDW>
1.08154

>  <SCORE.INTRA.VDW.0>
-3.19502

>  <SCORE.INTRA.norm>
-0.0234077

>  <SCORE.RESTR>
0.601644

>  <SCORE.RESTR.CAVITY>
0.601644

>  <SCORE.RESTR.norm>
0.0162607

>  <SCORE.SYSTEM>
0

>  <SCORE.SYSTEM.CONST>
0

>  <SCORE.SYSTEM.DIHEDRAL>
0

>  <SCORE.SYSTEM.SOLV>
0

>  <SCORE.SYSTEM.norm>
0

>  <SCORE.heavy>
37

>  <SCORE.norm>
-0.60574

>  <RMSD>
11.313

$$$$
2oe5_lig
 OpenBabel11021811463D
libRbt.so/2013.1/901 2013/11/27
 37 40  0  0  0  0  0  0  0  0999 V2000
   15.2914   -5.9833   44.4014 C   0  0  1  0  0  0  0  0  0  0  0  0
   14.8450   -6.5673   45.7605 C   0  0  1  0  0  0  0  0  0  0  0  0
   15.4579   -5.7024   46.9239 C   0  0  0  0  0  0  0  0  0  0  0  0
   16.9885   -5.7806   46.7276 C   0  0  1  0  0  0  0  0  0  0  0  0
   17.4299   -5.1793   45.3205 C   0  0  1  0  0  0  0  0  0  0  0  0
   18.9668   -5.2416   45.1059 C   0  0  1  0  0  0  0  0  0  0  0  0
   19.6167   -4.4276   46.2608 C   0  0  1  0  0  0  0  0  0  0  0  0
   19.1194   -5.0260   47.6310 C   0  0  2  0  0  0  0  0  0  0  0  0
   21.8429   -3.7244   45.0723 C   0  0  0  0  0  0  0  0  0  0  0  0
   13.3673   -6.5488   45.8583 N   0  0  0  0  0  0  0  0  0  0  0  0
   21.1238   -4.4789   46.1574 N   0  0  0  0  0  0  0  0  0  0  0  0
   14.7996   -4.6478   44.2025 O   0  0  0  0  0  0  0  0  0  0  0  0
   16.7554   -5.9421   44.2681 O   0  0  0  0  0  0  0  0  0  0  0  0
   17.6499   -5.0081   47.7652 O   0  0  0  0  0  0  0  0  0  0  0  0
   19.3611   -6.6170   45.1387 O   0  0  0  0  0  0  0  0  0  0  0  0
   19.6407   -4.2701   48.7062 O   0  0  0  0  0  0  0  0  0  0  0  0
   19.7098   -5.0659   49.8746 C   0  0  2  0  0  0  0  0  0  0  0  0
   19.1711   -4.3379   51.1056 C   0  0  1  0  0  0  0  0  0  0  0  0
   20.0404   -3.0971   51.4487 C   0  0  2  0  0  0  0  0  0  0  0  0
   21.5020   -3.5922   51.6594 C   0  0  1  0  0  0  0  0  0  0  0  0
   21.9794   -4.2789   50.3378 C   0  0  1  0  0  0  0  0  0  0  0  0
   23.3767   -4.8476   50.4450 C   0  0  0  0  0  0  0  0  0  0  0  0
   22.3560   -2.3919   51.9969 N   0  0  0  0  0  0  0  0  0  0  0  0
   21.1079   -5.4342   50.0924 O   0  0  0  0  0  0  0  0  0  0  0  0
   17.8129   -3.9492   50.8193 O   0  0  0  0  0  0  0  0  0  0  0  0
   19.5426   -2.5287   52.6735 O   0  0  0  0  0  0  0  0  0  0  0  0
   24.3288   -3.8562   50.6273 O   0  0  0  0  0  0  0  0  0  0  0  0
   15.1904   -4.0596   42.9616 C   0  0  1  0  0  0  0  0  0  0  0  0
   16.6737   -3.5517   43.0555 C   0  0  1  0  0  0  0  0  0  0  0  0
   17.0845   -2.9217   41.6761 C   0  0  2  0  0  0  0  0  0  0  0  0
   16.9792   -3.9906   40.5780 C   0  0  1  0  0  0  0  0  0  0  0  0
   15.4862   -4.4893   40.4751 C   0  0  0  0  0  0  0  0  0  0  0  0
   15.0657   -5.1092   41.8655 C   0  0  2  0  0  0  0  0  0  0  0  0
   17.3796   -3.4006   39.3112 N   0  0  0  0  0  0  0  0  0  0  0  0
   13.6539   -5.5725   41.8172 N   0  0  0  0  0  0  0  0  0  0  0  0
   16.7785   -2.5382   44.0963 O   0  0  0  0  0  0  0  0  0  0  0  0
   18.4152   -2.4832   41.7498 O   0  0  0  0  0  0  0  0  0  0  0  0
  1  2  1  0  0  0  0
  1 12  1  1  0  0  0
  1 13  1  0  0  0  0
  2  3  1  0  0  0  0
  2 10  1  6  0  0  0
  4  3  1  1  0  0  0
  4  5  1  0  0  0  0
  4 14  1  0  0  0  0
  5  6  1  0  0  0  0
  5 13  1  6  0  0  0
  6  7  1  0  0  0  0
  6 15  1  1  0  0  0
  7  8  1  0  0  0  0
  7 11  1  1  0  0  0
  8 14  1  0  0  0  0
  8 16  1  1  0  0  0
  9 11  1  0  0  0  0
 17 16  1  6  0  0  0
 17 18  1  0  0  0  0
 17 24  1  0  0  0  0
 18 19  1  0  0  0  0
 18 25  1  6  0  0  0
 19 20  1  0  0  0  0
 19 26  1  1  0  0  0
 20 21  1  0  0  0  0
 20 23  1  6  0  0  0
 21 22  1  1  0  0  0
 21 24  1  0  0  0  0
 22 27  1  0  0  0  0
 28 12  1  1  0  0  0
 28 29  1  0  0  0  0
 28 33  1  0  0  0  0
 29 30  1  0  0  0  0
 29 36  1  1  0  0  0
 30 31  1  0  0  0  0
 30 37  1  1  0  0  0
 31 32  1  0  0  0  0
 31 34  1  6  0  0  0
 32 33  1  0  0  0  0
 33 35  1  6  0  0  0
M  END
>  <CHROM.1>
179.71819435,71.92161606,-154.79225630,-134.27807477,-65.05119717,-78.56966142
18.30347674,-4.49064786,46.36440854,2.16592445,-0.29502189,-1.45013653

>  <Name>
2oe5_lig

>  <RI>
0

>  <Rbt.Current_Directory>
/home/itssahil/PROJECTS/Mol_Feturizer/New_Systems/rnas/2oe5

>  <Rbt.Executable>
rbdock ($Id: //depot/dev/client3/rdock/2013.1/src/exe/rbdock.cxx#4 $)

>  <Rbt.Library>
libRbt.so (2013.1, Build901 2013/11/27)

>  <Rbt.Parameter_File>
/export/apps/rDock/src/rDock_2013.1_src/data/scripts/dock_solv.prm

>  <Rbt.Receptor>
prm/blind_docking_100.prm

>  <SCORE>
-24.6019

>  <SCORE.INTER>
-24.6565

>  <SCORE.INTER.CONST>
1

>  <SCORE.INTER.POLAR>
-3.71596

>  <SCORE.INTER.ROT>
6

>  <SCORE.INTER.SOLV>
12.6155

>  <SCORE.INTER.VDW>
-15.8563

>  <SCORE.INTER.norm>
-0.666392

>  <SCORE.INTRA>
0.0546142

>  <SCORE.INTRA.DIHEDRAL>
-5.41395

>  <SCORE.INTRA.DIHEDRAL.0>
16.2083

>  <SCORE.INTRA.POLAR>
0

>  <SCORE.INTRA.POLAR.0>
0

>  <SCORE.INTRA.REPUL>
0

>  <SCORE.INTRA.REPUL.0>
0

>  <SCORE.INTRA.SOLV>
-0.394795

>  <SCORE.INTRA.SOLV.lig_0>
-89.8095

>  <SCORE.INTRA.VDW>
2.95899

>  <SCORE.INTRA.VDW.0>
-3.19502

>  <SCORE.INTRA.norm>
0.00147606

>  <SCORE.RESTR>
0

>  <SCORE.RESTR.CAVITY>
0

>  <SCORE.RESTR.norm>
0

>  <SCORE.SYSTEM>
0

>  <SCORE.SYSTEM.CONST>
0

>  <SCORE.SYSTEM.DIHEDRAL>
0

>  <SCORE.SYSTEM.SOLV>
0

>  <SCORE.SYSTEM.norm>
0

>  <SCORE.heavy>
37

>  <SCORE.norm>
-0.664915

>  <RMSD>
11.317

$$$$
2oe5_lig
 OpenBabel11021811463D
libRbt.so/2013.1/901 2013/11/27
 37 40  0  0  0  0  0  0  0  0999 V2000
   14.7858   -5.2176   44.9453 C   0  0  1  0  0  0  0  0  0  0  0  0
   14.8735   -5.7588   46.3899 C   0  0  1  0  0  0  0  0  0  0  0  0
   15.6138   -4.7054   47.2951 C   0  0  0  0  0  0  0  0  0  0  0  0
   17.0073   -4.5233   46.6527 C   0  0  1  0  0  0  0  0  0  0  0  0
   16.8976   -3.9699   45.1634 C   0  0  1  0  0  0  0  0  0  0  0  0
   18.2886   -3.7725   44.5013 C   0  0  1  0  0  0  0  0  0  0  0  0
   19.0712   -2.7630   45.3886 C   0  0  1  0  0  0  0  0  0  0  0  0
   19.1172   -3.3267   46.8594 C   0  0  2  0  0  0  0  0  0  0  0  0
   21.4967   -3.6416   44.9327 C   0  0  0  0  0  0  0  0  0  0  0  0
   13.5130   -5.9981   46.9239 N   0  0  0  0  0  0  0  0  0  0  0  0
   20.4640   -2.5511   44.8413 N   0  0  0  0  0  0  0  0  0  0  0  0
   14.0060   -4.0131   44.8689 O   0  0  0  0  0  0  0  0  0  0  0  0
   16.1115   -4.9251   44.3799 O   0  0  0  0  0  0  0  0  0  0  0  0
   17.7749   -3.5621   47.4257 O   0  0  0  0  0  0  0  0  0  0  0  0
   18.9370   -5.0473   44.4494 O   0  0  0  0  0  0  0  0  0  0  0  0
   19.7676   -2.4038   47.7106 O   0  0  0  0  0  0  0  0  0  0  0  0
   19.9069   -2.9506   49.0085 C   0  0  2  0  0  0  0  0  0  0  0  0
   20.4704   -1.9401   50.0069 C   0  0  1  0  0  0  0  0  0  0  0  0
   21.9157   -1.5189   49.6236 C   0  0  2  0  0  0  0  0  0  0  0  0
   22.7792   -2.8134   49.5566 C   0  0  1  0  0  0  0  0  0  0  0  0
   22.1541   -3.7613   48.4810 C   0  0  1  0  0  0  0  0  0  0  0  0
   22.8856   -5.0801   48.3665 C   0  0  0  0  0  0  0  0  0  0  0  0
   24.1891   -2.4140   49.1870 N   0  0  0  0  0  0  0  0  0  0  0  0
   20.7974   -4.1070   48.9221 O   0  0  0  0  0  0  0  0  0  0  0  0
   19.5887   -0.7998   50.0137 O   0  0  0  0  0  0  0  0  0  0  0  0
   22.4188   -0.6569   50.6604 O   0  0  0  0  0  0  0  0  0  0  0  0
   22.3610   -5.8800   47.3627 O   0  0  0  0  0  0  0  0  0  0  0  0
   13.7982   -3.5344   43.5398 C   0  0  1  0  0  0  0  0  0  0  0  0
   15.1514   -3.0015   42.9469 C   0  0  1  0  0  0  0  0  0  0  0  0
   14.9003   -2.4934   41.4816 C   0  0  2  0  0  0  0  0  0  0  0  0
   14.3890   -3.6584   40.6206 C   0  0  1  0  0  0  0  0  0  0  0  0
   13.0228   -4.1831   41.2090 C   0  0  0  0  0  0  0  0  0  0  0  0
   13.2693   -4.6802   42.6877 C   0  0  2  0  0  0  0  0  0  0  0  0
   14.1787   -3.1801   39.2641 N   0  0  0  0  0  0  0  0  0  0  0  0
   11.9978   -5.1636   43.2874 N   0  0  0  0  0  0  0  0  0  0  0  0
   15.6404   -1.8969   43.7607 O   0  0  0  0  0  0  0  0  0  0  0  0
   16.1106   -2.0334   40.9414 O   0  0  0  0  0  0  0  0  0  0  0  0
  1  2  1  0  0  0  0
  1 12  1  1  0  0  0
  1 13  1  0  0  0  0
  2  3  1  0  0  0  0
  2 10  1  1  0  0  0
  4  3  1  1  0  0  0
  4  5  1  0  0  0  0
  4 14  1  0  0  0  0
  5  6  1  0  0  0  0
  5 13  1  6  0  0  0
  6  7  1  0  0  0  0
  6 15  1  1  0  0  0
  7  8  1  0  0  0  0
  7 11  1  6  0  0  0
  8 14  1  0  0  0  0
  8 16  1  1  0  0  0
  9 11  1  0  0  0  0
 17 16  1  6  0  0  0
 17 18  1  0  0  0  0
 17 24  1  0  0  0  0
 18 19  1  0  0  0  0
 18 25  1  6  0  0  0
 19 20  1  0  0  0  0
 19 26  1  1  0  0  0
 20 21  1  0  0  0  0
 20 23  1  6  0  0  0
 21 22  1  1  0  0  0
 21 24  1  0  0  0  0
 22 27  1  0  0  0  0
 28 12  1  1  0  0  0
 28 29  1  0  0  0  0
 28 33  1  0  0  0  0
 29 30  1  0  0  0  0
 29 36  1  1  0  0  0
 30 31  1  0  0  0  0
 30 37  1  6  0  0  0
 31 32  1  0  0  0  0
 31 34  1  6  0  0  0
 32 33  1  0  0  0  0
 33 35  1  1  0  0  0
M  END
>  <CHROM.1>
-174.91976268,-70.63648129,-175.32791898,-173.95739561,-176.93672712,-69.37797498
17.87176069,-3.55280783,45.79992288,2.49578874,-0.29761118,-1.37519875

>  <Name>
2oe5_lig

>  <RI>
0

>  <Rbt.Current_Directory>
/home/itssahil/PROJECTS/Mol_Feturizer/New_Systems/rnas/2oe5

>  <Rbt.Executable>
rbdock ($Id: //depot/dev/client3/rdock/2013.1/src/exe/rbdock.cxx#4 $)

>  <Rbt.Library>
libRbt.so (2013.1, Build901 2013/11/27)

>  <Rbt.Parameter_File>
/export/apps/rDock/src/rDock_2013.1_src/data/scripts/dock_solv.prm

>  <Rbt.Receptor>
prm/blind_docking_100.prm

>  <SCORE>
-26.9507

>  <SCORE.INTER>
-22.825

>  <SCORE.INTER.CONST>
1

>  <SCORE.INTER.POLAR>
-2.85866

>  <SCORE.INTER.ROT>
6

>  <SCORE.INTER.SOLV>
19.1367

>  <SCORE.INTER.VDW>
-19.6667

>  <SCORE.INTER.norm>
-0.616891

>  <SCORE.INTRA>
-4.1274

>  <SCORE.INTRA.DIHEDRAL>
-15.155

>  <SCORE.INTRA.DIHEDRAL.0>
16.2083

>  <SCORE.INTRA.POLAR>
0

>  <SCORE.INTRA.POLAR.0>
0

>  <SCORE.INTRA.REPUL>
0

>  <SCORE.INTRA.REPUL.0>
0

>  <SCORE.INTRA.SOLV>
-1.12554

>  <SCORE.INTRA.SOLV.lig_0>
-89.8095

>  <SCORE.INTRA.VDW>
4.01287

>  <SCORE.INTRA.VDW.0>
-3.19502

>  <SCORE.INTRA.norm>
-0.111551

>  <SCORE.RESTR>
0.00171375

>  <SCORE.RESTR.CAVITY>
0.00171375

>  <SCORE.RESTR.norm>
4.63177e-05

>  <SCORE.SYSTEM>
0

>  <SCORE.SYSTEM.CONST>
0

>  <SCORE.SYSTEM.DIHEDRAL>
0

>  <SCORE.SYSTEM.SOLV>
0

>  <SCORE.SYSTEM.norm>
0

>  <SCORE.heavy>
37

>  <SCORE.norm>
-0.728396

>  <RMSD>
11.321

$$$$
2oe5_lig
 OpenBabel11021811463D
libRbt.so/2013.1/901 2013/11/27
 37 40  0  0  0  0  0  0  0  0999 V2000
   15.5599   -5.9592   45.2527 C   0  0  1  0  0  0  0  0  0  0  0  0
   14.9826   -5.9726   46.6858 C   0  0  1  0  0  0  0  0  0  0  0  0
   15.8825   -5.0778   47.6167 C   0  0  0  0  0  0  0  0  0  0  0  0
   17.2924   -5.7063   47.5477 C   0  0  1  0  0  0  0  0  0  0  0  0
   17.8694   -5.6885   46.0635 C   0  0  1  0  0  0  0  0  0  0  0  0
   19.2900   -6.3098   45.9732 C   0  0  1  0  0  0  0  0  0  0  0  0
   20.2075   -5.4754   46.9116 C   0  0  1  0  0  0  0  0  0  0  0  0
   19.5777   -5.4821   48.3561 C   0  0  2  0  0  0  0  0  0  0  0  0
   21.9032   -7.3312   47.6488 C   0  0  0  0  0  0  0  0  0  0  0  0
   13.5998   -5.4421   46.6792 N   0  0  0  0  0  0  0  0  0  0  0  0
   21.6068   -6.0467   46.9235 N   0  0  0  0  0  0  0  0  0  0  0  0
   15.5384   -4.6429   44.6767 O   0  0  0  0  0  0  0  0  0  0  0  0
   16.9488   -6.4407   45.2085 O   0  0  0  0  0  0  0  0  0  0  0  0
   18.2034   -4.9451   48.3851 O   0  0  0  0  0  0  0  0  0  0  0  0
   19.2017   -7.6749   46.3936 O   0  0  0  0  0  0  0  0  0  0  0  0
   20.3523   -4.6795   49.2249 O   0  0  0  0  0  0  0  0  0  0  0  0
   20.2572   -5.1633   50.5516 C   0  0  2  0  0  0  0  0  0  0  0  0
   19.3596   -4.2882   51.4257 C   0  0  1  0  0  0  0  0  0  0  0  0
   19.9550   -2.8630   51.5912 C   0  0  2  0  0  0  0  0  0  0  0  0
   21.3820   -3.0182   52.1956 C   0  0  1  0  0  0  0  0  0  0  0  0
   22.2358   -3.8856   51.2133 C   0  0  1  0  0  0  0  0  0  0  0  0
   23.6343   -4.1466   51.7268 C   0  0  0  0  0  0  0  0  0  0  0  0
   21.9694   -1.6359   52.3635 N   0  0  0  0  0  0  0  0  0  0  0  0
   21.6045   -5.2073   51.1177 O   0  0  0  0  0  0  0  0  0  0  0  0
   18.0637   -4.2327   50.7970 O   0  0  0  0  0  0  0  0  0  0  0  0
   19.1194   -2.1344   52.5088 O   0  0  0  0  0  0  0  0  0  0  0  0
   24.3751   -2.9793   51.8333 O   0  0  0  0  0  0  0  0  0  0  0  0
   14.8082   -4.5520   43.4531 C   0  0  1  0  0  0  0  0  0  0  0  0
   14.4672   -3.0500   43.1455 C   0  0  1  0  0  0  0  0  0  0  0  0
   13.6767   -2.9746   41.7899 C   0  0  2  0  0  0  0  0  0  0  0  0
   14.5499   -3.5418   40.6604 C   0  0  1  0  0  0  0  0  0  0  0  0
   14.8795   -5.0543   40.9637 C   0  0  0  0  0  0  0  0  0  0  0  0
   15.6608   -5.1343   42.3339 C   0  0  2  0  0  0  0  0  0  0  0  0
   13.8149   -3.4491   39.4097 N   0  0  0  0  0  0  0  0  0  0  0  0
   15.9717   -6.5492   42.6678 N   0  0  0  0  0  0  0  0  0  0  0  0
   13.6397   -2.5077   44.2144 O   0  0  0  0  0  0  0  0  0  0  0  0
   13.3861   -1.6326   41.5019 O   0  0  0  0  0  0  0  0  0  0  0  0
  1  2  1  0  0  0  0
  1 12  1  1  0  0  0
  1 13  1  0  0  0  0
  2  3  1  0  0  0  0
  2 10  1  6  0  0  0
  4  3  1  6  0  0  0
  4  5  1  0  0  0  0
  4 14  1  0  0  0  0
  5  6  1  0  0  0  0
  5 13  1  6  0  0  0
  6  7  1  0  0  0  0
  6 15  1  1  0  0  0
  7  8  1  0  0  0  0
  7 11  1  1  0  0  0
  8 14  1  0  0  0  0
  8 16  1  1  0  0  0
  9 11  1  0  0  0  0
 17 16  1  6  0  0  0
 17 18  1  0  0  0  0
 17 24  1  0  0  0  0
 18 19  1  0  0  0  0
 18 25  1  6  0  0  0
 19 20  1  0  0  0  0
 19 26  1  1  0  0  0
 20 21  1  0  0  0  0
 20 23  1  6  0  0  0
 21 22  1  1  0  0  0
 21 24  1  0  0  0  0
 22 27  1  0  0  0  0
 28 12  1  1  0  0  0
 28 29  1  0  0  0  0
 28 33  1  0  0  0  0
 29 30  1  0  0  0  0
 29 36  1  1  0  0  0
 30 31  1  0  0  0  0
 30 37  1  6  0  0  0
 31 32  1  0  0  0  0
 31 34  1  6  0  0  0
 32 33  1  0  0  0  0
 33 35  1  1  0  0  0
M  END
>  <CHROM.1>
-122.22351397,-73.58758670,-150.75282241,-104.92429304,-64.45515930,162.56913414
17.99475726,-4.60838323,46.98909123,-2.44090533,-0.61029237,0.95495465

>  <Name>
2oe5_lig

>  <RI>
0

>  <Rbt.Current_Directory>
/home/itssahil/PROJECTS/Mol_Feturizer/New_Systems/rnas/2oe5

>  <Rbt.Executable>
rbdock ($Id: //depot/dev/client3/rdock/2013.1/src/exe/rbdock.cxx#4 $)

>  <Rbt.Library>
libRbt.so (2013.1, Build901 2013/11/27)

>  <Rbt.Parameter_File>
/export/apps/rDock/src/rDock_2013.1_src/data/scripts/dock_solv.prm

>  <Rbt.Receptor>
prm/blind_docking_100.prm

>  <SCORE>
-16.6496

>  <SCORE.INTER>
-20.089

>  <SCORE.INTER.CONST>
1

>  <SCORE.INTER.POLAR>
-2.60626

>  <SCORE.INTER.ROT>
6

>  <SCORE.INTER.SOLV>
12.779

>  <SCORE.INTER.VDW>
-16.5648

>  <SCORE.INTER.norm>
-0.542946

>  <SCORE.INTRA>
3.43938

>  <SCORE.INTRA.DIHEDRAL>
2.15023

>  <SCORE.INTRA.DIHEDRAL.0>
16.2083

>  <SCORE.INTRA.POLAR>
0

>  <SCORE.INTRA.POLAR.0>
0

>  <SCORE.INTRA.REPUL>
0

>  <SCORE.INTRA.REPUL.0>
0

>  <SCORE.INTRA.SOLV>
0.99248

>  <SCORE.INTRA.SOLV.lig_0>
-89.8095

>  <SCORE.INTRA.VDW>
1.86802

>  <SCORE.INTRA.VDW.0>
-3.19502

>  <SCORE.INTRA.norm>
0.0929562

>  <SCORE.RESTR>
0

>  <SCORE.RESTR.CAVITY>
0

>  <SCORE.RESTR.norm>
0

>  <SCORE.SYSTEM>
0

>  <SCORE.SYSTEM.CONST>
0

>  <SCORE.SYSTEM.DIHEDRAL>
0

>  <SCORE.SYSTEM.SOLV>
0

>  <SCORE.SYSTEM.norm>
0

>  <SCORE.heavy>
37

>  <SCORE.norm>
-0.44999

>  <RMSD>
11.344

$$$$
2oe5_lig
 OpenBabel11021811463D
libRbt.so/2013.1/901 2013/11/27
 37 40  0  0  0  0  0  0  0  0999 V2000
   15.7825   -5.9522   45.2177 C   0  0  1  0  0  0  0  0  0  0  0  0
   15.2420   -6.0762   46.6598 C   0  0  1  0  0  0  0  0  0  0  0  0
   15.7318   -4.8428   47.5060 C   0  0  0  0  0  0  0  0  0  0  0  0
   17.2750   -4.8984   47.4525 C   0  0  1  0  0  0  0  0  0  0  0  0
   17.8140   -4.7741   45.9591 C   0  0  1  0  0  0  0  0  0  0  0  0
   19.3646   -4.8204   45.8836 C   0  0  1  0  0  0  0  0  0  0  0  0
   19.8933   -3.6357   46.7412 C   0  0  1  0  0  0  0  0  0  0  0  0
   19.3016   -3.7725   48.1952 C   0  0  2  0  0  0  0  0  0  0  0  0
   22.1647   -2.4005   47.1628 C   0  0  0  0  0  0  0  0  0  0  0  0
   13.7613   -6.1067   46.6443 N   0  0  0  0  0  0  0  0  0  0  0  0
   21.4046   -3.6364   46.7644 N   0  0  0  0  0  0  0  0  0  0  0  0
   15.2712   -4.7868   44.5503 O   0  0  0  0  0  0  0  0  0  0  0  0
   17.2508   -5.8779   45.1789 O   0  0  0  0  0  0  0  0  0  0  0  0
   17.8260   -3.7910   48.2146 O   0  0  0  0  0  0  0  0  0  0  0  0
   19.7936   -6.0837   46.4015 O   0  0  0  0  0  0  0  0  0  0  0  0
   19.7105   -2.6759   48.9887 O   0  0  0  0  0  0  0  0  0  0  0  0
   19.1429   -2.7700   50.2817 C   0  0  2  0  0  0  0  0  0  0  0  0
   19.7283   -1.7418   51.2490 C   0  0  1  0  0  0  0  0  0  0  0  0
   21.2422   -1.9946   51.4879 C   0  0  2  0  0  0  0  0  0  0  0  0
   21.3961   -3.4492   52.0228 C   0  0  1  0  0  0  0  0  0  0  0  0
   20.8139   -4.4272   50.9500 C   0  0  1  0  0  0  0  0  0  0  0  0
   20.8637   -5.8740   51.3881 C   0  0  0  0  0  0  0  0  0  0  0  0
   22.8665   -3.7044   52.2615 N   0  0  0  0  0  0  0  0  0  0  0  0
   19.3879   -4.1192   50.7892 O   0  0  0  0  0  0  0  0  0  0  0  0
   19.5102   -0.4364   50.6779 O   0  0  0  0  0  0  0  0  0  0  0  0
   21.6978   -1.0632   52.4860 O   0  0  0  0  0  0  0  0  0  0  0  0
   20.4335   -6.7345   50.3895 O   0  0  0  0  0  0  0  0  0  0  0  0
   15.8261   -4.5649   43.2536 C   0  0  1  0  0  0  0  0  0  0  0  0
   15.2917   -5.6500   42.2517 C   0  0  1  0  0  0  0  0  0  0  0  0
   15.9049   -5.3773   40.8311 C   0  0  2  0  0  0  0  0  0  0  0  0
   15.4745   -3.9830   40.3512 C   0  0  1  0  0  0  0  0  0  0  0  0
   16.0240   -2.8933   41.3506 C   0  0  0  0  0  0  0  0  0  0  0  0
   15.4213   -3.1744   42.7831 C   0  0  2  0  0  0  0  0  0  0  0  0
   16.0322   -3.7508   39.0291 N   0  0  0  0  0  0  0  0  0  0  0  0
   15.9336   -2.1796   43.7619 N   0  0  0  0  0  0  0  0  0  0  0  0
   15.6970   -6.9742   42.7032 O   0  0  0  0  0  0  0  0  0  0  0  0
   15.4155   -6.3336   39.9286 O   0  0  0  0  0  0  0  0  0  0  0  0
  1  2  1  0  0  0  0
  1 12  1  1  0  0  0
  1 13  1  0  0  0  0
  2  3  1  0  0  0  0
  2 10  1  6  0  0  0
  4  3  1  6  0  0  0
  4  5  1  0  0  0  0
  4 14  1  0  0  0  0
  5  6  1  0  0  0  0
  5 13  1  6  0  0  0
  6  7  1  0  0  0  0
  6 15  1  1  0  0  0
  7  8  1  0  0  0  0
  7 11  1  1  0  0  0
  8 14  1  0  0  0  0
  8 16  1  1  0  0  0
  9 11  1  0  0  0  0
 17 16  1  6  0  0  0
 17 18  1  0  0  0  0
 17 24  1  0  0  0  0
 18 19  1  0  0  0  0
 18 25  1  6  0  0  0
 19 20  1  0  0  0  0
 19 26  1  1  0  0  0
 20 21  1  0  0  0  0
 20 23  1  6  0  0  0
 21 22  1  1  0  0  0
 21 24  1  0  0  0  0
 22 27  1  0  0  0  0
 28 12  1  1  0  0  0
 28 29  1  0  0  0  0
 28 33  1  0  0  0  0
 29 30  1  0  0  0  0
 29 36  1  1  0  0  0
 30 31  1  0  0  0  0
 30 37  1  6  0  0  0
 31 32  1  0  0  0  0
 31 34  1  6  0  0  0
 32 33  1  0  0  0  0
 33 35  1  1  0  0  0
M  END
>  <CHROM.1>
175.05441333,161.73461755,177.94460453,170.64172606,-175.68038551,70.80508041
18.17731756,-4.20536917,46.72636154,2.44590381,-0.86374165,-1.02927532

>  <Name>
2oe5_lig

>  <RI>
0

>  <Rbt.Current_Directory>
/home/itssahil/PROJECTS/Mol_Feturizer/New_Systems/rnas/2oe5

>  <Rbt.Executable>
rbdock ($Id: //depot/dev/client3/rdock/2013.1/src/exe/rbdock.cxx#4 $)

>  <Rbt.Library>
libRbt.so (2013.1, Build901 2013/11/27)

>  <Rbt.Parameter_File>
/export/apps/rDock/src/rDock_2013.1_src/data/scripts/dock_solv.prm

>  <Rbt.Receptor>
prm/blind_docking_100.prm

>  <SCORE>
-24.7908

>  <SCORE.INTER>
-18.2186

>  <SCORE.INTER.CONST>
1

>  <SCORE.INTER.POLAR>
-1.97466

>  <SCORE.INTER.ROT>
6

>  <SCORE.INTER.SOLV>
16.6422

>  <SCORE.INTER.VDW>
-18.7109

>  <SCORE.INTER.norm>
-0.492394

>  <SCORE.INTRA>
-6.57222

>  <SCORE.INTRA.DIHEDRAL>
-14.6716

>  <SCORE.INTRA.DIHEDRAL.0>
16.2083

>  <SCORE.INTRA.POLAR>
0

>  <SCORE.INTRA.POLAR.0>
0

>  <SCORE.INTRA.REPUL>
0.0116005

>  <SCORE.INTRA.REPUL.0>
0

>  <SCORE.INTRA.SOLV>
-2.80092

>  <SCORE.INTRA.SOLV.lig_0>
-89.8095

>  <SCORE.INTRA.VDW>
2.10601

>  <SCORE.INTRA.VDW.0>
-3.19502

>  <SCORE.INTRA.norm>
-0.177628

>  <SCORE.RESTR>
0

>  <SCORE.RESTR.CAVITY>
0

>  <SCORE.RESTR.norm>
0

>  <SCORE.SYSTEM>
0

>  <SCORE.SYSTEM.CONST>
0

>  <SCORE.SYSTEM.DIHEDRAL>
0

>  <SCORE.SYSTEM.SOLV>
0

>  <SCORE.SYSTEM.norm>
0

>  <SCORE.heavy>
37

>  <SCORE.norm>
-0.670022

>  <RMSD>
11.385

$$$$
2oe5_lig
 OpenBabel11021811463D
libRbt.so/2013.1/901 2013/11/27
 37 40  0  0  0  0  0  0  0  0999 V2000
   14.8121   -5.9448   44.9947 C   0  0  1  0  0  0  0  0  0  0  0  0
   14.5395   -6.7250   46.3002 C   0  0  1  0  0  0  0  0  0  0  0  0
   15.1696   -5.9444   47.5130 C   0  0  0  0  0  0  0  0  0  0  0  0
   16.6783   -5.8453   47.1947 C   0  0  1  0  0  0  0  0  0  0  0  0
   16.9403   -5.0428   45.8442 C   0  0  1  0  0  0  0  0  0  0  0  0
   18.4523   -4.9252   45.5093 C   0  0  1  0  0  0  0  0  0  0  0  0
   19.1230   -4.1901   46.7045 C   0  0  1  0  0  0  0  0  0  0  0  0
   18.8021   -4.9911   48.0231 C   0  0  2  0  0  0  0  0  0  0  0  0
   21.1564   -3.4253   45.2406 C   0  0  0  0  0  0  0  0  0  0  0  0
   13.0802   -6.8664   46.5098 N   0  0  0  0  0  0  0  0  0  0  0  0
   20.6140   -4.0776   46.4832 N   0  0  0  0  0  0  0  0  0  0  0  0
   14.1861   -4.6514   45.0007 O   0  0  0  0  0  0  0  0  0  0  0  0
   16.2494   -5.7416   44.7586 O   0  0  0  0  0  0  0  0  0  0  0  0
   17.3541   -5.1365   48.2679 O   0  0  0  0  0  0  0  0  0  0  0  0
   18.9709   -6.2485   45.3414 O   0  0  0  0  0  0  0  0  0  0  0  0
   19.3437   -4.3172   49.1419 O   0  0  0  0  0  0  0  0  0  0  0  0
   19.5390   -5.2239   50.2109 C   0  0  2  0  0  0  0  0  0  0  0  0
   19.8292   -4.5111   51.5312 C   0  0  1  0  0  0  0  0  0  0  0  0
   21.1667   -3.7241   51.4618 C   0  0  2  0  0  0  0  0  0  0  0  0
   22.2887   -4.7383   51.0899 C   0  0  1  0  0  0  0  0  0  0  0  0
   21.9285   -5.3793   49.7094 C   0  0  1  0  0  0  0  0  0  0  0  0
   22.9291   -6.4250   49.2704 C   0  0  0  0  0  0  0  0  0  0  0  0
   23.5958   -3.9825   51.0226 N   0  0  0  0  0  0  0  0  0  0  0  0
   20.6589   -6.0988   49.8667 O   0  0  0  0  0  0  0  0  0  0  0  0
   18.7249   -3.6233   51.7961 O   0  0  0  0  0  0  0  0  0  0  0  0
   21.4278   -3.1728   52.7652 O   0  0  0  0  0  0  0  0  0  0  0  0
   22.6350   -6.9302   48.0130 O   0  0  0  0  0  0  0  0  0  0  0  0
   14.1439   -4.0163   43.7226 C   0  0  1  0  0  0  0  0  0  0  0  0
   12.8297   -4.4262   42.9663 C   0  0  1  0  0  0  0  0  0  0  0  0
   12.7997   -3.7056   41.5705 C   0  0  2  0  0  0  0  0  0  0  0  0
   12.8130   -2.1844   41.7838 C   0  0  1  0  0  0  0  0  0  0  0  0
   14.1400   -1.7726   42.5307 C   0  0  0  0  0  0  0  0  0  0  0  0
   14.1801   -2.5079   43.9279 C   0  0  2  0  0  0  0  0  0  0  0  0
   12.7660   -1.5299   40.4867 N   0  0  0  0  0  0  0  0  0  0  0  0
   15.4294   -2.1628   44.6559 N   0  0  0  0  0  0  0  0  0  0  0  0
   12.8125   -5.8683   42.7624 O   0  0  0  0  0  0  0  0  0  0  0  0
   11.6183   -4.0544   40.8991 O   0  0  0  0  0  0  0  0  0  0  0  0
  1  2  1  0  0  0  0
  1 12  1  1  0  0  0
  1 13  1  0  0  0  0
  2  3  1  0  0  0  0
  2 10  1  1  0  0  0
  4  3  1  1  0  0  0
  4  5  1  0  0  0  0
  4 14  1  0  0  0  0
  5  6  1  0  0  0  0
  5 13  1  6  0  0  0
  6  7  1  0  0  0  0
  6 15  1  1  0  0  0
  7  8  1  0  0  0  0
  7 11  1  6  0  0  0
  8 14  1  0  0  0  0
  8 16  1  1  0  0  0
  9 11  1  0  0  0  0
 17 16  1  6  0  0  0
 17 18  1  0  0  0  0
 17 24  1  0  0  0  0
 18 19  1  0  0  0  0
 18 25  1  6  0  0  0
 19 20  1  0  0  0  0
 19 26  1  1  0  0  0
 20 21  1  0  0  0  0
 20 23  1  6  0  0  0
 21 22  1  1  0  0  0
 21 24  1  0  0  0  0
 22 27  1  0  0  0  0
 28 12  1  1  0  0  0
 28 29  1  0  0  0  0
 28 33  1  0  0  0  0
 29 30  1  0  0  0  0
 29 36  1  6  0  0  0
 30 31  1  0  0  0  0
 30 37  1  1  0  0  0
 31 32  1  0  0  0  0
 31 34  1  6  0  0  0
 32 33  1  0  0  0  0
 33 35  1  6  0  0  0
M  END
>  <CHROM.1>
-166.44607736,55.98398126,-156.94545396,-167.47854086,-176.71384158,89.23256854
17.42455172,-4.61547200,46.63743472,2.42548848,-0.25961834,-1.16022700

>  <Name>
2oe5_lig

>  <RI>
0

>  <Rbt.Current_Directory>
/home/itssahil/PROJECTS/Mol_Feturizer/New_Systems/rnas/2oe5

>  <Rbt.Executable>
rbdock ($Id: //depot/dev/client3/rdock/2013.1/src/exe/rbdock.cxx#4 $)

>  <Rbt.Library>
libRbt.so (2013.1, Build901 2013/11/27)

>  <Rbt.Parameter_File>
/export/apps/rDock/src/rDock_2013.1_src/data/scripts/dock_solv.prm

>  <Rbt.Receptor>
prm/blind_docking_60.prm

>  <SCORE>
-25.6114

>  <SCORE.INTER>
-20.773

>  <SCORE.INTER.CONST>
1

>  <SCORE.INTER.POLAR>
-2.57991

>  <SCORE.INTER.ROT>
6

>  <SCORE.INTER.SOLV>
19.0952

>  <SCORE.INTER.VDW>
-19.214

>  <SCORE.INTER.norm>
-0.561432

>  <SCORE.INTRA>
-4.83845

>  <SCORE.INTRA.DIHEDRAL>
-8.70275

>  <SCORE.INTRA.DIHEDRAL.0>
16.2083

>  <SCORE.INTRA.POLAR>
0

>  <SCORE.INTRA.POLAR.0>
0

>  <SCORE.INTRA.REPUL>
0

>  <SCORE.INTRA.REPUL.0>
0

>  <SCORE.INTRA.SOLV>
-1.08441

>  <SCORE.INTRA.SOLV.lig_0>
-89.8095

>  <SCORE.INTRA.VDW>
0.0551258

>  <SCORE.INTRA.VDW.0>
-3.19502

>  <SCORE.INTRA.norm>
-0.130769

>  <SCORE.RESTR>
0

>  <SCORE.RESTR.CAVITY>
0

>  <SCORE.RESTR.norm>
0

>  <SCORE.SYSTEM>
0

>  <SCORE.SYSTEM.CONST>
0

>  <SCORE.SYSTEM.DIHEDRAL>
0

>  <SCORE.SYSTEM.SOLV>
0

>  <SCORE.SYSTEM.norm>
0

>  <SCORE.heavy>
37

>  <SCORE.norm>
-0.692201

>  <RMSD>
11.391

$$$$
2oe5_lig
 OpenBabel11021811463D
libRbt.so/2013.1/901 2013/11/27
 37 40  0  0  0  0  0  0  0  0999 V2000
   15.1982   -6.1323   44.1702 C   0  0  1  0  0  0  0  0  0  0  0  0
   14.6768   -6.8185   45.4526 C   0  0  1  0  0  0  0  0  0  0  0  0
   15.1248   -5.9819   46.7082 C   0  0  0  0  0  0  0  0  0  0  0  0
   16.6684   -5.9500   46.6477 C   0  0  1  0  0  0  0  0  0  0  0  0
   17.1878   -5.2441   45.3179 C   0  0  1  0  0  0  0  0  0  0  0  0
   18.7382   -5.1950   45.2406 C   0  0  1  0  0  0  0  0  0  0  0  0
   19.2271   -4.4062   46.4885 C   0  0  1  0  0  0  0  0  0  0  0  0
   18.6552   -5.1108   47.7767 C   0  0  2  0  0  0  0  0  0  0  0  0
   21.4984   -3.5805   45.4774 C   0  0  0  0  0  0  0  0  0  0  0  0
   13.1985   -6.9010   45.4170 N   0  0  0  0  0  0  0  0  0  0  0  0
   20.7374   -4.3542   46.5196 N   0  0  0  0  0  0  0  0  0  0  0  0
   14.6343   -4.8223   43.9942 O   0  0  0  0  0  0  0  0  0  0  0  0
   16.6619   -5.9892   44.1722 O   0  0  0  0  0  0  0  0  0  0  0  0
   17.1818   -5.1954   47.7779 O   0  0  0  0  0  0  0  0  0  0  0  0
   19.2224   -6.5418   45.2406 O   0  0  0  0  0  0  0  0  0  0  0  0
   19.0273   -4.3838   48.9309 O   0  0  0  0  0  0  0  0  0  0  0  0
   19.0682   -5.2412   50.0562 C   0  0  2  0  0  0  0  0  0  0  0  0
   19.2676   -4.4747   51.3632 C   0  0  1  0  0  0  0  0  0  0  0  0
   20.6466   -3.7600   51.3897 C   0  0  2  0  0  0  0  0  0  0  0  0
   21.7422   -4.8469   51.1803 C   0  0  1  0  0  0  0  0  0  0  0  0
   21.4830   -5.5415   49.8031 C   0  0  1  0  0  0  0  0  0  0  0  0
   22.4626   -6.6576   49.5165 C   0  0  0  0  0  0  0  0  0  0  0  0
   23.0890   -4.1617   51.2074 N   0  0  0  0  0  0  0  0  0  0  0  0
   20.1666   -6.1877   49.8675 O   0  0  0  0  0  0  0  0  0  0  0  0
   18.1931   -3.5203   51.4740 O   0  0  0  0  0  0  0  0  0  0  0  0
   20.8099   -3.1540   52.6847 O   0  0  0  0  0  0  0  0  0  0  0  0
   23.7558   -6.1847   49.3528 O   0  0  0  0  0  0  0  0  0  0  0  0
   15.0506   -4.1624   42.7984 C   0  0  1  0  0  0  0  0  0  0  0  0
   16.4939   -3.5730   42.9891 C   0  0  1  0  0  0  0  0  0  0  0  0
   16.9345   -2.8645   41.6577 C   0  0  2  0  0  0  0  0  0  0  0  0
   16.9492   -3.8923   40.5162 C   0  0  1  0  0  0  0  0  0  0  0  0
   15.4961   -4.4728   40.3165 C   0  0  0  0  0  0  0  0  0  0  0  0
   15.0445   -5.1721   41.6587 C   0  0  2  0  0  0  0  0  0  0  0  0
   17.3762   -3.2290   39.2953 N   0  0  0  0  0  0  0  0  0  0  0  0
   13.6675   -5.7146   41.5189 N   0  0  0  0  0  0  0  0  0  0  0  0
   16.4849   -2.5982   44.0712 O   0  0  0  0  0  0  0  0  0  0  0  0
   18.2309   -2.3525   41.8175 O   0  0  0  0  0  0  0  0  0  0  0  0
  1  2  1  0  0  0  0
  1 12  1  1  0  0  0
  1 13  1  0  0  0  0
  2  3  1  0  0  0  0
  2 10  1  6  0  0  0
  4  3  1  6  0  0  0
  4  5  1  0  0  0  0
  4 14  1  0  0  0  0
  5  6  1  0  0  0  0
  5 13  1  6  0  0  0
  6  7  1  0  0  0  0
  6 15  1  1  0  0  0
  7  8  1  0  0  0  0
  7 11  1  1  0  0  0
  8 14  1  0  0  0  0
  8 16  1  1  0  0  0
  9 11  1  0  0  0  0
 17 16  1  6  0  0  0
 17 18  1  0  0  0  0
 17 24  1  0  0  0  0
 18 19  1  0  0  0  0
 18 25  1  6  0  0  0
 19 20  1  0  0  0  0
 19 26  1  1  0  0  0
 20 21  1  0  0  0  0
 20 23  1  6  0  0  0
 21 22  1  1  0  0  0
 21 24  1  0  0  0  0
 22 27  1  0  0  0  0
 28 12  1  1  0  0  0
 28 29  1  0  0  0  0
 28 33  1  0  0  0  0
 29 30  1  0  0  0  0
 29 36  1  1  0  0  0
 30 31  1  0  0  0  0
 30 37  1  1  0  0  0
 31 32  1  0  0  0  0
 31 34  1  6  0  0  0
 32 33  1  0  0  0  0
 33 35  1  6  0  0  0
M  END
>  <CHROM.1>
-178.02190128,67.17524708,-153.94902142,-171.76504553,-66.02852527,-78.39904259
18.14481630,-4.80965203,46.25515580,2.16538278,-0.27535844,-1.35997221

>  <Name>
2oe5_lig

>  <RI>
0

>  <Rbt.Current_Directory>
/home/itssahil/PROJECTS/Mol_Feturizer/New_Systems/rnas/2oe5

>  <Rbt.Executable>
rbdock ($Id: //depot/dev/client3/rdock/2013.1/src/exe/rbdock.cxx#4 $)

>  <Rbt.Library>
libRbt.so (2013.1, Build901 2013/11/27)

>  <Rbt.Parameter_File>
/export/apps/rDock/src/rDock_2013.1_src/data/scripts/dock_solv.prm

>  <Rbt.Receptor>
prm/blind_docking_60.prm

>  <SCORE>
-25.5296

>  <SCORE.INTER>
-22.7462

>  <SCORE.INTER.CONST>
1

>  <SCORE.INTER.POLAR>
-3.11435

>  <SCORE.INTER.ROT>
6

>  <SCORE.INTER.SOLV>
12.524

>  <SCORE.INTER.VDW>
-16.5576

>  <SCORE.INTER.norm>
-0.614761

>  <SCORE.INTRA>
-2.78346

>  <SCORE.INTRA.DIHEDRAL>
-11.2031

>  <SCORE.INTRA.DIHEDRAL.0>
16.2083

>  <SCORE.INTRA.POLAR>
0

>  <SCORE.INTRA.POLAR.0>
0

>  <SCORE.INTRA.REPUL>
0

>  <SCORE.INTRA.REPUL.0>
0

>  <SCORE.INTRA.SOLV>
-0.0067321

>  <SCORE.INTRA.SOLV.lig_0>
-89.8095

>  <SCORE.INTRA.VDW>
2.82143

>  <SCORE.INTRA.VDW.0>
-3.19502

>  <SCORE.INTRA.norm>
-0.0752288

>  <SCORE.RESTR>
0

>  <SCORE.RESTR.CAVITY>
0

>  <SCORE.RESTR.norm>
0

>  <SCORE.SYSTEM>
0

>  <SCORE.SYSTEM.CONST>
0

>  <SCORE.SYSTEM.DIHEDRAL>
0

>  <SCORE.SYSTEM.SOLV>
0

>  <SCORE.SYSTEM.norm>
0

>  <SCORE.heavy>
37

>  <SCORE.norm>
-0.68999

>  <RMSD>
11.394

$$$$
2oe5_lig
 OpenBabel11021811463D
libRbt.so/2013.1/901 2013/11/27
 37 40  0  0  0  0  0  0  0  0999 V2000
   15.8596   -5.9423   45.1899 C   0  0  1  0  0  0  0  0  0  0  0  0
   15.3287   -6.0835   46.6340 C   0  0  1  0  0  0  0  0  0  0  0  0
   15.8117   -4.8526   47.4877 C   0  0  0  0  0  0  0  0  0  0  0  0
   17.3551   -4.8931   47.4248 C   0  0  1  0  0  0  0  0  0  0  0  0
   17.8841   -4.7513   45.9294 C   0  0  1  0  0  0  0  0  0  0  0  0
   19.4346   -4.7823   45.8446 C   0  0  1  0  0  0  0  0  0  0  0  0
   19.9572   -3.5998   46.7091 C   0  0  1  0  0  0  0  0  0  0  0  0
   19.3753   -3.7543   48.1653 C   0  0  2  0  0  0  0  0  0  0  0  0
   22.2192   -2.3512   47.1415 C   0  0  0  0  0  0  0  0  0  0  0  0
   13.8483   -6.1278   46.6268 N   0  0  0  0  0  0  0  0  0  0  0  0
   21.4686   -3.5864   46.7236 N   0  0  0  0  0  0  0  0  0  0  0  0
   15.3334   -4.7763   44.5353 O   0  0  0  0  0  0  0  0  0  0  0  0
   17.3268   -5.8539   45.1433 O   0  0  0  0  0  0  0  0  0  0  0  0
   17.9001   -3.7869   48.1930 O   0  0  0  0  0  0  0  0  0  0  0  0
   19.8786   -6.0457   46.3495 O   0  0  0  0  0  0  0  0  0  0  0  0
   19.7785   -2.6605   48.9655 O   0  0  0  0  0  0  0  0  0  0  0  0
   19.2082   -2.7635   50.2567 C   0  0  2  0  0  0  0  0  0  0  0  0
   19.7891   -1.7397   51.2313 C   0  0  1  0  0  0  0  0  0  0  0  0
   21.3031   -1.9906   51.4722 C   0  0  2  0  0  0  0  0  0  0  0  0
   21.4589   -3.4481   51.9988 C   0  0  1  0  0  0  0  0  0  0  0  0
   20.8813   -4.4210   50.9189 C   0  0  1  0  0  0  0  0  0  0  0  0
   20.9332   -5.8702   51.3486 C   0  0  0  0  0  0  0  0  0  0  0  0
   22.9293   -3.7016   52.2393 N   0  0  0  0  0  0  0  0  0  0  0  0
   19.4549   -4.1151   50.7568 O   0  0  0  0  0  0  0  0  0  0  0  0
   19.5695   -0.4315   50.6675 O   0  0  0  0  0  0  0  0  0  0  0  0
   21.7544   -1.0643   52.4768 O   0  0  0  0  0  0  0  0  0  0  0  0
   20.4976   -6.7250   50.3475 O   0  0  0  0  0  0  0  0  0  0  0  0
   15.8495   -4.5605   43.2216 C   0  0  1  0  0  0  0  0  0  0  0  0
   15.3045   -5.6643   42.2461 C   0  0  1  0  0  0  0  0  0  0  0  0
   15.8746   -5.3980   40.8065 C   0  0  2  0  0  0  0  0  0  0  0  0
   15.4103   -4.0155   40.3239 C   0  0  1  0  0  0  0  0  0  0  0  0
   15.9704   -2.9070   41.2964 C   0  0  0  0  0  0  0  0  0  0  0  0
   15.4111   -3.1813   42.7478 C   0  0  2  0  0  0  0  0  0  0  0  0
   15.9284   -3.7895   38.9847 N   0  0  0  0  0  0  0  0  0  0  0  0
   15.9347   -2.1684   43.7016 N   0  0  0  0  0  0  0  0  0  0  0  0
   15.7419   -6.9772   42.7003 O   0  0  0  0  0  0  0  0  0  0  0  0
   15.3754   -6.3712   39.9279 O   0  0  0  0  0  0  0  0  0  0  0  0
  1  2  1  0  0  0  0
  1 12  1  1  0  0  0
  1 13  1  0  0  0  0
  2  3  1  0  0  0  0
  2 10  1  6  0  0  0
  4  3  1  6  0  0  0
  4  5  1  0  0  0  0
  4 14  1  0  0  0  0
  5  6  1  0  0  0  0
  5 13  1  6  0  0  0
  6  7  1  0  0  0  0
  6 15  1  1  0  0  0
  7  8  1  0  0  0  0
  7 11  1  1  0  0  0
  8 14  1  0  0  0  0
  8 16  1  1  0  0  0
  9 11  1  0  0  0  0
 17 16  1  6  0  0  0
 17 18  1  0  0  0  0
 17 24  1  0  0  0  0
 18 19  1  0  0  0  0
 18 25  1  6  0  0  0
 19 20  1  0  0  0  0
 19 26  1  1  0  0  0
 20 21  1  0  0  0  0
 20 23  1  6  0  0  0
 21 22  1  1  0  0  0
 21 24  1  0  0  0  0
 22 27  1  0  0  0  0
 28 12  1  1  0  0  0
 28 29  1  0  0  0  0
 28 33  1  0  0  0  0
 29 30  1  0  0  0  0
 29 36  1  1  0  0  0
 30 31  1  0  0  0  0
 30 37  1  6  0  0  0
 31 32  1  0  0  0  0
 31 34  1  6  0  0  0
 32 33  1  0  0  0  0
 33 35  1  1  0  0  0
M  END
>  <CHROM.1>
176.80372450,162.36330953,177.34249181,170.55720435,-176.13383754,69.57837827
18.22236051,-4.20046309,46.69915984,2.47806990,-0.87752548,-0.99238780

>  <Name>
2oe5_lig

>  <RI>
0

>  <Rbt.Current_Directory>
/home/itssahil/PROJECTS/Mol_Feturizer/New_Systems/rnas/2oe5

>  <Rbt.Executable>
rbdock ($Id: //depot/dev/client3/rdock/2013.1/src/exe/rbdock.cxx#4 $)

>  <Rbt.Library>
libRbt.so (2013.1, Build901 2013/11/27)

>  <Rbt.Parameter_File>
/export/apps/rDock/src/rDock_2013.1_src/data/scripts/dock_solv.prm

>  <Rbt.Receptor>
prm/blind_docking_100.prm

>  <SCORE>
-24.7669

>  <SCORE.INTER>
-18.1808

>  <SCORE.INTER.CONST>
1

>  <SCORE.INTER.POLAR>
-1.97969

>  <SCORE.INTER.ROT>
6

>  <SCORE.INTER.SOLV>
16.1578

>  <SCORE.INTER.VDW>
-18.5075

>  <SCORE.INTER.norm>
-0.491374

>  <SCORE.INTRA>
-6.58606

>  <SCORE.INTRA.DIHEDRAL>
-14.8654

>  <SCORE.INTRA.DIHEDRAL.0>
16.2083

>  <SCORE.INTRA.POLAR>
0

>  <SCORE.INTRA.POLAR.0>
0

>  <SCORE.INTRA.REPUL>
0.010047

>  <SCORE.INTRA.REPUL.0>
0

>  <SCORE.INTRA.SOLV>
-2.87729

>  <SCORE.INTRA.SOLV.lig_0>
-89.8095

>  <SCORE.INTRA.VDW>
2.23505

>  <SCORE.INTRA.VDW.0>
-3.19502

>  <SCORE.INTRA.norm>
-0.178002

>  <SCORE.RESTR>
0

>  <SCORE.RESTR.CAVITY>
0

>  <SCORE.RESTR.norm>
0

>  <SCORE.SYSTEM>
0

>  <SCORE.SYSTEM.CONST>
0

>  <SCORE.SYSTEM.DIHEDRAL>
0

>  <SCORE.SYSTEM.SOLV>
0

>  <SCORE.SYSTEM.norm>
0

>  <SCORE.heavy>
37

>  <SCORE.norm>
-0.669375

>  <RMSD>
11.395

$$$$
2oe5_lig
 OpenBabel11021811463D
libRbt.so/2013.1/901 2013/11/27
 37 40  0  0  0  0  0  0  0  0999 V2000
   15.9799   -5.9078   44.8757 C   0  0  1  0  0  0  0  0  0  0  0  0
   15.4160   -5.9036   46.3142 C   0  0  1  0  0  0  0  0  0  0  0  0
   15.9129   -4.6117   47.0632 C   0  0  0  0  0  0  0  0  0  0  0  0
   17.4557   -4.6944   47.0395 C   0  0  1  0  0  0  0  0  0  0  0  0
   18.0189   -4.7026   45.5499 C   0  0  1  0  0  0  0  0  0  0  0  0
   19.5695   -4.7781   45.5036 C   0  0  1  0  0  0  0  0  0  0  0  0
   20.1044   -3.5342   46.2687 C   0  0  1  0  0  0  0  0  0  0  0  0
   19.4889   -3.5411   47.7193 C   0  0  2  0  0  0  0  0  0  0  0  0
   22.4200   -3.6372   45.0480 C   0  0  0  0  0  0  0  0  0  0  0  0
   13.9354   -5.9132   46.2772 N   0  0  0  0  0  0  0  0  0  0  0  0
   21.6150   -3.5555   46.3165 N   0  0  0  0  0  0  0  0  0  0  0  0
   15.4976   -4.7943   44.1059 O   0  0  0  0  0  0  0  0  0  0  0  0
   17.4496   -5.8589   44.8547 O   0  0  0  0  0  0  0  0  0  0  0  0
   18.0131   -3.5360   47.7162 O   0  0  0  0  0  0  0  0  0  0  0  0
   19.9702   -6.0002   46.1313 O   0  0  0  0  0  0  0  0  0  0  0  0
   19.9036   -2.3886   48.4258 O   0  0  0  0  0  0  0  0  0  0  0  0
   19.8932   -2.6394   49.8186 C   0  0  2  0  0  0  0  0  0  0  0  0
   20.4239   -1.4552   50.6258 C   0  0  1  0  0  0  0  0  0  0  0  0
   21.9202   -1.1849   50.3076 C   0  0  2  0  0  0  0  0  0  0  0  0
   22.7079   -2.4941   50.6098 C   0  0  1  0  0  0  0  0  0  0  0  0
   22.1265   -3.6320   49.7080 C   0  0  1  0  0  0  0  0  0  0  0  0
   22.7858   -4.9704   49.9561 C   0  0  0  0  0  0  0  0  0  0  0  0
   24.1664   -2.2406   50.3060 N   0  0  0  0  0  0  0  0  0  0  0  0
   20.7177   -3.8194   50.0748 O   0  0  0  0  0  0  0  0  0  0  0  0
   19.6144   -0.3089   50.2967 O   0  0  0  0  0  0  0  0  0  0  0  0
   22.3786   -0.1346   51.1781 O   0  0  0  0  0  0  0  0  0  0  0  0
   22.2766   -5.9615   49.1308 O   0  0  0  0  0  0  0  0  0  0  0  0
   16.2640   -4.5184   42.9333 C   0  0  1  0  0  0  0  0  0  0  0  0
   15.8407   -5.4938   41.7773 C   0  0  1  0  0  0  0  0  0  0  0  0
   16.6871   -5.1623   40.4959 C   0  0  2  0  0  0  0  0  0  0  0  0
   16.4132   -3.7128   40.0671 C   0  0  1  0  0  0  0  0  0  0  0  0
   16.8520   -2.7337   41.2234 C   0  0  0  0  0  0  0  0  0  0  0  0
   16.0136   -3.0751   42.5175 C   0  0  2  0  0  0  0  0  0  0  0  0
   17.1871   -3.4249   38.8708 N   0  0  0  0  0  0  0  0  0  0  0  0
   16.4140   -2.1865   43.6400 N   0  0  0  0  0  0  0  0  0  0  0  0
   16.0982   -6.8697   42.1799 O   0  0  0  0  0  0  0  0  0  0  0  0
   16.2991   -6.0193   39.4551 O   0  0  0  0  0  0  0  0  0  0  0  0
  1  2  1  0  0  0  0
  1 12  1  6  0  0  0
  1 13  1  0  0  0  0
  2  3  1  0  0  0  0
  2 10  1  6  0  0  0
  4  3  1  6  0  0  0
  4  5  1  0  0  0  0
  4 14  1  0  0  0  0
  5  6  1  0  0  0  0
  5 13  1  6  0  0  0
  6  7  1  0  0  0  0
  6 15  1  1  0  0  0
  7  8  1  0  0  0  0
  7 11  1  1  0  0  0
  8 14  1  0  0  0  0
  8 16  1  1  0  0  0
  9 11  1  0  0  0  0
 17 16  1  6  0  0  0
 17 18  1  0  0  0  0
 17 24  1  0  0  0  0
 18 19  1  0  0  0  0
 18 25  1  6  0  0  0
 19 20  1  0  0  0  0
 19 26  1  1  0  0  0
 20 21  1  0  0  0  0
 20 23  1  6  0  0  0
 21 22  1  1  0  0  0
 21 24  1  0  0  0  0
 22 27  1  0  0  0  0
 28 12  1  1  0  0  0
 28 29  1  0  0  0  0
 28 33  1  0  0  0  0
 29 30  1  0  0  0  0
 29 36  1  1  0  0  0
 30 31  1  0  0  0  0
 30 37  1  6  0  0  0
 31 32  1  0  0  0  0
 31 34  1  6  0  0  0
 32 33  1  0  0  0  0
 33 35  1  1  0  0  0
M  END
>  <CHROM.1>
162.48028883,56.00385560,-153.83012076,176.13497839,-178.84416611,80.90499117
18.77515431,-3.93911033,46.09019679,2.20291306,-0.36798660,-1.59171999

>  <Name>
2oe5_lig

>  <RI>
0

>  <Rbt.Current_Directory>
/home/itssahil/PROJECTS/Mol_Feturizer/New_Systems/rnas/2oe5

>  <Rbt.Executable>
rbdock ($Id: //depot/dev/client3/rdock/2013.1/src/exe/rbdock.cxx#4 $)

>  <Rbt.Library>
libRbt.so (2013.1, Build901 2013/11/27)

>  <Rbt.Parameter_File>
/export/apps/rDock/src/rDock_2013.1_src/data/scripts/dock_solv.prm

>  <Rbt.Receptor>
prm/blind_docking_100.prm

>  <SCORE>
-24.9334

>  <SCORE.INTER>
-20.6137

>  <SCORE.INTER.CONST>
1

>  <SCORE.INTER.POLAR>
-2.67296

>  <SCORE.INTER.ROT>
6

>  <SCORE.INTER.SOLV>
16.4463

>  <SCORE.INTER.VDW>
-17.9147

>  <SCORE.INTER.norm>
-0.557126

>  <SCORE.INTRA>
-4.31975

>  <SCORE.INTRA.DIHEDRAL>
-9.81795

>  <SCORE.INTRA.DIHEDRAL.0>
16.2083

>  <SCORE.INTRA.POLAR>
0

>  <SCORE.INTRA.POLAR.0>
0

>  <SCORE.INTRA.REPUL>
0.00751588

>  <SCORE.INTRA.REPUL.0>
0

>  <SCORE.INTRA.SOLV>
-1.08574

>  <SCORE.INTRA.SOLV.lig_0>
-89.8095

>  <SCORE.INTRA.VDW>
1.09451

>  <SCORE.INTRA.VDW.0>
-3.19502

>  <SCORE.INTRA.norm>
-0.11675

>  <SCORE.RESTR>
0

>  <SCORE.RESTR.CAVITY>
0

>  <SCORE.RESTR.norm>
0

>  <SCORE.SYSTEM>
0

>  <SCORE.SYSTEM.CONST>
0

>  <SCORE.SYSTEM.DIHEDRAL>
0

>  <SCORE.SYSTEM.SOLV>
0

>  <SCORE.SYSTEM.norm>
0

>  <SCORE.heavy>
37

>  <SCORE.norm>
-0.673876

>  <RMSD>
11.406

$$$$
2oe5_lig
 OpenBabel11021811463D
libRbt.so/2013.1/901 2013/11/27
 37 40  0  0  0  0  0  0  0  0999 V2000
   15.4044   -6.1712   44.6640 C   0  0  1  0  0  0  0  0  0  0  0  0
   15.1813   -7.0837   45.8907 C   0  0  1  0  0  0  0  0  0  0  0  0
   15.5945   -6.3086   47.1967 C   0  0  0  0  0  0  0  0  0  0  0  0
   17.0833   -5.9445   47.0011 C   0  0  1  0  0  0  0  0  0  0  0  0
   17.2952   -5.0083   45.7303 C   0  0  1  0  0  0  0  0  0  0  0  0
   18.7852   -4.6242   45.5198 C   0  0  1  0  0  0  0  0  0  0  0  0
   19.2470   -3.8860   46.8083 C   0  0  1  0  0  0  0  0  0  0  0  0
   18.9790   -4.8277   48.0431 C   0  0  2  0  0  0  0  0  0  0  0  0
   21.3071   -2.4949   47.6353 C   0  0  0  0  0  0  0  0  0  0  0  0
   13.7550   -7.4730   45.9790 N   0  0  0  0  0  0  0  0  0  0  0  0
   20.7099   -3.5191   46.7089 N   0  0  0  0  0  0  0  0  0  0  0  0
   14.5741   -4.9992   44.7076 O   0  0  0  0  0  0  0  0  0  0  0  0
   16.8004   -5.7226   44.5516 O   0  0  0  0  0  0  0  0  0  0  0  0
   17.5623   -5.2218   48.1670 O   0  0  0  0  0  0  0  0  0  0  0  0
   19.5252   -5.8302   45.3049 O   0  0  0  0  0  0  0  0  0  0  0  0
   19.3287   -4.1644   49.2418 O   0  0  0  0  0  0  0  0  0  0  0  0
   19.4958   -5.1024   50.2883 C   0  0  2  0  0  0  0  0  0  0  0  0
   19.7795   -4.4299   51.6310 C   0  0  1  0  0  0  0  0  0  0  0  0
   21.1298   -3.6627   51.6000 C   0  0  2  0  0  0  0  0  0  0  0  0
   22.2408   -4.6842   51.2152 C   0  0  1  0  0  0  0  0  0  0  0  0
   21.8890   -5.2822   49.8135 C   0  0  1  0  0  0  0  0  0  0  0  0
   22.8789   -6.3315   49.3592 C   0  0  0  0  0  0  0  0  0  0  0  0
   23.5602   -3.9477   51.1851 N   0  0  0  0  0  0  0  0  0  0  0  0
   20.6063   -5.9854   49.9350 O   0  0  0  0  0  0  0  0  0  0  0  0
   18.6857   -3.5321   51.9056 O   0  0  0  0  0  0  0  0  0  0  0  0
   21.3822   -3.1506   52.9210 O   0  0  0  0  0  0  0  0  0  0  0  0
   22.5927   -6.7993   48.0857 O   0  0  0  0  0  0  0  0  0  0  0  0
   14.6316   -4.1976   43.5275 C   0  0  1  0  0  0  0  0  0  0  0  0
   13.6940   -4.8052   42.4235 C   0  0  1  0  0  0  0  0  0  0  0  0
   13.7639   -3.8998   41.1414 C   0  0  2  0  0  0  0  0  0  0  0  0
   13.2866   -2.4828   41.4935 C   0  0  1  0  0  0  0  0  0  0  0  0
   14.2377   -1.8686   42.5919 C   0  0  0  0  0  0  0  0  0  0  0  0
   14.1812   -2.7856   43.8766 C   0  0  2  0  0  0  0  0  0  0  0  0
   13.3383   -1.6609   40.2957 N   0  0  0  0  0  0  0  0  0  0  0  0
   15.0834   -2.2518   44.9306 N   0  0  0  0  0  0  0  0  0  0  0  0
   14.1425   -6.1495   42.0868 O   0  0  0  0  0  0  0  0  0  0  0  0
   12.9135   -4.4288   40.1589 O   0  0  0  0  0  0  0  0  0  0  0  0
  1  2  1  0  0  0  0
  1 12  1  1  0  0  0
  1 13  1  0  0  0  0
  2  3  1  0  0  0  0
  2 10  1  1  0  0  0
  4  3  1  1  0  0  0
  4  5  1  0  0  0  0
  4 14  1  0  0  0  0
  5  6  1  0  0  0  0
  5 13  1  6  0  0  0
  6  7  1  0  0  0  0
  6 15  1  1  0  0  0
  7  8  1  0  0  0  0
  7 11  1  6  0  0  0
  8 14  1  0  0  0  0
  8 16  1  1  0  0  0
  9 11  1  0  0  0  0
 17 16  1  6  0  0  0
 17 18  1  0  0  0  0
 17 24  1  0  0  0  0
 18 19  1  0  0  0  0
 18 25  1  6  0  0  0
 19 20  1  0  0  0  0
 19 26  1  1  0  0  0
 20 21  1  0  0  0  0
 20 23  1  6  0  0  0
 21 22  1  1  0  0  0
 21 24  1  0  0  0  0
 22 27  1  0  0  0  0
 28 12  1  1  0  0  0
 28 29  1  0  0  0  0
 28 33  1  0  0  0  0
 29 30  1  0  0  0  0
 29 36  1  6  0  0  0
 30 31  1  0  0  0  0
 30 37  1  6  0  0  0
 31 32  1  0  0  0  0
 31 34  1  6  0  0  0
 32 33  1  0  0  0  0
 33 35  1  1  0  0  0
M  END
>  <CHROM.1>
-173.38009830,163.55623033,-161.70070096,-176.01081220,-176.79014200,81.21642303
17.72235318,-4.62891472,46.60626705,2.76554487,-0.75953120,-0.46143899

>  <Name>
2oe5_lig

>  <RI>
0

>  <Rbt.Current_Directory>
/home/itssahil/PROJECTS/Mol_Feturizer/New_Systems/rnas/2oe5

>  <Rbt.Executable>
rbdock ($Id: //depot/dev/client3/rdock/2013.1/src/exe/rbdock.cxx#4 $)

>  <Rbt.Library>
libRbt.so (2013.1, Build901 2013/11/27)

>  <Rbt.Parameter_File>
/export/apps/rDock/src/rDock_2013.1_src/data/scripts/dock_solv.prm

>  <Rbt.Receptor>
prm/blind_docking_100.prm

>  <SCORE>
-24.6891

>  <SCORE.INTER>
-17.6967

>  <SCORE.INTER.CONST>
1

>  <SCORE.INTER.POLAR>
-2.70439

>  <SCORE.INTER.ROT>
6

>  <SCORE.INTER.SOLV>
17.0709

>  <SCORE.INTER.VDW>
-16.0735

>  <SCORE.INTER.norm>
-0.478289

>  <SCORE.INTRA>
-6.99245

>  <SCORE.INTRA.DIHEDRAL>
-12.0593

>  <SCORE.INTRA.DIHEDRAL.0>
16.2083

>  <SCORE.INTRA.POLAR>
0

>  <SCORE.INTRA.POLAR.0>
0

>  <SCORE.INTRA.REPUL>
0

>  <SCORE.INTRA.REPUL.0>
0

>  <SCORE.INTRA.SOLV>
-1.59155

>  <SCORE.INTRA.SOLV.lig_0>
-89.8095

>  <SCORE.INTRA.VDW>
-0.167046

>  <SCORE.INTRA.VDW.0>
-3.19502

>  <SCORE.INTRA.norm>
-0.188985

>  <SCORE.RESTR>
0

>  <SCORE.RESTR.CAVITY>
0

>  <SCORE.RESTR.norm>
0

>  <SCORE.SYSTEM>
0

>  <SCORE.SYSTEM.CONST>
0

>  <SCORE.SYSTEM.DIHEDRAL>
0

>  <SCORE.SYSTEM.SOLV>
0

>  <SCORE.SYSTEM.norm>
0

>  <SCORE.heavy>
37

>  <SCORE.norm>
-0.667274

>  <RMSD>
11.411

$$$$
2oe5_lig
 OpenBabel11021811463D
libRbt.so/2013.1/901 2013/11/27
 37 40  0  0  0  0  0  0  0  0999 V2000
   15.5610   -5.6725   45.2136 C   0  0  1  0  0  0  0  0  0  0  0  0
   15.3677   -5.8359   46.7378 C   0  0  1  0  0  0  0  0  0  0  0  0
   15.9855   -4.5909   47.4762 C   0  0  0  0  0  0  0  0  0  0  0  0
   17.4772   -4.5767   47.0736 C   0  0  1  0  0  0  0  0  0  0  0  0
   17.6574   -4.4125   45.4998 C   0  0  1  0  0  0  0  0  0  0  0  0
   19.1509   -4.3885   45.0743 C   0  0  1  0  0  0  0  0  0  0  0  0
   19.8113   -3.1904   45.8140 C   0  0  1  0  0  0  0  0  0  0  0  0
   19.5713   -3.3691   47.3612 C   0  0  2  0  0  0  0  0  0  0  0  0
   22.2018   -4.2610   45.8602 C   0  0  0  0  0  0  0  0  0  0  0  0
   13.9247   -5.9325   47.0573 N   0  0  0  0  0  0  0  0  0  0  0  0
   21.2871   -3.1237   45.4945 N   0  0  0  0  0  0  0  0  0  0  0  0
   14.8639   -4.5241   44.7033 O   0  0  0  0  0  0  0  0  0  0  0  0
   16.9777   -5.5321   44.8449 O   0  0  0  0  0  0  0  0  0  0  0  0
   18.1408   -3.4539   47.7137 O   0  0  0  0  0  0  0  0  0  0  0  0
   19.7380   -5.6367   45.4556 O   0  0  0  0  0  0  0  0  0  0  0  0
   20.1042   -2.2638   48.0638 O   0  0  0  0  0  0  0  0  0  0  0  0
   20.0849   -2.5149   49.4565 C   0  0  2  0  0  0  0  0  0  0  0  0
   20.6590   -1.3514   50.2642 C   0  0  1  0  0  0  0  0  0  0  0  0
   22.1640   -1.1360   49.9457 C   0  0  2  0  0  0  0  0  0  0  0  0
   22.9032   -2.4734   50.2470 C   0  0  1  0  0  0  0  0  0  0  0  0
   22.2803   -3.5887   49.3446 C   0  0  1  0  0  0  0  0  0  0  0  0
   22.8901   -4.9505   49.5917 C   0  0  0  0  0  0  0  0  0  0  0  0
   24.3701   -2.2734   49.9429 N   0  0  0  0  0  0  0  0  0  0  0  0
   20.8656   -3.7245   49.7116 O   0  0  0  0  0  0  0  0  0  0  0  0
   19.8920   -0.1760   49.9360 O   0  0  0  0  0  0  0  0  0  0  0  0
   22.6609   -0.1038   50.8168 O   0  0  0  0  0  0  0  0  0  0  0  0
   24.1666   -5.0526   49.0599 O   0  0  0  0  0  0  0  0  0  0  0  0
   15.1224   -4.2472   43.3267 C   0  0  1  0  0  0  0  0  0  0  0  0
   14.2977   -5.2300   42.4207 C   0  0  1  0  0  0  0  0  0  0  0  0
   14.5881   -4.8973   40.9129 C   0  0  2  0  0  0  0  0  0  0  0  0
   14.1597   -3.4515   40.6200 C   0  0  1  0  0  0  0  0  0  0  0  0
   14.9989   -2.4649   41.5203 C   0  0  0  0  0  0  0  0  0  0  0  0
   14.7207   -2.8073   43.0368 C   0  0  2  0  0  0  0  0  0  0  0  0
   14.4159   -3.1627   39.2186 N   0  0  0  0  0  0  0  0  0  0  0  0
   15.5123   -1.9117   43.9207 N   0  0  0  0  0  0  0  0  0  0  0  0
   14.7002   -6.6025   42.6955 O   0  0  0  0  0  0  0  0  0  0  0  0
   13.8389   -5.7610   40.0997 O   0  0  0  0  0  0  0  0  0  0  0  0
  1  2  1  0  0  0  0
  1 12  1  1  0  0  0
  1 13  1  0  0  0  0
  2  3  1  0  0  0  0
  2 10  1  6  0  0  0
  4  3  1  6  0  0  0
  4  5  1  0  0  0  0
  4 14  1  0  0  0  0
  5  6  1  0  0  0  0
  5 13  1  6  0  0  0
  6  7  1  0  0  0  0
  6 15  1  1  0  0  0
  7  8  1  0  0  0  0
  7 11  1  1  0  0  0
  8 14  1  0  0  0  0
  8 16  1  1  0  0  0
  9 11  1  0  0  0  0
 17 16  1  6  0  0  0
 17 18  1  0  0  0  0
 17 24  1  0  0  0  0
 18 19  1  0  0  0  0
 18 25  1  6  0  0  0
 19 20  1  0  0  0  0
 19 26  1  1  0  0  0
 20 21  1  0  0  0  0
 20 23  1  6  0  0  0
 21 22  1  1  0  0  0
 21 24  1  0  0  0  0
 22 27  1  0  0  0  0
 28 12  1  1  0  0  0
 28 29  1  0  0  0  0
 28 33  1  0  0  0  0
 29 30  1  0  0  0  0
 29 36  1  1  0  0  0
 30 31  1  0  0  0  0
 30 37  1  6  0  0  0
 31 32  1  0  0  0  0
 31 34  1  6  0  0  0
 32 33  1  0  0  0  0
 33 35  1  1  0  0  0
M  END
>  <CHROM.1>
173.79329402,-61.45218612,-170.67036898,179.67856768,-73.82882925,77.91872350
18.33600466,-3.75538890,46.12042039,2.35836585,-0.04952668,-1.78845008

>  <Name>
2oe5_lig

>  <RI>
0

>  <Rbt.Current_Directory>
/home/itssahil/PROJECTS/Mol_Feturizer/New_Systems/rnas/2oe5

>  <Rbt.Executable>
rbdock ($Id: //depot/dev/client3/rdock/2013.1/src/exe/rbdock.cxx#4 $)

>  <Rbt.Library>
libRbt.so (2013.1, Build901 2013/11/27)

>  <Rbt.Parameter_File>
/export/apps/rDock/src/rDock_2013.1_src/data/scripts/dock_solv.prm

>  <Rbt.Receptor>
prm/blind_docking_100.prm

>  <SCORE>
-21.9438

>  <SCORE.INTER>
-16.6721

>  <SCORE.INTER.CONST>
1

>  <SCORE.INTER.POLAR>
-2.05903

>  <SCORE.INTER.ROT>
6

>  <SCORE.INTER.SOLV>
18.8767

>  <SCORE.INTER.VDW>
-18.1435

>  <SCORE.INTER.norm>
-0.450598

>  <SCORE.INTRA>
-5.27167

>  <SCORE.INTRA.DIHEDRAL>
-13.3652

>  <SCORE.INTRA.DIHEDRAL.0>
16.2083

>  <SCORE.INTRA.POLAR>
0

>  <SCORE.INTRA.POLAR.0>
0

>  <SCORE.INTRA.REPUL>
0

>  <SCORE.INTRA.REPUL.0>
0

>  <SCORE.INTRA.SOLV>
-1.27484

>  <SCORE.INTRA.SOLV.lig_0>
-89.8095

>  <SCORE.INTRA.VDW>
2.04837

>  <SCORE.INTRA.VDW.0>
-3.19502

>  <SCORE.INTRA.norm>
-0.142478

>  <SCORE.RESTR>
0

>  <SCORE.RESTR.CAVITY>
0

>  <SCORE.RESTR.norm>
0

>  <SCORE.SYSTEM>
0

>  <SCORE.SYSTEM.CONST>
0

>  <SCORE.SYSTEM.DIHEDRAL>
0

>  <SCORE.SYSTEM.SOLV>
0

>  <SCORE.SYSTEM.norm>
0

>  <SCORE.heavy>
37

>  <SCORE.norm>
-0.593076

>  <RMSD>
11.411

$$$$
2oe5_lig
 OpenBabel11021811463D
libRbt.so/2013.1/901 2013/11/27
 37 40  0  0  0  0  0  0  0  0999 V2000
   15.7932   -5.7999   44.7920 C   0  0  1  0  0  0  0  0  0  0  0  0
   15.1215   -5.8458   46.1827 C   0  0  1  0  0  0  0  0  0  0  0  0
   15.5886   -4.6019   47.0264 C   0  0  0  0  0  0  0  0  0  0  0  0
   17.1264   -4.7232   47.1148 C   0  0  1  0  0  0  0  0  0  0  0  0
   17.8012   -4.6790   45.6729 C   0  0  1  0  0  0  0  0  0  0  0  0
   19.3487   -4.7922   45.7398 C   0  0  1  0  0  0  0  0  0  0  0  0
   19.8514   -3.5981   46.6002 C   0  0  1  0  0  0  0  0  0  0  0  0
   19.1271   -3.6542   47.9985 C   0  0  2  0  0  0  0  0  0  0  0  0
   22.1389   -2.4228   47.0991 C   0  0  0  0  0  0  0  0  0  0  0  0
   13.6483   -5.8156   46.0343 N   0  0  0  0  0  0  0  0  0  0  0  0
   21.3531   -3.6604   46.7602 N   0  0  0  0  0  0  0  0  0  0  0  0
   15.3958   -4.6410   44.0410 O   0  0  0  0  0  0  0  0  0  0  0  0
   17.2609   -5.7879   44.8838 O   0  0  0  0  0  0  0  0  0  0  0  0
   17.6564   -3.6110   47.8849 O   0  0  0  0  0  0  0  0  0  0  0  0
   19.6732   -6.0512   46.3380 O   0  0  0  0  0  0  0  0  0  0  0  0
   19.5123   -2.5457   48.7872 O   0  0  0  0  0  0  0  0  0  0  0  0
   19.3872   -2.8573   50.1620 C   0  0  2  0  0  0  0  0  0  0  0  0
   19.9519   -1.7575   51.0604 C   0  0  1  0  0  0  0  0  0  0  0  0
   21.4829   -1.5950   50.8535 C   0  0  2  0  0  0  0  0  0  0  0  0
   22.1439   -2.9760   51.1398 C   0  0  1  0  0  0  0  0  0  0  0  0
   21.5390   -4.0214   50.1461 C   0  0  1  0  0  0  0  0  0  0  0  0
   22.0737   -5.4185   50.3686 C   0  0  0  0  0  0  0  0  0  0  0  0
   23.6352   -2.8278   50.9440 N   0  0  0  0  0  0  0  0  0  0  0  0
   20.0981   -4.1105   50.4112 O   0  0  0  0  0  0  0  0  0  0  0  0
   19.2584   -0.5358   50.7378 O   0  0  0  0  0  0  0  0  0  0  0  0
   21.9609   -0.6256   51.8036 O   0  0  0  0  0  0  0  0  0  0  0  0
   21.7686   -6.2658   49.3142 O   0  0  0  0  0  0  0  0  0  0  0  0
   16.1834   -4.4020   42.8743 C   0  0  1  0  0  0  0  0  0  0  0  0
   15.8311   -5.4588   41.7671 C   0  0  1  0  0  0  0  0  0  0  0  0
   16.6994   -5.1674   40.4905 C   0  0  2  0  0  0  0  0  0  0  0  0
   16.3809   -3.7575   39.9705 C   0  0  1  0  0  0  0  0  0  0  0  0
   16.7486   -2.6963   41.0782 C   0  0  0  0  0  0  0  0  0  0  0  0
   15.8883   -2.9965   42.3682 C   0  0  2  0  0  0  0  0  0  0  0  0
   17.1761   -3.5077   38.7796 N   0  0  0  0  0  0  0  0  0  0  0  0
   16.2220   -2.0291   43.4466 N   0  0  0  0  0  0  0  0  0  0  0  0
   16.1310   -6.7977   42.2561 O   0  0  0  0  0  0  0  0  0  0  0  0
   16.3745   -6.0981   39.4921 O   0  0  0  0  0  0  0  0  0  0  0  0
  1  2  1  0  0  0  0
  1 12  1  1  0  0  0
  1 13  1  0  0  0  0
  2  3  1  0  0  0  0
  2 10  1  6  0  0  0
  4  3  1  6  0  0  0
  4  5  1  0  0  0  0
  4 14  1  0  0  0  0
  5  6  1  0  0  0  0
  5 13  1  6  0  0  0
  6  7  1  0  0  0  0
  6 15  1  1  0  0  0
  7  8  1  0  0  0  0
  7 11  1  1  0  0  0
  8 14  1  0  0  0  0
  8 16  1  1  0  0  0
  9 11  1  0  0  0  0
 17 16  1  6  0  0  0
 17 18  1  0  0  0  0
 17 24  1  0  0  0  0
 18 19  1  0  0  0  0
 18 25  1  6  0  0  0
 19 20  1  0  0  0  0
 19 26  1  1  0  0  0
 20 21  1  0  0  0  0
 20 23  1  6  0  0  0
 21 22  1  1  0  0  0
 21 24  1  0  0  0  0
 22 27  1  0  0  0  0
 28 12  1  1  0  0  0
 28 29  1  0  0  0  0
 28 33  1  0  0  0  0
 29 30  1  0  0  0  0
 29 36  1  1  0  0  0
 30 31  1  0  0  0  0
 30 37  1  6  0  0  0
 31 32  1  0  0  0  0
 31 34  1  6  0  0  0
 32 33  1  0  0  0  0
 33 35  1  1  0  0  0
M  END
>  <CHROM.1>
167.83354694,157.91218064,-153.96840101,172.96460635,-166.59938825,72.96626275
18.49106263,-4.01197448,46.31274055,2.16261503,-0.44289763,-1.51186782

>  <Name>
2oe5_lig

>  <RI>
0

>  <Rbt.Current_Directory>
/home/itssahil/PROJECTS/Mol_Feturizer/New_Systems/rnas/2oe5

>  <Rbt.Executable>
rbdock ($Id: //depot/dev/client3/rdock/2013.1/src/exe/rbdock.cxx#4 $)

>  <Rbt.Library>
libRbt.so (2013.1, Build901 2013/11/27)

>  <Rbt.Parameter_File>
/export/apps/rDock/src/rDock_2013.1_src/data/scripts/dock_solv.prm

>  <Rbt.Receptor>
prm/blind_docking_60.prm

>  <SCORE>
-22.3467

>  <SCORE.INTER>
-17.1818

>  <SCORE.INTER.CONST>
1

>  <SCORE.INTER.POLAR>
-2.42064

>  <SCORE.INTER.ROT>
6

>  <SCORE.INTER.SOLV>
15.77

>  <SCORE.INTER.VDW>
-16.2424

>  <SCORE.INTER.norm>
-0.464372

>  <SCORE.INTRA>
-5.16497

>  <SCORE.INTRA.DIHEDRAL>
-10.5729

>  <SCORE.INTRA.DIHEDRAL.0>
16.2083

>  <SCORE.INTRA.POLAR>
0

>  <SCORE.INTRA.POLAR.0>
0

>  <SCORE.INTRA.REPUL>
0.0234231

>  <SCORE.INTRA.REPUL.0>
0

>  <SCORE.INTRA.SOLV>
-1.05608

>  <SCORE.INTRA.SOLV.lig_0>
-89.8095

>  <SCORE.INTRA.VDW>
0.532408

>  <SCORE.INTRA.VDW.0>
-3.19502

>  <SCORE.INTRA.norm>
-0.139594

>  <SCORE.RESTR>
0

>  <SCORE.RESTR.CAVITY>
0

>  <SCORE.RESTR.norm>
0

>  <SCORE.SYSTEM>
0

>  <SCORE.SYSTEM.CONST>
0

>  <SCORE.SYSTEM.DIHEDRAL>
0

>  <SCORE.SYSTEM.SOLV>
0

>  <SCORE.SYSTEM.norm>
0

>  <SCORE.heavy>
37

>  <SCORE.norm>
-0.603966

>  <RMSD>
11.422

$$$$
2oe5_lig
 OpenBabel11021811463D
libRbt.so/2013.1/901 2013/11/27
 37 40  0  0  0  0  0  0  0  0999 V2000
   14.8845   -5.8237   44.4984 C   0  0  1  0  0  0  0  0  0  0  0  0
   14.5402   -6.6135   45.7809 C   0  0  1  0  0  0  0  0  0  0  0  0
   15.1190   -5.8521   47.0309 C   0  0  0  0  0  0  0  0  0  0  0  0
   16.6424   -5.7668   46.7872 C   0  0  1  0  0  0  0  0  0  0  0  0
   16.9784   -4.9541   45.4594 C   0  0  1  0  0  0  0  0  0  0  0  0
   18.5061   -4.8503   45.1995 C   0  0  1  0  0  0  0  0  0  0  0  0
   19.1258   -4.1346   46.4334 C   0  0  1  0  0  0  0  0  0  0  0  0
   18.7325   -4.9449   47.7265 C   0  0  2  0  0  0  0  0  0  0  0  0
   21.2360   -3.3712   45.0819 C   0  0  0  0  0  0  0  0  0  0  0  0
   13.0710   -6.7405   45.9179 N   0  0  0  0  0  0  0  0  0  0  0  0
   20.6269   -4.0367   46.2859 N   0  0  0  0  0  0  0  0  0  0  0  0
   14.2729   -4.5234   44.4874 O   0  0  0  0  0  0  0  0  0  0  0  0
   16.3336   -5.6344   44.3343 O   0  0  0  0  0  0  0  0  0  0  0  0
   17.2728   -5.0763   47.8992 O   0  0  0  0  0  0  0  0  0  0  0  0
   19.0179   -6.1776   45.0432 O   0  0  0  0  0  0  0  0  0  0  0  0
   19.2262   -4.2881   48.8772 O   0  0  0  0  0  0  0  0  0  0  0  0
   19.2156   -5.1691   49.9848 C   0  0  2  0  0  0  0  0  0  0  0  0
   19.3513   -4.4303   51.3157 C   0  0  1  0  0  0  0  0  0  0  0  0
   20.7260   -3.7148   51.4226 C   0  0  2  0  0  0  0  0  0  0  0  0
   21.8326   -4.7959   51.2424 C   0  0  1  0  0  0  0  0  0  0  0  0
   21.6403   -5.4615   49.8402 C   0  0  1  0  0  0  0  0  0  0  0  0
   22.6347   -6.5701   49.5767 C   0  0  0  0  0  0  0  0  0  0  0  0
   23.1751   -4.1100   51.3478 N   0  0  0  0  0  0  0  0  0  0  0  0
   20.3236   -6.1102   49.8284 O   0  0  0  0  0  0  0  0  0  0  0  0
   18.2708   -3.4796   51.3956 O   0  0  0  0  0  0  0  0  0  0  0  0
   20.8266   -3.1362   52.7364 O   0  0  0  0  0  0  0  0  0  0  0  0
   23.9388   -6.1004   49.5388 O   0  0  0  0  0  0  0  0  0  0  0  0
   14.3446   -3.8541   43.2281 C   0  0  1  0  0  0  0  0  0  0  0  0
   15.8228   -3.4040   42.9466 C   0  0  1  0  0  0  0  0  0  0  0  0
   15.8785   -2.6830   41.5517 C   0  0  2  0  0  0  0  0  0  0  0  0
   15.4247   -3.6599   40.4565 C   0  0  1  0  0  0  0  0  0  0  0  0
   13.9353   -4.0999   40.7328 C   0  0  0  0  0  0  0  0  0  0  0  0
   13.8736   -4.8112   42.1415 C   0  0  2  0  0  0  0  0  0  0  0  0
   15.4988   -2.9871   39.1700 N   0  0  0  0  0  0  0  0  0  0  0  0
   12.4789   -5.2227   42.4502 N   0  0  0  0  0  0  0  0  0  0  0  0
   16.2577   -2.4779   43.9832 O   0  0  0  0  0  0  0  0  0  0  0  0
   17.2009   -2.2955   41.2878 O   0  0  0  0  0  0  0  0  0  0  0  0
  1  2  1  0  0  0  0
  1 12  1  1  0  0  0
  1 13  1  0  0  0  0
  2  3  1  0  0  0  0
  2 10  1  1  0  0  0
  4  3  1  1  0  0  0
  4  5  1  0  0  0  0
  4 14  1  0  0  0  0
  5  6  1  0  0  0  0
  5 13  1  6  0  0  0
  6  7  1  0  0  0  0
  6 15  1  1  0  0  0
  7  8  1  0  0  0  0
  7 11  1  6  0  0  0
  8 14  1  0  0  0  0
  8 16  1  1  0  0  0
  9 11  1  0  0  0  0
 17 16  1  6  0  0  0
 17 18  1  0  0  0  0
 17 24  1  0  0  0  0
 18 19  1  0  0  0  0
 18 25  1  6  0  0  0
 19 20  1  0  0  0  0
 19 26  1  1  0  0  0
 20 21  1  0  0  0  0
 20 23  1  6  0  0  0
 21 22  1  1  0  0  0
 21 24  1  0  0  0  0
 22 27  1  0  0  0  0
 28 12  1  1  0  0  0
 28 29  1  0  0  0  0
 28 33  1  0  0  0  0
 29 30  1  0  0  0  0
 29 36  1  1  0  0  0
 30 31  1  0  0  0  0
 30 37  1  6  0  0  0
 31 32  1  0  0  0  0
 31 34  1  6  0  0  0
 32 33  1  0  0  0  0
 33 35  1  1  0  0  0
M  END
>  <CHROM.1>
-168.70342778,56.35162752,-163.60148534,-163.67200456,-63.57409145,-71.02854294
17.83369869,-4.62212974,46.33591302,2.25139126,-0.23179820,-1.31671909

>  <Name>
2oe5_lig

>  <RI>
0

>  <Rbt.Current_Directory>
/home/itssahil/PROJECTS/Mol_Feturizer/New_Systems/rnas/2oe5

>  <Rbt.Executable>
rbdock ($Id: //depot/dev/client3/rdock/2013.1/src/exe/rbdock.cxx#4 $)

>  <Rbt.Library>
libRbt.so (2013.1, Build901 2013/11/27)

>  <Rbt.Parameter_File>
/export/apps/rDock/src/rDock_2013.1_src/data/scripts/dock_solv.prm

>  <Rbt.Receptor>
prm/blind_docking_80.prm

>  <SCORE>
-22.0731

>  <SCORE.INTER>
-18.3257

>  <SCORE.INTER.CONST>
1

>  <SCORE.INTER.POLAR>
-2.35495

>  <SCORE.INTER.ROT>
6

>  <SCORE.INTER.SOLV>
11.6099

>  <SCORE.INTER.VDW>
-15.8373

>  <SCORE.INTER.norm>
-0.495289

>  <SCORE.INTRA>
-3.74741

>  <SCORE.INTRA.DIHEDRAL>
-12.3907

>  <SCORE.INTRA.DIHEDRAL.0>
16.2083

>  <SCORE.INTRA.POLAR>
0

>  <SCORE.INTRA.POLAR.0>
0

>  <SCORE.INTRA.REPUL>
0

>  <SCORE.INTRA.REPUL.0>
0

>  <SCORE.INTRA.SOLV>
-0.120186

>  <SCORE.INTRA.SOLV.lig_0>
-89.8095

>  <SCORE.INTRA.VDW>
2.50805

>  <SCORE.INTRA.VDW.0>
-3.19502

>  <SCORE.INTRA.norm>
-0.101281

>  <SCORE.RESTR>
0

>  <SCORE.RESTR.CAVITY>
0

>  <SCORE.RESTR.norm>
0

>  <SCORE.SYSTEM>
0

>  <SCORE.SYSTEM.CONST>
0

>  <SCORE.SYSTEM.DIHEDRAL>
0

>  <SCORE.SYSTEM.SOLV>
0

>  <SCORE.SYSTEM.norm>
0

>  <SCORE.heavy>
37

>  <SCORE.norm>
-0.596571

>  <RMSD>
11.438

$$$$
2oe5_lig
 OpenBabel11021811463D
libRbt.so/2013.1/901 2013/11/27
 37 40  0  0  0  0  0  0  0  0999 V2000
   15.3560   -5.8257   45.1848 C   0  0  1  0  0  0  0  0  0  0  0  0
   15.0173   -6.2465   46.6324 C   0  0  1  0  0  0  0  0  0  0  0  0
   15.8191   -5.3394   47.6380 C   0  0  0  0  0  0  0  0  0  0  0  0
   17.3083   -5.5678   47.2953 C   0  0  1  0  0  0  0  0  0  0  0  0
   17.6381   -5.1335   45.7989 C   0  0  1  0  0  0  0  0  0  0  0  0
   19.1328   -5.3484   45.4359 C   0  0  1  0  0  0  0  0  0  0  0  0
   19.9664   -4.4956   46.4343 C   0  0  1  0  0  0  0  0  0  0  0  0
   19.5774   -4.9255   47.8996 C   0  0  2  0  0  0  0  0  0  0  0  0
   22.1629   -3.8472   45.1624 C   0  0  0  0  0  0  0  0  0  0  0  0
   13.5651   -6.0906   46.8780 N   0  0  0  0  0  0  0  0  0  0  0  0
   21.4445   -4.6872   46.1833 N   0  0  0  0  0  0  0  0  0  0  0  0
   14.9503   -4.4751   44.9087 O   0  0  0  0  0  0  0  0  0  0  0  0
   16.7953   -5.9242   44.8996 O   0  0  0  0  0  0  0  0  0  0  0  0
   18.1372   -4.7677   48.1804 O   0  0  0  0  0  0  0  0  0  0  0  0
   19.4206   -6.7447   45.5614 O   0  0  0  0  0  0  0  0  0  0  0  0
   20.2703   -4.1262   48.8378 O   0  0  0  0  0  0  0  0  0  0  0  0
   20.3385   -4.7878   50.0871 C   0  0  2  0  0  0  0  0  0  0  0  0
   19.4846   -4.1034   51.1538 C   0  0  1  0  0  0  0  0  0  0  0  0
   20.0095   -2.6739   51.4606 C   0  0  2  0  0  0  0  0  0  0  0  0
   21.4970   -2.8055   51.9030 C   0  0  1  0  0  0  0  0  0  0  0  0
   22.2960   -3.4710   50.7348 C   0  0  1  0  0  0  0  0  0  0  0  0
   23.7522   -3.6971   51.0754 C   0  0  0  0  0  0  0  0  0  0  0  0
   22.0167   -1.4192   52.2069 N   0  0  0  0  0  0  0  0  0  0  0  0
   21.7365   -4.8100   50.5146 O   0  0  0  0  0  0  0  0  0  0  0  0
   18.1306   -4.0578   50.6615 O   0  0  0  0  0  0  0  0  0  0  0  0
   19.2301   -2.1356   52.5441 O   0  0  0  0  0  0  0  0  0  0  0  0
   23.9091   -4.2889   52.3195 O   0  0  0  0  0  0  0  0  0  0  0  0
   14.8583   -4.1648   43.5181 C   0  0  1  0  0  0  0  0  0  0  0  0
   13.6629   -4.9536   42.8733 C   0  0  1  0  0  0  0  0  0  0  0  0
   13.5739   -4.5861   41.3483 C   0  0  2  0  0  0  0  0  0  0  0  0
   13.3275   -3.0768   41.2031 C   0  0  1  0  0  0  0  0  0  0  0  0
   14.5357   -2.2862   41.8384 C   0  0  0  0  0  0  0  0  0  0  0  0
   14.6370   -2.6658   43.3681 C   0  0  2  0  0  0  0  0  0  0  0  0
   13.2285   -2.7531   39.7895 N   0  0  0  0  0  0  0  0  0  0  0  0
   15.7804   -1.9565   44.0002 N   0  0  0  0  0  0  0  0  0  0  0  0
   13.8920   -6.3856   43.0093 O   0  0  0  0  0  0  0  0  0  0  0  0
   12.4956   -5.2744   40.7724 O   0  0  0  0  0  0  0  0  0  0  0  0
  1  2  1  0  0  0  0
  1 12  1  1  0  0  0
  1 13  1  0  0  0  0
  2  3  1  0  0  0  0
  2 10  1  1  0  0  0
  4  3  1  1  0  0  0
  4  5  1  0  0  0  0
  4 14  1  0  0  0  0
  5  6  1  0  0  0  0
  5 13  1  6  0  0  0
  6  7  1  0  0  0  0
  6 15  1  1  0  0  0
  7  8  1  0  0  0  0
  7 11  1  6  0  0  0
  8 14  1  0  0  0  0
  8 16  1  1  0  0  0
  9 11  1  0  0  0  0
 17 16  1  6  0  0  0
 17 18  1  0  0  0  0
 17 24  1  0  0  0  0
 18 19  1  0  0  0  0
 18 25  1  6  0  0  0
 19 20  1  0  0  0  0
 19 26  1  1  0  0  0
 20 21  1  0  0  0  0
 20 23  1  6  0  0  0
 21 22  1  1  0  0  0
 21 24  1  0  0  0  0
 22 27  1  0  0  0  0
 28 12  1  1  0  0  0
 28 29  1  0  0  0  0
 28 33  1  0  0  0  0
 29 30  1  0  0  0  0
 29 36  1  6  0  0  0
 30 31  1  0  0  0  0
 30 37  1  1  0  0  0
 31 32  1  0  0  0  0
 31 34  1  6  0  0  0
 32 33  1  0  0  0  0
 33 35  1  6  0  0  0
M  END
>  <CHROM.1>
-161.94296847,86.40136065,-158.11399056,-111.01713589,47.64564941,68.29162045
17.83933541,-4.33873661,46.77002150,2.29691581,-0.05879269,-1.60657322

>  <Name>
2oe5_lig

>  <RI>
0

>  <Rbt.Current_Directory>
/home/itssahil/PROJECTS/Mol_Feturizer/New_Systems/rnas/2oe5

>  <Rbt.Executable>
rbdock ($Id: //depot/dev/client3/rdock/2013.1/src/exe/rbdock.cxx#4 $)

>  <Rbt.Library>
libRbt.so (2013.1, Build901 2013/11/27)

>  <Rbt.Parameter_File>
/export/apps/rDock/src/rDock_2013.1_src/data/scripts/dock_solv.prm

>  <Rbt.Receptor>
prm/blind_docking_80.prm

>  <SCORE>
-22.538

>  <SCORE.INTER>
-20.6102

>  <SCORE.INTER.CONST>
1

>  <SCORE.INTER.POLAR>
-2.80051

>  <SCORE.INTER.ROT>
6

>  <SCORE.INTER.SOLV>
17.4273

>  <SCORE.INTER.VDW>
-17.8142

>  <SCORE.INTER.norm>
-0.557033

>  <SCORE.INTRA>
-1.9278

>  <SCORE.INTRA.DIHEDRAL>
-4.37646

>  <SCORE.INTRA.DIHEDRAL.0>
16.2083

>  <SCORE.INTRA.POLAR>
0

>  <SCORE.INTRA.POLAR.0>
0

>  <SCORE.INTRA.REPUL>
0

>  <SCORE.INTRA.REPUL.0>
0

>  <SCORE.INTRA.SOLV>
-1.52108

>  <SCORE.INTRA.SOLV.lig_0>
-89.8095

>  <SCORE.INTRA.VDW>
1.02096

>  <SCORE.INTRA.VDW.0>
-3.19502

>  <SCORE.INTRA.norm>
-0.0521028

>  <SCORE.RESTR>
0

>  <SCORE.RESTR.CAVITY>
0

>  <SCORE.RESTR.norm>
0

>  <SCORE.SYSTEM>
0

>  <SCORE.SYSTEM.CONST>
0

>  <SCORE.SYSTEM.DIHEDRAL>
0

>  <SCORE.SYSTEM.SOLV>
0

>  <SCORE.SYSTEM.norm>
0

>  <SCORE.heavy>
37

>  <SCORE.norm>
-0.609136

>  <RMSD>
11.449

$$$$
2oe5_lig
 OpenBabel11021811463D
libRbt.so/2013.1/901 2013/11/27
 37 40  0  0  0  0  0  0  0  0999 V2000
   14.8488   -5.9708   44.8181 C   0  0  1  0  0  0  0  0  0  0  0  0
   14.5959   -6.8494   46.0636 C   0  0  1  0  0  0  0  0  0  0  0  0
   15.0948   -6.0870   47.3470 C   0  0  0  0  0  0  0  0  0  0  0  0
   16.5994   -5.8286   47.1088 C   0  0  1  0  0  0  0  0  0  0  0  0
   16.8416   -4.9261   45.8191 C   0  0  1  0  0  0  0  0  0  0  0  0
   18.3484   -4.6480   45.5656 C   0  0  1  0  0  0  0  0  0  0  0  0
   18.8928   -3.9261   46.8310 C   0  0  1  0  0  0  0  0  0  0  0  0
   18.5933   -4.8306   48.0861 C   0  0  2  0  0  0  0  0  0  0  0  0
   21.0469   -2.6065   47.5249 C   0  0  0  0  0  0  0  0  0  0  0  0
   13.1492   -7.1387   46.1934 N   0  0  0  0  0  0  0  0  0  0  0  0
   20.3742   -3.6617   46.6895 N   0  0  0  0  0  0  0  0  0  0  0  0
   14.1018   -4.7441   44.8648 O   0  0  0  0  0  0  0  0  0  0  0  0
   16.2688   -5.6205   44.6641 O   0  0  0  0  0  0  0  0  0  0  0  0
   17.1566   -5.1250   48.2513 O   0  0  0  0  0  0  0  0  0  0  0  0
   18.9985   -5.9047   45.3505 O   0  0  0  0  0  0  0  0  0  0  0  0
   19.0184   -4.1769   49.2656 O   0  0  0  0  0  0  0  0  0  0  0  0
   19.2161   -5.1197   50.3024 C   0  0  2  0  0  0  0  0  0  0  0  0
   19.6316   -4.4591   51.6164 C   0  0  1  0  0  0  0  0  0  0  0  0
   21.0122   -3.7601   51.4809 C   0  0  2  0  0  0  0  0  0  0  0  0
   22.0397   -4.8365   51.0211 C   0  0  1  0  0  0  0  0  0  0  0  0
   21.5556   -5.4195   49.6528 C   0  0  1  0  0  0  0  0  0  0  0  0
   22.4560   -6.5179   49.1328 C   0  0  0  0  0  0  0  0  0  0  0  0
   23.3880   -4.1667   50.8890 N   0  0  0  0  0  0  0  0  0  0  0  0
   20.2523   -6.0577   49.8732 O   0  0  0  0  0  0  0  0  0  0  0  0
   18.6070   -3.5073   51.9658 O   0  0  0  0  0  0  0  0  0  0  0  0
   21.3870   -3.2582   52.7765 O   0  0  0  0  0  0  0  0  0  0  0  0
   22.3229   -7.6886   49.8638 O   0  0  0  0  0  0  0  0  0  0  0  0
   14.0699   -4.0316   43.6279 C   0  0  1  0  0  0  0  0  0  0  0  0
   12.8267   -4.4859   42.7823 C   0  0  1  0  0  0  0  0  0  0  0  0
   12.8058   -3.6796   41.4340 C   0  0  2  0  0  0  0  0  0  0  0  0
   12.6935   -2.1787   41.7414 C   0  0  1  0  0  0  0  0  0  0  0  0
   13.9497   -1.7209   42.5784 C   0  0  0  0  0  0  0  0  0  0  0  0
   13.9818   -2.5412   43.9277 C   0  0  2  0  0  0  0  0  0  0  0  0
   12.6562   -1.4459   40.4866 N   0  0  0  0  0  0  0  0  0  0  0  0
   15.1666   -2.1542   44.7379 N   0  0  0  0  0  0  0  0  0  0  0  0
   12.9287   -5.9089   42.4889 O   0  0  0  0  0  0  0  0  0  0  0  0
   11.6863   -4.0691   40.6835 O   0  0  0  0  0  0  0  0  0  0  0  0
  1  2  1  0  0  0  0
  1 12  1  1  0  0  0
  1 13  1  0  0  0  0
  2  3  1  0  0  0  0
  2 10  1  1  0  0  0
  4  3  1  1  0  0  0
  4  5  1  0  0  0  0
  4 14  1  0  0  0  0
  5  6  1  0  0  0  0
  5 13  1  6  0  0  0
  6  7  1  0  0  0  0
  6 15  1  1  0  0  0
  7  8  1  0  0  0  0
  7 11  1  6  0  0  0
  8 14  1  0  0  0  0
  8 16  1  1  0  0  0
  9 11  1  0  0  0  0
 17 16  1  6  0  0  0
 17 18  1  0  0  0  0
 17 24  1  0  0  0  0
 18 19  1  0  0  0  0
 18 25  1  6  0  0  0
 19 20  1  0  0  0  0
 19 26  1  1  0  0  0
 20 21  1  0  0  0  0
 20 23  1  6  0  0  0
 21 22  1  1  0  0  0
 21 24  1  0  0  0  0
 22 27  1  0  0  0  0
 28 12  1  1  0  0  0
 28 29  1  0  0  0  0
 28 33  1  0  0  0  0
 29 30  1  0  0  0  0
 29 36  1  6  0  0  0
 30 31  1  0  0  0  0
 30 37  1  6  0  0  0
 31 32  1  0  0  0  0
 31 34  1  6  0  0  0
 32 33  1  0  0  0  0
 33 35  1  1  0  0  0
M  END
>  <CHROM.1>
-167.26792977,159.65704875,-158.63010214,-178.05843215,72.15698033,90.53075300
17.28595994,-4.58754444,46.71900632,2.71062471,-0.67836775,-0.51155986

>  <Name>
2oe5_lig

>  <RI>
0

>  <Rbt.Current_Directory>
/home/itssahil/PROJECTS/Mol_Feturizer/New_Systems/rnas/2oe5

>  <Rbt.Executable>
rbdock ($Id: //depot/dev/client3/rdock/2013.1/src/exe/rbdock.cxx#4 $)

>  <Rbt.Library>
libRbt.so (2013.1, Build901 2013/11/27)

>  <Rbt.Parameter_File>
/export/apps/rDock/src/rDock_2013.1_src/data/scripts/dock_solv.prm

>  <Rbt.Receptor>
prm/blind_docking_80.prm

>  <SCORE>
-24.4786

>  <SCORE.INTER>
-19.5668

>  <SCORE.INTER.CONST>
1

>  <SCORE.INTER.POLAR>
-2.59124

>  <SCORE.INTER.ROT>
6

>  <SCORE.INTER.SOLV>
19.5274

>  <SCORE.INTER.VDW>
-18.5162

>  <SCORE.INTER.norm>
-0.528832

>  <SCORE.INTRA>
-4.91181

>  <SCORE.INTRA.DIHEDRAL>
-8.8075

>  <SCORE.INTRA.DIHEDRAL.0>
16.2083

>  <SCORE.INTRA.POLAR>
0

>  <SCORE.INTRA.POLAR.0>
0

>  <SCORE.INTRA.REPUL>
0

>  <SCORE.INTRA.REPUL.0>
0

>  <SCORE.INTRA.SOLV>
-0.412037

>  <SCORE.INTRA.SOLV.lig_0>
-89.8095

>  <SCORE.INTRA.VDW>
-0.302045

>  <SCORE.INTRA.VDW.0>
-3.19502

>  <SCORE.INTRA.norm>
-0.132752

>  <SCORE.RESTR>
0

>  <SCORE.RESTR.CAVITY>
0

>  <SCORE.RESTR.norm>
0

>  <SCORE.SYSTEM>
0

>  <SCORE.SYSTEM.CONST>
0

>  <SCORE.SYSTEM.DIHEDRAL>
0

>  <SCORE.SYSTEM.SOLV>
0

>  <SCORE.SYSTEM.norm>
0

>  <SCORE.heavy>
37

>  <SCORE.norm>
-0.661584

>  <RMSD>
11.453

$$$$
2oe5_lig
 OpenBabel11021811463D
libRbt.so/2013.1/901 2013/11/27
 37 40  0  0  0  0  0  0  0  0999 V2000
   16.5525   -5.0875   44.7612 C   0  0  1  0  0  0  0  0  0  0  0  0
   16.1304   -3.9261   45.6886 C   0  0  1  0  0  0  0  0  0  0  0  0
   17.3726   -3.4593   46.5348 C   0  0  0  0  0  0  0  0  0  0  0  0
   17.8191   -4.7084   47.3272 C   0  0  1  0  0  0  0  0  0  0  0  0
   18.2456   -5.8963   46.3561 C   0  0  1  0  0  0  0  0  0  0  0  0
   18.7051   -7.1601   47.1331 C   0  0  1  0  0  0  0  0  0  0  0  0
   19.9129   -6.7329   48.0149 C   0  0  1  0  0  0  0  0  0  0  0  0
   19.4612   -5.5291   48.9259 C   0  0  2  0  0  0  0  0  0  0  0  0
   21.3336   -8.9194   48.2674 C   0  0  0  0  0  0  0  0  0  0  0  0
   15.6292   -2.7903   44.8809 N   0  0  0  0  0  0  0  0  0  0  0  0
   20.3938   -7.8983   48.8487 N   0  0  0  0  0  0  0  0  0  0  0  0
   17.5490   -4.6804   43.8092 O   0  0  0  0  0  0  0  0  0  0  0  0
   17.0960   -6.2291   45.5123 O   0  0  0  0  0  0  0  0  0  0  0  0
   18.9697   -4.3747   48.1490 O   0  0  0  0  0  0  0  0  0  0  0  0
   17.6038   -7.6150   47.9258 O   0  0  0  0  0  0  0  0  0  0  0  0
   20.5534   -5.0712   49.6984 O   0  0  0  0  0  0  0  0  0  0  0  0
   20.2839   -5.2454   51.0768 C   0  0  2  0  0  0  0  0  0  0  0  0
   19.2883   -4.2150   51.6085 C   0  0  1  0  0  0  0  0  0  0  0  0
   19.8693   -2.7769   51.5218 C   0  0  2  0  0  0  0  0  0  0  0  0
   21.2050   -2.7616   52.3226 C   0  0  1  0  0  0  0  0  0  0  0  0
   22.1712   -3.8099   51.6791 C   0  0  1  0  0  0  0  0  0  0  0  0
   23.4895   -3.9188   52.4124 C   0  0  0  0  0  0  0  0  0  0  0  0
   21.7774   -1.3650   52.2468 N   0  0  0  0  0  0  0  0  0  0  0  0
   21.5465   -5.1322   51.8053 O   0  0  0  0  0  0  0  0  0  0  0  0
   18.0849   -4.3301   50.8236 O   0  0  0  0  0  0  0  0  0  0  0  0
   18.9284   -1.8780   52.1365 O   0  0  0  0  0  0  0  0  0  0  0  0
   23.3247   -4.3677   53.7139 O   0  0  0  0  0  0  0  0  0  0  0  0
   17.0248   -4.3277   42.5288 C   0  0  1  0  0  0  0  0  0  0  0  0
   18.0514   -3.4176   41.7641 C   0  0  1  0  0  0  0  0  0  0  0  0
   17.4589   -3.0543   40.3551 C   0  0  2  0  0  0  0  0  0  0  0  0
   17.2247   -4.3443   39.5546 C   0  0  1  0  0  0  0  0  0  0  0  0
   16.1826   -5.2507   40.3166 C   0  0  0  0  0  0  0  0  0  0  0  0
   16.7692   -5.6047   41.7397 C   0  0  2  0  0  0  0  0  0  0  0  0
   16.6946   -3.9935   38.2473 N   0  0  0  0  0  0  0  0  0  0  0  0
   15.8050   -6.4421   42.5006 N   0  0  0  0  0  0  0  0  0  0  0  0
   18.2771   -2.1932   42.5201 O   0  0  0  0  0  0  0  0  0  0  0  0
   18.3809   -2.2565   39.6612 O   0  0  0  0  0  0  0  0  0  0  0  0
  1  2  1  0  0  0  0
  1 12  1  6  0  0  0
  1 13  1  0  0  0  0
  2  3  1  0  0  0  0
  2 10  1  6  0  0  0
  4  3  1  6  0  0  0
  4  5  1  0  0  0  0
  4 14  1  0  0  0  0
  5  6  1  0  0  0  0
  5 13  1  1  0  0  0
  6  7  1  0  0  0  0
  6 15  1  1  0  0  0
  7  8  1  0  0  0  0
  7 11  1  1  0  0  0
  8 14  1  0  0  0  0
  8 16  1  6  0  0  0
  9 11  1  0  0  0  0
 17 16  1  6  0  0  0
 17 18  1  0  0  0  0
 17 24  1  0  0  0  0
 18 19  1  0  0  0  0
 18 25  1  6  0  0  0
 19 20  1  0  0  0  0
 19 26  1  1  0  0  0
 20 21  1  0  0  0  0
 20 23  1  6  0  0  0
 21 22  1  1  0  0  0
 21 24  1  0  0  0  0
 22 27  1  0  0  0  0
 28 12  1  1  0  0  0
 28 29  1  0  0  0  0
 28 33  1  0  0  0  0
 29 30  1  0  0  0  0
 29 36  1  1  0  0  0
 30 31  1  0  0  0  0
 30 37  1  6  0  0  0
 31 32  1  0  0  0  0
 31 34  1  6  0  0  0
 32 33  1  0  0  0  0
 33 35  1  1  0  0  0
M  END
>  <CHROM.1>
-96.72417020,83.05885572,-117.38402159,-74.91923661,63.02761990,158.95858802
18.81321124,-4.61332558,46.87110670,3.02093559,-1.19287333,-0.12696840

>  <Name>
2oe5_lig

>  <RI>
0

>  <Rbt.Current_Directory>
/home/itssahil/PROJECTS/Mol_Feturizer/New_Systems/rnas/2oe5

>  <Rbt.Executable>
rbdock ($Id: //depot/dev/client3/rdock/2013.1/src/exe/rbdock.cxx#4 $)

>  <Rbt.Library>
libRbt.so (2013.1, Build901 2013/11/27)

>  <Rbt.Parameter_File>
/export/apps/rDock/src/rDock_2013.1_src/data/scripts/dock_solv.prm

>  <Rbt.Receptor>
prm/blind_docking_80.prm

>  <SCORE>
-20.3402

>  <SCORE.INTER>
-21.6855

>  <SCORE.INTER.CONST>
1

>  <SCORE.INTER.POLAR>
-2.32669

>  <SCORE.INTER.ROT>
6

>  <SCORE.INTER.SOLV>
17.0123

>  <SCORE.INTER.VDW>
-19.9722

>  <SCORE.INTER.norm>
-0.586096

>  <SCORE.INTRA>
1.34539

>  <SCORE.INTRA.DIHEDRAL>
-0.789119

>  <SCORE.INTRA.DIHEDRAL.0>
16.2083

>  <SCORE.INTRA.POLAR>
0

>  <SCORE.INTRA.POLAR.0>
0

>  <SCORE.INTRA.REPUL>
0

>  <SCORE.INTRA.REPUL.0>
0

>  <SCORE.INTRA.SOLV>
0.859461

>  <SCORE.INTRA.SOLV.lig_0>
-89.8095

>  <SCORE.INTRA.VDW>
1.31022

>  <SCORE.INTRA.VDW.0>
-3.19502

>  <SCORE.INTRA.norm>
0.036362

>  <SCORE.RESTR>
0

>  <SCORE.RESTR.CAVITY>
0

>  <SCORE.RESTR.norm>
0

>  <SCORE.SYSTEM>
0

>  <SCORE.SYSTEM.CONST>
0

>  <SCORE.SYSTEM.DIHEDRAL>
0

>  <SCORE.SYSTEM.SOLV>
0

>  <SCORE.SYSTEM.norm>
0

>  <SCORE.heavy>
37

>  <SCORE.norm>
-0.549734

>  <RMSD>
11.466

$$$$
2oe5_lig
 OpenBabel11021811463D
libRbt.so/2013.1/901 2013/11/27
 37 40  0  0  0  0  0  0  0  0999 V2000
   17.6855   -5.0160   43.8328 C   0  0  1  0  0  0  0  0  0  0  0  0
   16.7089   -5.2817   45.0003 C   0  0  1  0  0  0  0  0  0  0  0  0
   16.8625   -4.1425   46.0753 C   0  0  0  0  0  0  0  0  0  0  0  0
   18.3400   -4.2009   46.5234 C   0  0  1  0  0  0  0  0  0  0  0  0
   19.3319   -3.9299   45.3072 C   0  0  1  0  0  0  0  0  0  0  0  0
   20.8234   -3.9769   45.7379 C   0  0  1  0  0  0  0  0  0  0  0  0
   21.0114   -2.8876   46.8318 C   0  0  1  0  0  0  0  0  0  0  0  0
   19.9828   -3.1668   47.9925 C   0  0  2  0  0  0  0  0  0  0  0  0
   22.9480   -1.7689   48.1960 C   0  0  0  0  0  0  0  0  0  0  0  0
   15.3153   -5.3022   44.4994 N   0  0  0  0  0  0  0  0  0  0  0  0
   22.4323   -2.8990   47.3470 N   0  0  0  0  0  0  0  0  0  0  0  0
   17.3871   -3.7865   43.1515 O   0  0  0  0  0  0  0  0  0  0  0  0
   19.0839   -4.9464   44.2828 O   0  0  0  0  0  0  0  0  0  0  0  0
   18.5824   -3.1791   47.5273 O   0  0  0  0  0  0  0  0  0  0  0  0
   21.0953   -5.2883   46.2425 O   0  0  0  0  0  0  0  0  0  0  0  0
   20.0809   -2.1580   48.9784 O   0  0  0  0  0  0  0  0  0  0  0  0
   19.2387   -2.4625   50.0743 C   0  0  2  0  0  0  0  0  0  0  0  0
   19.5088   -1.5647   51.2811 C   0  0  1  0  0  0  0  0  0  0  0  0
   20.9411   -1.7903   51.8387 C   0  0  2  0  0  0  0  0  0  0  0  0
   21.0726   -3.3004   52.1966 C   0  0  1  0  0  0  0  0  0  0  0  0
   20.8262   -4.1329   50.8956 C   0  0  1  0  0  0  0  0  0  0  0  0
   20.8784   -5.6251   51.1366 C   0  0  0  0  0  0  0  0  0  0  0  0
   22.4627   -3.5300   52.7432 N   0  0  0  0  0  0  0  0  0  0  0  0
   19.4572   -3.8608   50.4416 O   0  0  0  0  0  0  0  0  0  0  0  0
   19.3342   -0.1994   50.8533 O   0  0  0  0  0  0  0  0  0  0  0  0
   21.0852   -0.9979   53.0314 O   0  0  0  0  0  0  0  0  0  0  0  0
   19.8046   -6.0671   51.8944 O   0  0  0  0  0  0  0  0  0  0  0  0
   16.4380   -3.9200   42.0931 C   0  0  1  0  0  0  0  0  0  0  0  0
   15.6796   -2.5609   41.8819 C   0  0  1  0  0  0  0  0  0  0  0  0
   14.6519   -2.7288   40.7054 C   0  0  2  0  0  0  0  0  0  0  0  0
   15.4075   -3.0972   39.4197 C   0  0  1  0  0  0  0  0  0  0  0  0
   16.1569   -4.4694   39.6286 C   0  0  0  0  0  0  0  0  0  0  0  0
   17.1798   -4.3079   40.8211 C   0  0  2  0  0  0  0  0  0  0  0  0
   14.4482   -3.2310   38.3357 N   0  0  0  0  0  0  0  0  0  0  0  0
   17.8929   -5.5892   41.0653 N   0  0  0  0  0  0  0  0  0  0  0  0
   14.9620   -2.2072   43.0991 O   0  0  0  0  0  0  0  0  0  0  0  0
   13.9851   -1.5114   40.5011 O   0  0  0  0  0  0  0  0  0  0  0  0
  1  2  1  0  0  0  0
  1 12  1  1  0  0  0
  1 13  1  0  0  0  0
  2  3  1  0  0  0  0
  2 10  1  6  0  0  0
  4  3  1  6  0  0  0
  4  5  1  0  0  0  0
  4 14  1  0  0  0  0
  5  6  1  0  0  0  0
  5 13  1  6  0  0  0
  6  7  1  0  0  0  0
  6 15  1  1  0  0  0
  7  8  1  0  0  0  0
  7 11  1  1  0  0  0
  8 14  1  0  0  0  0
  8 16  1  1  0  0  0
  9 11  1  0  0  0  0
 17 16  1  6  0  0  0
 17 18  1  0  0  0  0
 17 24  1  0  0  0  0
 18 19  1  0  0  0  0
 18 25  1  6  0  0  0
 19 20  1  0  0  0  0
 19 26  1  1  0  0  0
 20 21  1  0  0  0  0
 20 23  1  6  0  0  0
 21 22  1  1  0  0  0
 21 24  1  0  0  0  0
 22 27  1  0  0  0  0
 28 12  1  1  0  0  0
 28 29  1  0  0  0  0
 28 33  1  0  0  0  0
 29 30  1  0  0  0  0
 29 36  1  1  0  0  0
 30 31  1  0  0  0  0
 30 37  1  6  0  0  0
 31 32  1  0  0  0  0
 31 34  1  6  0  0  0
 32 33  1  0  0  0  0
 33 35  1  1  0  0  0
M  END
>  <CHROM.1>
-88.01202944,167.31251591,-175.20699639,168.54660090,68.87193725,153.10950108
18.63560211,-3.47153760,46.30940957,-2.23193436,-0.74611800,1.02261457

>  <Name>
2oe5_lig

>  <RI>
0

>  <Rbt.Current_Directory>
/home/itssahil/PROJECTS/Mol_Feturizer/New_Systems/rnas/2oe5

>  <Rbt.Executable>
rbdock ($Id: //depot/dev/client3/rdock/2013.1/src/exe/rbdock.cxx#4 $)

>  <Rbt.Library>
libRbt.so (2013.1, Build901 2013/11/27)

>  <Rbt.Parameter_File>
/export/apps/rDock/src/rDock_2013.1_src/data/scripts/dock_solv.prm

>  <Rbt.Receptor>
prm/blind_docking_100.prm

>  <SCORE>
-21.8293

>  <SCORE.INTER>
-19.1929

>  <SCORE.INTER.CONST>
1

>  <SCORE.INTER.POLAR>
-1.69362

>  <SCORE.INTER.ROT>
6

>  <SCORE.INTER.SOLV>
14.2331

>  <SCORE.INTER.VDW>
-19.4942

>  <SCORE.INTER.norm>
-0.518727

>  <SCORE.INTRA>
-2.63644

>  <SCORE.INTRA.DIHEDRAL>
-8.77362

>  <SCORE.INTRA.DIHEDRAL.0>
16.2083

>  <SCORE.INTRA.POLAR>
0

>  <SCORE.INTRA.POLAR.0>
0

>  <SCORE.INTRA.REPUL>
0

>  <SCORE.INTRA.REPUL.0>
0

>  <SCORE.INTRA.SOLV>
0.622428

>  <SCORE.INTRA.SOLV.lig_0>
-89.8095

>  <SCORE.INTRA.VDW>
1.43916

>  <SCORE.INTRA.VDW.0>
-3.19502

>  <SCORE.INTRA.norm>
-0.0712551

>  <SCORE.RESTR>
0

>  <SCORE.RESTR.CAVITY>
0

>  <SCORE.RESTR.norm>
0

>  <SCORE.SYSTEM>
0

>  <SCORE.SYSTEM.CONST>
0

>  <SCORE.SYSTEM.DIHEDRAL>
0

>  <SCORE.SYSTEM.SOLV>
0

>  <SCORE.SYSTEM.norm>
0

>  <SCORE.heavy>
37

>  <SCORE.norm>
-0.589982

>  <RMSD>
11.490

$$$$
2oe5_lig
 OpenBabel11021811463D
libRbt.so/2013.1/901 2013/11/27
 37 40  0  0  0  0  0  0  0  0999 V2000
   14.7386   -5.9872   44.8408 C   0  0  1  0  0  0  0  0  0  0  0  0
   14.4421   -6.8348   46.0981 C   0  0  1  0  0  0  0  0  0  0  0  0
   14.9405   -6.0616   47.3752 C   0  0  0  0  0  0  0  0  0  0  0  0
   16.4551   -5.8478   47.1573 C   0  0  1  0  0  0  0  0  0  0  0  0
   16.7422   -4.9769   45.8552 C   0  0  1  0  0  0  0  0  0  0  0  0
   18.2599   -4.7438   45.6217 C   0  0  1  0  0  0  0  0  0  0  0  0
   18.8029   -4.0124   46.8823 C   0  0  1  0  0  0  0  0  0  0  0  0
   18.4590   -4.8846   48.1488 C   0  0  2  0  0  0  0  0  0  0  0  0
   20.8430   -2.8276   45.7434 C   0  0  0  0  0  0  0  0  0  0  0  0
   12.9862   -7.0832   46.2091 N   0  0  0  0  0  0  0  0  0  0  0  0
   20.2930   -3.7903   46.7605 N   0  0  0  0  0  0  0  0  0  0  0  0
   14.0241   -4.7405   44.8521 O   0  0  0  0  0  0  0  0  0  0  0  0
   16.1698   -5.6777   44.7039 O   0  0  0  0  0  0  0  0  0  0  0  0
   17.0125   -5.1375   48.2956 O   0  0  0  0  0  0  0  0  0  0  0  0
   18.8794   -6.0211   45.4410 O   0  0  0  0  0  0  0  0  0  0  0  0
   18.8824   -4.2200   49.3228 O   0  0  0  0  0  0  0  0  0  0  0  0
   19.1329   -5.1585   50.3521 C   0  0  2  0  0  0  0  0  0  0  0  0
   19.6129   -4.4923   51.6411 C   0  0  1  0  0  0  0  0  0  0  0  0
   20.9841   -3.7924   51.4339 C   0  0  2  0  0  0  0  0  0  0  0  0
   21.9886   -4.8695   50.9274 C   0  0  1  0  0  0  0  0  0  0  0  0
   21.4374   -5.4584   49.5874 C   0  0  1  0  0  0  0  0  0  0  0  0
   22.3119   -6.5578   49.0272 C   0  0  0  0  0  0  0  0  0  0  0  0
   23.3278   -4.1988   50.7254 N   0  0  0  0  0  0  0  0  0  0  0  0
   20.1476   -6.0971   49.8752 O   0  0  0  0  0  0  0  0  0  0  0  0
   18.6059   -3.5403   52.0377 O   0  0  0  0  0  0  0  0  0  0  0  0
   21.4227   -3.2851   52.7073 O   0  0  0  0  0  0  0  0  0  0  0  0
   22.2894   -7.6949   49.8205 O   0  0  0  0  0  0  0  0  0  0  0  0
   14.0270   -4.0536   43.6004 C   0  0  1  0  0  0  0  0  0  0  0  0
   12.7742   -4.4803   42.7546 C   0  0  1  0  0  0  0  0  0  0  0  0
   12.7924   -3.7024   41.3897 C   0  0  2  0  0  0  0  0  0  0  0  0
   12.7325   -2.1923   41.6648 C   0  0  1  0  0  0  0  0  0  0  0  0
   13.9986   -1.7628   42.5020 C   0  0  0  0  0  0  0  0  0  0  0  0
   13.9911   -2.5550   43.8683 C   0  0  2  0  0  0  0  0  0  0  0  0
   12.7309   -1.4853   40.3947 N   0  0  0  0  0  0  0  0  0  0  0  0
   15.1833   -2.1941   44.6797 N   0  0  0  0  0  0  0  0  0  0  0  0
   12.8264   -5.9120   42.4918 O   0  0  0  0  0  0  0  0  0  0  0  0
   11.6649   -4.0669   40.6386 O   0  0  0  0  0  0  0  0  0  0  0  0
  1  2  1  0  0  0  0
  1 12  1  1  0  0  0
  1 13  1  0  0  0  0
  2  3  1  0  0  0  0
  2 10  1  1  0  0  0
  4  3  1  1  0  0  0
  4  5  1  0  0  0  0
  4 14  1  0  0  0  0
  5  6  1  0  0  0  0
  5 13  1  6  0  0  0
  6  7  1  0  0  0  0
  6 15  1  1  0  0  0
  7  8  1  0  0  0  0
  7 11  1  6  0  0  0
  8 14  1  0  0  0  0
  8 16  1  1  0  0  0
  9 11  1  0  0  0  0
 17 16  1  6  0  0  0
 17 18  1  0  0  0  0
 17 24  1  0  0  0  0
 18 19  1  0  0  0  0
 18 25  1  6  0  0  0
 19 20  1  0  0  0  0
 19 26  1  1  0  0  0
 20 21  1  0  0  0  0
 20 23  1  6  0  0  0
 21 22  1  1  0  0  0
 21 24  1  0  0  0  0
 22 27  1  0  0  0  0
 28 12  1  1  0  0  0
 28 29  1  0  0  0  0
 28 33  1  0  0  0  0
 29 30  1  0  0  0  0
 29 36  1  6  0  0  0
 30 31  1  0  0  0  0
 30 37  1  6  0  0  0
 31 32  1  0  0  0  0
 31 34  1  6  0  0  0
 32 33  1  0  0  0  0
 33 35  1  1  0  0  0
M  END
>  <CHROM.1>
-167.04244102,68.43832270,-154.33085542,179.22553043,67.95517516,91.16920627
17.21394454,-4.62411671,46.66059881,2.55085091,-0.55871802,-0.77278840

>  <Name>
2oe5_lig

>  <RI>
0

>  <Rbt.Current_Directory>
/home/itssahil/PROJECTS/Mol_Feturizer/New_Systems/rnas/2oe5

>  <Rbt.Executable>
rbdock ($Id: //depot/dev/client3/rdock/2013.1/src/exe/rbdock.cxx#4 $)

>  <Rbt.Library>
libRbt.so (2013.1, Build901 2013/11/27)

>  <Rbt.Parameter_File>
/export/apps/rDock/src/rDock_2013.1_src/data/scripts/dock_solv.prm

>  <Rbt.Receptor>
prm/blind_docking_80.prm

>  <SCORE>
-24.8494

>  <SCORE.INTER>
-20.4719

>  <SCORE.INTER.CONST>
1

>  <SCORE.INTER.POLAR>
-2.57864

>  <SCORE.INTER.ROT>
6

>  <SCORE.INTER.SOLV>
19.4121

>  <SCORE.INTER.VDW>
-19.1231

>  <SCORE.INTER.norm>
-0.553294

>  <SCORE.INTRA>
-4.37748

>  <SCORE.INTRA.DIHEDRAL>
-8.45794

>  <SCORE.INTRA.DIHEDRAL.0>
16.2083

>  <SCORE.INTRA.POLAR>
0

>  <SCORE.INTRA.POLAR.0>
0

>  <SCORE.INTRA.REPUL>
0

>  <SCORE.INTRA.REPUL.0>
0

>  <SCORE.INTRA.SOLV>
-0.47608

>  <SCORE.INTRA.SOLV.lig_0>
-89.8095

>  <SCORE.INTRA.VDW>
0.0895277

>  <SCORE.INTRA.VDW.0>
-3.19502

>  <SCORE.INTRA.norm>
-0.11831

>  <SCORE.RESTR>
0

>  <SCORE.RESTR.CAVITY>
0

>  <SCORE.RESTR.norm>
0

>  <SCORE.SYSTEM>
0

>  <SCORE.SYSTEM.CONST>
0

>  <SCORE.SYSTEM.DIHEDRAL>
0

>  <SCORE.SYSTEM.SOLV>
0

>  <SCORE.SYSTEM.norm>
0

>  <SCORE.heavy>
37

>  <SCORE.norm>
-0.671604

>  <RMSD>
11.501

$$$$
2oe5_lig
 OpenBabel11021811463D
libRbt.so/2013.1/901 2013/11/27
 37 40  0  0  0  0  0  0  0  0999 V2000
   15.8746   -5.8851   44.6809 C   0  0  1  0  0  0  0  0  0  0  0  0
   15.2183   -5.9891   46.0758 C   0  0  1  0  0  0  0  0  0  0  0  0
   15.6526   -4.7527   46.9476 C   0  0  0  0  0  0  0  0  0  0  0  0
   17.1944   -4.8255   47.0192 C   0  0  1  0  0  0  0  0  0  0  0  0
   17.8533   -4.7219   45.5730 C   0  0  1  0  0  0  0  0  0  0  0  0
   19.4043   -4.7857   45.6232 C   0  0  1  0  0  0  0  0  0  0  0  0
   19.8760   -3.5983   46.5100 C   0  0  1  0  0  0  0  0  0  0  0  0
   19.1675   -3.7144   47.9128 C   0  0  2  0  0  0  0  0  0  0  0  0
   22.2673   -3.5408   45.4419 C   0  0  0  0  0  0  0  0  0  0  0  0
   13.7435   -6.0036   45.9413 N   0  0  0  0  0  0  0  0  0  0  0  0
   21.3804   -3.6152   46.6550 N   0  0  0  0  0  0  0  0  0  0  0  0
   15.4322   -4.7209   43.9641 O   0  0  0  0  0  0  0  0  0  0  0  0
   17.3419   -5.8272   44.7599 O   0  0  0  0  0  0  0  0  0  0  0  0
   17.6951   -3.7168   47.8133 O   0  0  0  0  0  0  0  0  0  0  0  0
   19.7755   -6.0484   46.1853 O   0  0  0  0  0  0  0  0  0  0  0  0
   19.5239   -2.6145   48.7267 O   0  0  0  0  0  0  0  0  0  0  0  0
   18.9275   -2.7387   50.0042 C   0  0  2  0  0  0  0  0  0  0  0  0
   19.5993   -1.8470   51.0478 C   0  0  1  0  0  0  0  0  0  0  0  0
   21.0747   -2.2725   51.2831 C   0  0  2  0  0  0  0  0  0  0  0  0
   21.0680   -3.7690   51.7147 C   0  0  1  0  0  0  0  0  0  0  0  0
   20.4064   -4.6038   50.5695 C   0  0  1  0  0  0  0  0  0  0  0  0
   20.2986   -6.0748   50.9041 C   0  0  0  0  0  0  0  0  0  0  0  0
   22.4998   -4.1923   51.9492 N   0  0  0  0  0  0  0  0  0  0  0  0
   19.0228   -4.1381   50.4169 O   0  0  0  0  0  0  0  0  0  0  0  0
   19.5273   -0.4895   50.5688 O   0  0  0  0  0  0  0  0  0  0  0  0
   21.6069   -1.4656   52.3493 O   0  0  0  0  0  0  0  0  0  0  0  0
   21.5311   -6.7087   50.8632 O   0  0  0  0  0  0  0  0  0  0  0  0
   16.2033   -4.4230   42.7999 C   0  0  1  0  0  0  0  0  0  0  0  0
   15.8404   -5.4274   41.6481 C   0  0  1  0  0  0  0  0  0  0  0  0
   16.6905   -5.0716   40.3757 C   0  0  2  0  0  0  0  0  0  0  0  0
   16.3598   -3.6399   39.9279 C   0  0  1  0  0  0  0  0  0  0  0  0
   16.7381   -2.6311   41.0800 C   0  0  0  0  0  0  0  0  0  0  0  0
   15.8961   -2.9963   42.3654 C   0  0  2  0  0  0  0  0  0  0  0  0
   17.1381   -3.3301   38.7399 N   0  0  0  0  0  0  0  0  0  0  0  0
   16.2405   -2.0800   43.4843 N   0  0  0  0  0  0  0  0  0  0  0  0
   16.1517   -6.7867   42.0687 O   0  0  0  0  0  0  0  0  0  0  0  0
   16.3559   -5.9550   39.3384 O   0  0  0  0  0  0  0  0  0  0  0  0
  1  2  1  0  0  0  0
  1 12  1  1  0  0  0
  1 13  1  0  0  0  0
  2  3  1  0  0  0  0
  2 10  1  6  0  0  0
  4  3  1  6  0  0  0
  4  5  1  0  0  0  0
  4 14  1  0  0  0  0
  5  6  1  0  0  0  0
  5 13  1  6  0  0  0
  6  7  1  0  0  0  0
  6 15  1  1  0  0  0
  7  8  1  0  0  0  0
  7 11  1  1  0  0  0
  8 14  1  0  0  0  0
  8 16  1  1  0  0  0
  9 11  1  0  0  0  0
 17 16  1  6  0  0  0
 17 18  1  0  0  0  0
 17 24  1  0  0  0  0
 18 19  1  0  0  0  0
 18 25  1  6  0  0  0
 19 20  1  0  0  0  0
 19 26  1  1  0  0  0
 20 21  1  0  0  0  0
 20 23  1  6  0  0  0
 21 22  1  1  0  0  0
 21 24  1  0  0  0  0
 22 27  1  0  0  0  0
 28 12  1  1  0  0  0
 28 29  1  0  0  0  0
 28 33  1  0  0  0  0
 29 30  1  0  0  0  0
 29 36  1  1  0  0  0
 30 31  1  0  0  0  0
 30 37  1  6  0  0  0
 31 32  1  0  0  0  0
 31 34  1  6  0  0  0
 32 33  1  0  0  0  0
 33 35  1  1  0  0  0
M  END
>  <CHROM.1>
167.60699287,58.61345289,-177.94698664,162.20445082,-72.60413353,75.12385103
18.31223892,-4.19878222,46.33761223,2.16224062,-0.68490067,-1.30647398

>  <Name>
2oe5_lig

>  <RI>
0

>  <Rbt.Current_Directory>
/home/itssahil/PROJECTS/Mol_Feturizer/New_Systems/rnas/2oe5

>  <Rbt.Executable>
rbdock ($Id: //depot/dev/client3/rdock/2013.1/src/exe/rbdock.cxx#4 $)

>  <Rbt.Library>
libRbt.so (2013.1, Build901 2013/11/27)

>  <Rbt.Parameter_File>
/export/apps/rDock/src/rDock_2013.1_src/data/scripts/dock_solv.prm

>  <Rbt.Receptor>
prm/blind_docking_60.prm

>  <SCORE>
-26.8439

>  <SCORE.INTER>
-23.0725

>  <SCORE.INTER.CONST>
1

>  <SCORE.INTER.POLAR>
-2.64999

>  <SCORE.INTER.ROT>
6

>  <SCORE.INTER.SOLV>
18.6998

>  <SCORE.INTER.VDW>
-20.3816

>  <SCORE.INTER.norm>
-0.62358

>  <SCORE.INTRA>
-3.77138

>  <SCORE.INTRA.DIHEDRAL>
-12.2844

>  <SCORE.INTRA.DIHEDRAL.0>
16.2083

>  <SCORE.INTRA.POLAR>
0

>  <SCORE.INTRA.POLAR.0>
0

>  <SCORE.INTRA.REPUL>
0

>  <SCORE.INTRA.REPUL.0>
0

>  <SCORE.INTRA.SOLV>
-1.58884

>  <SCORE.INTRA.SOLV.lig_0>
-89.8095

>  <SCORE.INTRA.VDW>
3.16522

>  <SCORE.INTRA.VDW.0>
-3.19502

>  <SCORE.INTRA.norm>
-0.101929

>  <SCORE.RESTR>
0

>  <SCORE.RESTR.CAVITY>
0

>  <SCORE.RESTR.norm>
0

>  <SCORE.SYSTEM>
0

>  <SCORE.SYSTEM.CONST>
0

>  <SCORE.SYSTEM.DIHEDRAL>
0

>  <SCORE.SYSTEM.SOLV>
0

>  <SCORE.SYSTEM.norm>
0

>  <SCORE.heavy>
37

>  <SCORE.norm>
-0.72551

>  <RMSD>
11.505

$$$$
2oe5_lig
 OpenBabel11021811463D
libRbt.so/2013.1/901 2013/11/27
 37 40  0  0  0  0  0  0  0  0999 V2000
   15.8112   -5.8240   44.7182 C   0  0  1  0  0  0  0  0  0  0  0  0
   15.1201   -5.8972   46.0982 C   0  0  1  0  0  0  0  0  0  0  0  0
   15.5334   -4.6421   46.9533 C   0  0  0  0  0  0  0  0  0  0  0  0
   17.0728   -4.7137   47.0651 C   0  0  1  0  0  0  0  0  0  0  0  0
   17.7678   -4.6419   45.6339 C   0  0  1  0  0  0  0  0  0  0  0  0
   19.3170   -4.7049   45.7243 C   0  0  1  0  0  0  0  0  0  0  0  0
   19.7673   -3.4985   46.5964 C   0  0  1  0  0  0  0  0  0  0  0  0
   19.0238   -3.5836   47.9832 C   0  0  2  0  0  0  0  0  0  0  0  0
   21.9778   -2.3252   47.3709 C   0  0  0  0  0  0  0  0  0  0  0  0
   13.6491   -5.9144   45.9271 N   0  0  0  0  0  0  0  0  0  0  0  0
   21.2675   -3.5125   46.7794 N   0  0  0  0  0  0  0  0  0  0  0  0
   15.3878   -4.6757   43.9652 O   0  0  0  0  0  0  0  0  0  0  0  0
   17.2762   -5.7647   44.8327 O   0  0  0  0  0  0  0  0  0  0  0  0
   17.5544   -3.5878   47.8470 O   0  0  0  0  0  0  0  0  0  0  0  0
   19.6731   -5.9550   46.3232 O   0  0  0  0  0  0  0  0  0  0  0  0
   19.3605   -2.4662   48.7815 O   0  0  0  0  0  0  0  0  0  0  0  0
   18.6599   -2.5148   50.0102 C   0  0  2  0  0  0  0  0  0  0  0  0
   19.3068   -1.6389   51.0825 C   0  0  1  0  0  0  0  0  0  0  0  0
   20.7277   -2.1520   51.4440 C   0  0  2  0  0  0  0  0  0  0  0  0
   20.5877   -3.6319   51.9089 C   0  0  1  0  0  0  0  0  0  0  0  0
   19.9626   -4.4547   50.7347 C   0  0  1  0  0  0  0  0  0  0  0  0
   19.7312   -5.9054   51.0943 C   0  0  0  0  0  0  0  0  0  0  0  0
   21.9654   -4.1401   52.2660 N   0  0  0  0  0  0  0  0  0  0  0  0
   18.6292   -3.9050   50.4620 O   0  0  0  0  0  0  0  0  0  0  0  0
   19.3629   -0.2938   50.5675 O   0  0  0  0  0  0  0  0  0  0  0  0
   21.2283   -1.3510   52.5297 O   0  0  0  0  0  0  0  0  0  0  0  0
   20.8954   -6.5277   51.5188 O   0  0  0  0  0  0  0  0  0  0  0  0
   16.1697   -4.4212   42.7979 C   0  0  1  0  0  0  0  0  0  0  0  0
   15.7894   -5.4433   41.6676 C   0  0  1  0  0  0  0  0  0  0  0  0
   16.6521   -5.1351   40.3912 C   0  0  2  0  0  0  0  0  0  0  0  0
   16.3545   -3.7071   39.9096 C   0  0  1  0  0  0  0  0  0  0  0  0
   16.7502   -2.6809   41.0404 C   0  0  0  0  0  0  0  0  0  0  0  0
   15.8955   -2.9984   42.3300 C   0  0  2  0  0  0  0  0  0  0  0  0
   17.1440   -3.4413   38.7184 N   0  0  0  0  0  0  0  0  0  0  0  0
   16.2554   -2.0647   43.4293 N   0  0  0  0  0  0  0  0  0  0  0  0
   16.0694   -6.7992   42.1201 O   0  0  0  0  0  0  0  0  0  0  0  0
   16.3023   -6.0343   39.3726 O   0  0  0  0  0  0  0  0  0  0  0  0
  1  2  1  0  0  0  0
  1 12  1  1  0  0  0
  1 13  1  0  0  0  0
  2  3  1  0  0  0  0
  2 10  1  6  0  0  0
  4  3  1  6  0  0  0
  4  5  1  0  0  0  0
  4 14  1  0  0  0  0
  5  6  1  0  0  0  0
  5 13  1  6  0  0  0
  6  7  1  0  0  0  0
  6 15  1  1  0  0  0
  7  8  1  0  0  0  0
  7 11  1  1  0  0  0
  8 14  1  0  0  0  0
  8 16  1  1  0  0  0
  9 11  1  0  0  0  0
 17 16  1  6  0  0  0
 17 18  1  0  0  0  0
 17 24  1  0  0  0  0
 18 19  1  0  0  0  0
 18 25  1  6  0  0  0
 19 20  1  0  0  0  0
 19 26  1  1  0  0  0
 20 21  1  0  0  0  0
 20 23  1  6  0  0  0
 21 22  1  1  0  0  0
 21 24  1  0  0  0  0
 22 27  1  0  0  0  0
 28 12  1  1  0  0  0
 28 29  1  0  0  0  0
 28 33  1  0  0  0  0
 29 30  1  0  0  0  0
 29 36  1  1  0  0  0
 30 31  1  0  0  0  0
 30 37  1  6  0  0  0
 31 32  1  0  0  0  0
 31 34  1  6  0  0  0
 32 33  1  0  0  0  0
 33 35  1  1  0  0  0
M  END
>  <CHROM.1>
168.93762665,168.95498276,178.01378708,160.57764825,-56.28807010,75.78621711
18.13253607,-4.08646191,46.46901129,2.23088282,-0.85672961,-1.19853043

>  <Name>
2oe5_lig

>  <RI>
0

>  <Rbt.Current_Directory>
/home/itssahil/PROJECTS/Mol_Feturizer/New_Systems/rnas/2oe5

>  <Rbt.Executable>
rbdock ($Id: //depot/dev/client3/rdock/2013.1/src/exe/rbdock.cxx#4 $)

>  <Rbt.Library>
libRbt.so (2013.1, Build901 2013/11/27)

>  <Rbt.Parameter_File>
/export/apps/rDock/src/rDock_2013.1_src/data/scripts/dock_solv.prm

>  <Rbt.Receptor>
prm/blind_docking_100.prm

>  <SCORE>
-25.881

>  <SCORE.INTER>
-22.2113

>  <SCORE.INTER.CONST>
1

>  <SCORE.INTER.POLAR>
-2.82056

>  <SCORE.INTER.ROT>
6

>  <SCORE.INTER.SOLV>
20.1883

>  <SCORE.INTER.VDW>
-19.7351

>  <SCORE.INTER.norm>
-0.600306

>  <SCORE.INTRA>
-3.66962

>  <SCORE.INTRA.DIHEDRAL>
-12.5035

>  <SCORE.INTRA.DIHEDRAL.0>
16.2083

>  <SCORE.INTRA.POLAR>
0

>  <SCORE.INTRA.POLAR.0>
0

>  <SCORE.INTRA.REPUL>
0

>  <SCORE.INTRA.REPUL.0>
0

>  <SCORE.INTRA.SOLV>
-1.39417

>  <SCORE.INTRA.SOLV.lig_0>
-89.8095

>  <SCORE.INTRA.VDW>
3.27922

>  <SCORE.INTRA.VDW.0>
-3.19502

>  <SCORE.INTRA.norm>
-0.099179

>  <SCORE.RESTR>
0

>  <SCORE.RESTR.CAVITY>
0

>  <SCORE.RESTR.norm>
0

>  <SCORE.SYSTEM>
0

>  <SCORE.SYSTEM.CONST>
0

>  <SCORE.SYSTEM.DIHEDRAL>
0

>  <SCORE.SYSTEM.SOLV>
0

>  <SCORE.SYSTEM.norm>
0

>  <SCORE.heavy>
37

>  <SCORE.norm>
-0.699485

>  <RMSD>
11.509

$$$$
2oe5_lig
 OpenBabel11021811463D
libRbt.so/2013.1/901 2013/11/27
 37 40  0  0  0  0  0  0  0  0999 V2000
   15.6686   -6.2922   44.6400 C   0  0  1  0  0  0  0  0  0  0  0  0
   14.9292   -6.5485   45.9723 C   0  0  1  0  0  0  0  0  0  0  0  0
   15.3100   -5.4215   47.0028 C   0  0  0  0  0  0  0  0  0  0  0  0
   16.8446   -5.5123   47.1582 C   0  0  1  0  0  0  0  0  0  0  0  0
   17.5897   -5.2505   45.7752 C   0  0  1  0  0  0  0  0  0  0  0  0
   19.1348   -5.3301   45.9110 C   0  0  1  0  0  0  0  0  0  0  0  0
   19.5519   -4.2536   46.9531 C   0  0  1  0  0  0  0  0  0  0  0  0
   18.7600   -4.5225   48.2886 C   0  0  2  0  0  0  0  0  0  0  0  0
   22.0030   -3.9917   46.0662 C   0  0  0  0  0  0  0  0  0  0  0  0
   13.4652   -6.5378   45.7486 N   0  0  0  0  0  0  0  0  0  0  0  0
   21.0448   -4.2969   47.1854 N   0  0  0  0  0  0  0  0  0  0  0  0
   15.2703   -5.0515   44.0342 O   0  0  0  0  0  0  0  0  0  0  0  0
   17.1285   -6.2534   44.8131 O   0  0  0  0  0  0  0  0  0  0  0  0
   17.2963   -4.5037   48.1013 O   0  0  0  0  0  0  0  0  0  0  0  0
   19.4715   -6.6506   46.3480 O   0  0  0  0  0  0  0  0  0  0  0  0
   19.0664   -3.5241   49.2417 O   0  0  0  0  0  0  0  0  0  0  0  0
   20.0598   -3.9903   50.1355 C   0  0  2  0  0  0  0  0  0  0  0  0
   19.9125   -3.3886   51.5325 C   0  0  1  0  0  0  0  0  0  0  0  0
   20.1279   -1.8504   51.5065 C   0  0  2  0  0  0  0  0  0  0  0  0
   21.5398   -1.5847   50.9050 C   0  0  1  0  0  0  0  0  0  0  0  0
   21.5787   -2.1935   49.4648 C   0  0  1  0  0  0  0  0  0  0  0  0
   22.9283   -2.0390   48.7999 C   0  0  0  0  0  0  0  0  0  0  0  0
   21.7605   -0.0899   50.8780 N   0  0  0  0  0  0  0  0  0  0  0  0
   21.3682   -3.6412   49.5841 O   0  0  0  0  0  0  0  0  0  0  0  0
   18.5907   -3.7134   52.0070 O   0  0  0  0  0  0  0  0  0  0  0  0
   20.0835   -1.3709   52.8626 O   0  0  0  0  0  0  0  0  0  0  0  0
   23.3418   -0.7159   48.7645 O   0  0  0  0  0  0  0  0  0  0  0  0
   16.0917   -4.6452   42.9393 C   0  0  1  0  0  0  0  0  0  0  0  0
   15.7857   -5.5370   41.6830 C   0  0  1  0  0  0  0  0  0  0  0  0
   16.6907   -5.0628   40.4895 C   0  0  2  0  0  0  0  0  0  0  0  0
   16.3740   -3.5955   40.1636 C   0  0  1  0  0  0  0  0  0  0  0  0
   16.6953   -2.6994   41.4213 C   0  0  0  0  0  0  0  0  0  0  0  0
   15.7979   -3.1841   42.6272 C   0  0  2  0  0  0  0  0  0  0  0  0
   17.2036   -3.1750   39.0464 N   0  0  0  0  0  0  0  0  0  0  0  0
   16.0872   -2.3770   43.8417 N   0  0  0  0  0  0  0  0  0  0  0  0
   16.0841   -6.9297   41.9878 O   0  0  0  0  0  0  0  0  0  0  0  0
   16.4073   -5.8449   39.3597 O   0  0  0  0  0  0  0  0  0  0  0  0
  1  2  1  0  0  0  0
  1 12  1  1  0  0  0
  1 13  1  0  0  0  0
  2  3  1  0  0  0  0
  2 10  1  6  0  0  0
  4  3  1  6  0  0  0
  4  5  1  0  0  0  0
  4 14  1  0  0  0  0
  5  6  1  0  0  0  0
  5 13  1  6  0  0  0
  6  7  1  0  0  0  0
  6 15  1  1  0  0  0
  7  8  1  0  0  0  0
  7 11  1  1  0  0  0
  8 14  1  0  0  0  0
  8 16  1  1  0  0  0
  9 11  1  0  0  0  0
 17 16  1  6  0  0  0
 17 18  1  0  0  0  0
 17 24  1  0  0  0  0
 18 19  1  0  0  0  0
 18 25  1  6  0  0  0
 19 20  1  0  0  0  0
 19 26  1  1  0  0  0
 20 21  1  0  0  0  0
 20 23  1  6  0  0  0
 21 22  1  1  0  0  0
 21 24  1  0  0  0  0
 22 27  1  0  0  0  0
 28 12  1  1  0  0  0
 28 29  1  0  0  0  0
 28 33  1  0  0  0  0
 29 30  1  0  0  0  0
 29 36  1  1  0  0  0
 30 31  1  0  0  0  0
 30 37  1  6  0  0  0
 31 32  1  0  0  0  0
 31 34  1  6  0  0  0
 32 33  1  0  0  0  0
 33 35  1  1  0  0  0
M  END
>  <CHROM.1>
169.00677696,63.15922002,-97.86580541,-148.74928641,-55.38250570,73.88741816
18.32522097,-4.10226717,46.33465707,2.18964114,-0.59699183,-1.49149385

>  <Name>
2oe5_lig

>  <RI>
0

>  <Rbt.Current_Directory>
/home/itssahil/PROJECTS/Mol_Feturizer/New_Systems/rnas/2oe5

>  <Rbt.Executable>
rbdock ($Id: //depot/dev/client3/rdock/2013.1/src/exe/rbdock.cxx#4 $)

>  <Rbt.Library>
libRbt.so (2013.1, Build901 2013/11/27)

>  <Rbt.Parameter_File>
/export/apps/rDock/src/rDock_2013.1_src/data/scripts/dock_solv.prm

>  <Rbt.Receptor>
prm/blind_docking_100.prm

>  <SCORE>
-22.7586

>  <SCORE.INTER>
-21.0278

>  <SCORE.INTER.CONST>
1

>  <SCORE.INTER.POLAR>
-2.94606

>  <SCORE.INTER.ROT>
6

>  <SCORE.INTER.SOLV>
16.542

>  <SCORE.INTER.VDW>
-17.3123

>  <SCORE.INTER.norm>
-0.568318

>  <SCORE.INTRA>
-1.73088

>  <SCORE.INTRA.DIHEDRAL>
-5.71529

>  <SCORE.INTRA.DIHEDRAL.0>
16.2083

>  <SCORE.INTRA.POLAR>
0

>  <SCORE.INTRA.POLAR.0>
0

>  <SCORE.INTRA.REPUL>
0

>  <SCORE.INTRA.REPUL.0>
0

>  <SCORE.INTRA.SOLV>
0.00578962

>  <SCORE.INTRA.SOLV.lig_0>
-89.8095

>  <SCORE.INTRA.VDW>
1.12386

>  <SCORE.INTRA.VDW.0>
-3.19502

>  <SCORE.INTRA.norm>
-0.0467806

>  <SCORE.RESTR>
0

>  <SCORE.RESTR.CAVITY>
0

>  <SCORE.RESTR.norm>
0

>  <SCORE.SYSTEM>
0

>  <SCORE.SYSTEM.CONST>
0

>  <SCORE.SYSTEM.DIHEDRAL>
0

>  <SCORE.SYSTEM.SOLV>
0

>  <SCORE.SYSTEM.norm>
0

>  <SCORE.heavy>
37

>  <SCORE.norm>
-0.615098

>  <RMSD>
11.516

$$$$
2oe5_lig
 OpenBabel11021811463D
libRbt.so/2013.1/901 2013/11/27
 37 40  0  0  0  0  0  0  0  0999 V2000
   15.7252   -6.1018   44.6392 C   0  0  1  0  0  0  0  0  0  0  0  0
   15.0128   -6.3045   45.9952 C   0  0  1  0  0  0  0  0  0  0  0  0
   15.4293   -5.1484   46.9786 C   0  0  0  0  0  0  0  0  0  0  0  0
   16.9659   -5.2527   47.1034 C   0  0  1  0  0  0  0  0  0  0  0  0
   17.6829   -5.0463   45.6964 C   0  0  1  0  0  0  0  0  0  0  0  0
   19.2297   -5.1402   45.8008 C   0  0  1  0  0  0  0  0  0  0  0  0
   19.6823   -4.0347   46.7968 C   0  0  1  0  0  0  0  0  0  0  0  0
   18.9172   -4.2492   48.1576 C   0  0  2  0  0  0  0  0  0  0  0  0
   22.1144   -3.9482   45.8273 C   0  0  0  0  0  0  0  0  0  0  0  0
   13.5444   -6.2834   45.8033 N   0  0  0  0  0  0  0  0  0  0  0  0
   21.1794   -4.0885   46.9977 N   0  0  0  0  0  0  0  0  0  0  0  0
   15.3278   -4.8773   44.0008 O   0  0  0  0  0  0  0  0  0  0  0  0
   17.1890   -6.0751   44.7789 O   0  0  0  0  0  0  0  0  0  0  0  0
   17.4500   -4.2188   48.0018 O   0  0  0  0  0  0  0  0  0  0  0  0
   19.5609   -6.4494   46.2746 O   0  0  0  0  0  0  0  0  0  0  0  0
   19.2563   -3.2233   49.0696 O   0  0  0  0  0  0  0  0  0  0  0  0
   20.2414   -3.6817   49.9765 C   0  0  2  0  0  0  0  0  0  0  0  0
   19.9674   -3.2276   51.4098 C   0  0  1  0  0  0  0  0  0  0  0  0
   20.0405   -1.6807   51.5318 C   0  0  2  0  0  0  0  0  0  0  0  0
   21.4507   -1.2377   51.0412 C   0  0  1  0  0  0  0  0  0  0  0  0
   21.6197   -1.7043   49.5579 C   0  0  1  0  0  0  0  0  0  0  0  0
   22.9815   -1.3710   48.9907 C   0  0  0  0  0  0  0  0  0  0  0  0
   21.5331    0.2668   51.1588 N   0  0  0  0  0  0  0  0  0  0  0  0
   21.5384   -3.1697   49.5367 O   0  0  0  0  0  0  0  0  0  0  0  0
   18.6588   -3.7096   51.7743 O   0  0  0  0  0  0  0  0  0  0  0  0
   19.8823   -1.3350   52.9198 O   0  0  0  0  0  0  0  0  0  0  0  0
   23.0708   -1.6748   47.6407 O   0  0  0  0  0  0  0  0  0  0  0  0
   16.1194   -4.5260   42.8656 C   0  0  1  0  0  0  0  0  0  0  0  0
   15.7840   -5.4813   41.6649 C   0  0  1  0  0  0  0  0  0  0  0  0
   16.6564   -5.0671   40.4257 C   0  0  2  0  0  0  0  0  0  0  0  0
   16.3267   -3.6189   40.0336 C   0  0  1  0  0  0  0  0  0  0  0  0
   16.6775   -2.6591   41.2353 C   0  0  0  0  0  0  0  0  0  0  0  0
   15.8130   -3.0832   42.4872 C   0  0  2  0  0  0  0  0  0  0  0  0
   17.1260   -3.2546   38.8754 N   0  0  0  0  0  0  0  0  0  0  0  0
   16.1309   -2.2146   43.6509 N   0  0  0  0  0  0  0  0  0  0  0  0
   16.0945   -6.8561   42.0325 O   0  0  0  0  0  0  0  0  0  0  0  0
   16.3465   -5.9064   39.3450 O   0  0  0  0  0  0  0  0  0  0  0  0
  1  2  1  0  0  0  0
  1 12  1  1  0  0  0
  1 13  1  0  0  0  0
  2  3  1  0  0  0  0
  2 10  1  6  0  0  0
  4  3  1  6  0  0  0
  4  5  1  0  0  0  0
  4 14  1  0  0  0  0
  5  6  1  0  0  0  0
  5 13  1  6  0  0  0
  6  7  1  0  0  0  0
  6 15  1  1  0  0  0
  7  8  1  0  0  0  0
  7 11  1  1  0  0  0
  8 14  1  0  0  0  0
  8 16  1  1  0  0  0
  9 11  1  0  0  0  0
 17 16  1  6  0  0  0
 17 18  1  0  0  0  0
 17 24  1  0  0  0  0
 18 19  1  0  0  0  0
 18 25  1  6  0  0  0
 19 20  1  0  0  0  0
 19 26  1  1  0  0  0
 20 21  1  0  0  0  0
 20 23  1  6  0  0  0
 21 22  1  1  0  0  0
 21 24  1  0  0  0  0
 22 27  1  0  0  0  0
 28 12  1  1  0  0  0
 28 29  1  0  0  0  0
 28 33  1  0  0  0  0
 29 30  1  0  0  0  0
 29 36  1  1  0  0  0
 30 31  1  0  0  0  0
 30 37  1  6  0  0  0
 31 32  1  0  0  0  0
 31 34  1  6  0  0  0
 32 33  1  0  0  0  0
 33 35  1  1  0  0  0
M  END
>  <CHROM.1>
169.70351568,57.95692209,-99.23429264,-138.12062905,-174.23576884,72.44743817
18.35921724,-3.94718160,46.24494805,2.15411878,-0.55026586,-1.54511349

>  <Name>
2oe5_lig

>  <RI>
0

>  <Rbt.Current_Directory>
/home/itssahil/PROJECTS/Mol_Feturizer/New_Systems/rnas/2oe5

>  <Rbt.Executable>
rbdock ($Id: //depot/dev/client3/rdock/2013.1/src/exe/rbdock.cxx#4 $)

>  <Rbt.Library>
libRbt.so (2013.1, Build901 2013/11/27)

>  <Rbt.Parameter_File>
/export/apps/rDock/src/rDock_2013.1_src/data/scripts/dock_solv.prm

>  <Rbt.Receptor>
prm/blind_docking_80.prm

>  <SCORE>
-23.2062

>  <SCORE.INTER>
-21.5387

>  <SCORE.INTER.CONST>
1

>  <SCORE.INTER.POLAR>
-2.77856

>  <SCORE.INTER.ROT>
6

>  <SCORE.INTER.SOLV>
17.0315

>  <SCORE.INTER.VDW>
-18.3744

>  <SCORE.INTER.norm>
-0.582126

>  <SCORE.INTRA>
-1.66751

>  <SCORE.INTRA.DIHEDRAL>
-3.82965

>  <SCORE.INTRA.DIHEDRAL.0>
16.2083

>  <SCORE.INTRA.POLAR>
0

>  <SCORE.INTRA.POLAR.0>
0

>  <SCORE.INTRA.REPUL>
0

>  <SCORE.INTRA.REPUL.0>
0

>  <SCORE.INTRA.SOLV>
-0.800632

>  <SCORE.INTRA.SOLV.lig_0>
-89.8095

>  <SCORE.INTRA.VDW>
0.647627

>  <SCORE.INTRA.VDW.0>
-3.19502

>  <SCORE.INTRA.norm>
-0.0450679

>  <SCORE.RESTR>
0

>  <SCORE.RESTR.CAVITY>
0

>  <SCORE.RESTR.norm>
0

>  <SCORE.SYSTEM>
0

>  <SCORE.SYSTEM.CONST>
0

>  <SCORE.SYSTEM.DIHEDRAL>
0

>  <SCORE.SYSTEM.SOLV>
0

>  <SCORE.SYSTEM.norm>
0

>  <SCORE.heavy>
37

>  <SCORE.norm>
-0.627194

>  <RMSD>
11.516

$$$$
2oe5_lig
 OpenBabel11021811463D
libRbt.so/2013.1/901 2013/11/27
 37 40  0  0  0  0  0  0  0  0999 V2000
   15.7816   -5.9742   44.6772 C   0  0  1  0  0  0  0  0  0  0  0  0
   15.1594   -6.0823   46.0874 C   0  0  1  0  0  0  0  0  0  0  0  0
   15.6473   -4.8700   46.9646 C   0  0  0  0  0  0  0  0  0  0  0  0
   17.1881   -4.9821   46.9945 C   0  0  1  0  0  0  0  0  0  0  0  0
   17.8115   -4.8737   45.5330 C   0  0  1  0  0  0  0  0  0  0  0  0
   19.3612   -4.9767   45.5414 C   0  0  1  0  0  0  0  0  0  0  0  0
   19.8856   -3.8146   46.4319 C   0  0  1  0  0  0  0  0  0  0  0  0
   19.2112   -3.9335   47.8512 C   0  0  2  0  0  0  0  0  0  0  0  0
   22.2548   -3.5779   45.3394 C   0  0  0  0  0  0  0  0  0  0  0  0
   13.6817   -6.0582   45.9916 N   0  0  0  0  0  0  0  0  0  0  0  0
   21.3924   -3.8709   46.5370 N   0  0  0  0  0  0  0  0  0  0  0  0
   15.3502   -4.7890   43.9887 O   0  0  0  0  0  0  0  0  0  0  0  0
   17.2515   -5.9539   44.7183 O   0  0  0  0  0  0  0  0  0  0  0  0
   17.7371   -3.8979   47.7905 O   0  0  0  0  0  0  0  0  0  0  0  0
   19.7150   -6.2563   46.0758 O   0  0  0  0  0  0  0  0  0  0  0  0
   19.6163   -2.8549   48.6707 O   0  0  0  0  0  0  0  0  0  0  0  0
   19.0320   -2.9706   49.9545 C   0  0  2  0  0  0  0  0  0  0  0  0
   19.6221   -1.9753   50.9529 C   0  0  1  0  0  0  0  0  0  0  0  0
   21.1289   -2.2582   51.2031 C   0  0  2  0  0  0  0  0  0  0  0  0
   21.2533   -3.7275   51.7045 C   0  0  1  0  0  0  0  0  0  0  0  0
   20.6684   -4.6701   50.6019 C   0  0  1  0  0  0  0  0  0  0  0  0
   20.6899   -6.1275   51.0056 C   0  0  0  0  0  0  0  0  0  0  0  0
   22.7164   -4.0121   51.9539 N   0  0  0  0  0  0  0  0  0  0  0  0
   19.2494   -4.3353   50.4322 O   0  0  0  0  0  0  0  0  0  0  0  0
   19.4316   -0.6534   50.4109 O   0  0  0  0  0  0  0  0  0  0  0  0
   21.5873   -1.3585   52.2284 O   0  0  0  0  0  0  0  0  0  0  0  0
   19.7618   -6.4058   51.9975 O   0  0  0  0  0  0  0  0  0  0  0  0
   16.1359   -4.4598   42.8429 C   0  0  1  0  0  0  0  0  0  0  0  0
   15.8007   -5.4437   41.6654 C   0  0  1  0  0  0  0  0  0  0  0  0
   16.6666   -5.0536   40.4138 C   0  0  2  0  0  0  0  0  0  0  0  0
   16.3285   -3.6162   39.9902 C   0  0  1  0  0  0  0  0  0  0  0  0
   16.6790   -2.6278   41.1685 C   0  0  0  0  0  0  0  0  0  0  0  0
   15.8212   -3.0275   42.4329 C   0  0  2  0  0  0  0  0  0  0  0  0
   17.1217   -3.2745   38.8210 N   0  0  0  0  0  0  0  0  0  0  0  0
   16.1392   -2.1311   43.5755 N   0  0  0  0  0  0  0  0  0  0  0  0
   16.1192   -6.8083   42.0628 O   0  0  0  0  0  0  0  0  0  0  0  0
   16.3567   -5.9186   39.3536 O   0  0  0  0  0  0  0  0  0  0  0  0
  1  2  1  0  0  0  0
  1 12  1  1  0  0  0
  1 13  1  0  0  0  0
  2  3  1  0  0  0  0
  2 10  1  6  0  0  0
  4  3  1  6  0  0  0
  4  5  1  0  0  0  0
  4 14  1  0  0  0  0
  5  6  1  0  0  0  0
  5 13  1  6  0  0  0
  6  7  1  0  0  0  0
  6 15  1  1  0  0  0
  7  8  1  0  0  0  0
  7 11  1  1  0  0  0
  8 14  1  0  0  0  0
  8 16  1  1  0  0  0
  9 11  1  0  0  0  0
 17 16  1  6  0  0  0
 17 18  1  0  0  0  0
 17 24  1  0  0  0  0
 18 19  1  0  0  0  0
 18 25  1  6  0  0  0
 19 20  1  0  0  0  0
 19 26  1  1  0  0  0
 20 21  1  0  0  0  0
 20 23  1  6  0  0  0
 21 22  1  1  0  0  0
 21 24  1  0  0  0  0
 22 27  1  0  0  0  0
 28 12  1  1  0  0  0
 28 29  1  0  0  0  0
 28 33  1  0  0  0  0
 29 30  1  0  0  0  0
 29 36  1  1  0  0  0
 30 31  1  0  0  0  0
 30 37  1  6  0  0  0
 31 32  1  0  0  0  0
 31 34  1  6  0  0  0
 32 33  1  0  0  0  0
 33 35  1  1  0  0  0
M  END
>  <CHROM.1>
164.92074768,68.63077029,-178.94712079,169.99396781,71.01135521,74.27717799
18.27239425,-4.26884604,46.35744642,2.14788822,-0.66362703,-1.32172476

>  <Name>
2oe5_lig

>  <RI>
0

>  <Rbt.Current_Directory>
/home/itssahil/PROJECTS/Mol_Feturizer/New_Systems/rnas/2oe5

>  <Rbt.Executable>
rbdock ($Id: //depot/dev/client3/rdock/2013.1/src/exe/rbdock.cxx#4 $)

>  <Rbt.Library>
libRbt.so (2013.1, Build901 2013/11/27)

>  <Rbt.Parameter_File>
/export/apps/rDock/src/rDock_2013.1_src/data/scripts/dock_solv.prm

>  <Rbt.Receptor>
prm/blind_docking_80.prm

>  <SCORE>
-28.8014

>  <SCORE.INTER>
-23.8666

>  <SCORE.INTER.CONST>
1

>  <SCORE.INTER.POLAR>
-2.70369

>  <SCORE.INTER.ROT>
6

>  <SCORE.INTER.SOLV>
18.4235

>  <SCORE.INTER.VDW>
-20.6399

>  <SCORE.INTER.norm>
-0.645043

>  <SCORE.INTRA>
-4.93478

>  <SCORE.INTRA.DIHEDRAL>
-13.1379

>  <SCORE.INTRA.DIHEDRAL.0>
16.2083

>  <SCORE.INTRA.POLAR>
0

>  <SCORE.INTRA.POLAR.0>
0

>  <SCORE.INTRA.REPUL>
0

>  <SCORE.INTRA.REPUL.0>
0

>  <SCORE.INTRA.SOLV>
-2.05551

>  <SCORE.INTRA.SOLV.lig_0>
-89.8095

>  <SCORE.INTRA.VDW>
2.66192

>  <SCORE.INTRA.VDW.0>
-3.19502

>  <SCORE.INTRA.norm>
-0.133372

>  <SCORE.RESTR>
0

>  <SCORE.RESTR.CAVITY>
0

>  <SCORE.RESTR.norm>
0

>  <SCORE.SYSTEM>
0

>  <SCORE.SYSTEM.CONST>
0

>  <SCORE.SYSTEM.DIHEDRAL>
0

>  <SCORE.SYSTEM.SOLV>
0

>  <SCORE.SYSTEM.norm>
0

>  <SCORE.heavy>
37

>  <SCORE.norm>
-0.778415

>  <RMSD>
11.538

$$$$
2oe5_lig
 OpenBabel11021811463D
libRbt.so/2013.1/901 2013/11/27
 37 40  0  0  0  0  0  0  0  0999 V2000
   15.1528   -6.1616   44.4281 C   0  0  1  0  0  0  0  0  0  0  0  0
   15.0540   -7.1237   45.6331 C   0  0  1  0  0  0  0  0  0  0  0  0
   15.5116   -6.3713   46.9375 C   0  0  0  0  0  0  0  0  0  0  0  0
   16.9651   -5.9251   46.6624 C   0  0  1  0  0  0  0  0  0  0  0  0
   17.0486   -4.9385   45.4150 C   0  0  1  0  0  0  0  0  0  0  0  0
   18.5015   -4.4719   45.1256 C   0  0  1  0  0  0  0  0  0  0  0  0
   19.0082   -3.7532   46.4083 C   0  0  1  0  0  0  0  0  0  0  0  0
   18.8666   -4.7471   47.6230 C   0  0  2  0  0  0  0  0  0  0  0  0
   21.5490   -4.3213   46.1174 C   0  0  0  0  0  0  0  0  0  0  0  0
   13.6572   -7.5883   45.7963 N   0  0  0  0  0  0  0  0  0  0  0  0
   20.4419   -3.3087   46.2308 N   0  0  0  0  0  0  0  0  0  0  0  0
   14.2703   -5.0358   44.5654 O   0  0  0  0  0  0  0  0  0  0  0  0
   16.5150   -5.6385   44.2448 O   0  0  0  0  0  0  0  0  0  0  0  0
   17.4818   -5.2172   47.8210 O   0  0  0  0  0  0  0  0  0  0  0  0
   19.2844   -5.6307   44.8220 O   0  0  0  0  0  0  0  0  0  0  0  0
   19.2596   -4.1060   48.8204 O   0  0  0  0  0  0  0  0  0  0  0  0
   19.2745   -5.0338   49.8890 C   0  0  2  0  0  0  0  0  0  0  0  0
   19.3989   -4.3499   51.2500 C   0  0  1  0  0  0  0  0  0  0  0  0
   20.7569   -3.6075   51.3829 C   0  0  2  0  0  0  0  0  0  0  0  0
   21.8877   -4.6535   51.1524 C   0  0  1  0  0  0  0  0  0  0  0  0
   21.7046   -5.2625   49.7235 C   0  0  1  0  0  0  0  0  0  0  0  0
   22.7236   -6.3351   49.4090 C   0  0  0  0  0  0  0  0  0  0  0  0
   23.2143   -3.9413   51.2825 N   0  0  0  0  0  0  0  0  0  0  0  0
   20.4035   -5.9409   49.6884 O   0  0  0  0  0  0  0  0  0  0  0  0
   18.2968   -3.4293   51.3747 O   0  0  0  0  0  0  0  0  0  0  0  0
   20.8499   -3.0838   52.7201 O   0  0  0  0  0  0  0  0  0  0  0  0
   22.5757   -6.8312   48.1227 O   0  0  0  0  0  0  0  0  0  0  0  0
   14.2086   -4.1972   43.4114 C   0  0  1  0  0  0  0  0  0  0  0  0
   13.0643   -4.6895   42.4547 C   0  0  1  0  0  0  0  0  0  0  0  0
   13.0074   -3.7446   41.2008 C   0  0  2  0  0  0  0  0  0  0  0  0
   12.7076   -2.3094   41.6594 C   0  0  1  0  0  0  0  0  0  0  0  0
   13.8649   -1.8114   42.6086 C   0  0  0  0  0  0  0  0  0  0  0  0
   13.9345   -2.7689   43.8627 C   0  0  2  0  0  0  0  0  0  0  0  0
   12.6390   -1.4495   40.4894 N   0  0  0  0  0  0  0  0  0  0  0  0
   15.0302   -2.3456   44.7738 N   0  0  0  0  0  0  0  0  0  0  0  0
   13.3441   -6.0505   42.0178 O   0  0  0  0  0  0  0  0  0  0  0  0
   11.9742   -4.1697   40.3522 O   0  0  0  0  0  0  0  0  0  0  0  0
  1  2  1  0  0  0  0
  1 12  1  1  0  0  0
  1 13  1  0  0  0  0
  2  3  1  0  0  0  0
  2 10  1  1  0  0  0
  4  3  1  1  0  0  0
  4  5  1  0  0  0  0
  4 14  1  0  0  0  0
  5  6  1  0  0  0  0
  5 13  1  6  0  0  0
  6  7  1  0  0  0  0
  6 15  1  1  0  0  0
  7  8  1  0  0  0  0
  7 11  1  6  0  0  0
  8 14  1  0  0  0  0
  8 16  1  1  0  0  0
  9 11  1  0  0  0  0
 17 16  1  6  0  0  0
 17 18  1  0  0  0  0
 17 24  1  0  0  0  0
 18 19  1  0  0  0  0
 18 25  1  6  0  0  0
 19 20  1  0  0  0  0
 19 26  1  1  0  0  0
 20 21  1  0  0  0  0
 20 23  1  6  0  0  0
 21 22  1  1  0  0  0
 21 24  1  0  0  0  0
 22 27  1  0  0  0  0
 28 12  1  1  0  0  0
 28 29  1  0  0  0  0
 28 33  1  0  0  0  0
 29 30  1  0  0  0  0
 29 36  1  6  0  0  0
 30 31  1  0  0  0  0
 30 37  1  6  0  0  0
 31 32  1  0  0  0  0
 31 34  1  6  0  0  0
 32 33  1  0  0  0  0
 33 35  1  1  0  0  0
M  END
>  <CHROM.1>
-173.15166464,-67.36861101,-173.61647842,-167.80666944,-177.92700486,90.30233454
17.41896981,-4.62142260,46.38273781,-2.93183584,-0.77078351,0.38101602

>  <Name>
2oe5_lig

>  <RI>
0

>  <Rbt.Current_Directory>
/home/itssahil/PROJECTS/Mol_Feturizer/New_Systems/rnas/2oe5

>  <Rbt.Executable>
rbdock ($Id: //depot/dev/client3/rdock/2013.1/src/exe/rbdock.cxx#4 $)

>  <Rbt.Library>
libRbt.so (2013.1, Build901 2013/11/27)

>  <Rbt.Parameter_File>
/export/apps/rDock/src/rDock_2013.1_src/data/scripts/dock_solv.prm

>  <Rbt.Receptor>
prm/blind_docking_80.prm

>  <SCORE>
-26.0292

>  <SCORE.INTER>
-20.6947

>  <SCORE.INTER.CONST>
1

>  <SCORE.INTER.POLAR>
-2.98393

>  <SCORE.INTER.ROT>
6

>  <SCORE.INTER.SOLV>
16.5043

>  <SCORE.INTER.VDW>
-16.9515

>  <SCORE.INTER.norm>
-0.559317

>  <SCORE.INTRA>
-5.33448

>  <SCORE.INTRA.DIHEDRAL>
-11.2657

>  <SCORE.INTRA.DIHEDRAL.0>
16.2083

>  <SCORE.INTRA.POLAR>
0

>  <SCORE.INTRA.POLAR.0>
0

>  <SCORE.INTRA.REPUL>
0

>  <SCORE.INTRA.REPUL.0>
0

>  <SCORE.INTRA.SOLV>
-1.24774

>  <SCORE.INTRA.SOLV.lig_0>
-89.8095

>  <SCORE.INTRA.VDW>
0.922264

>  <SCORE.INTRA.VDW.0>
-3.19502

>  <SCORE.INTRA.norm>
-0.144175

>  <SCORE.RESTR>
0

>  <SCORE.RESTR.CAVITY>
0

>  <SCORE.RESTR.norm>
0

>  <SCORE.SYSTEM>
0

>  <SCORE.SYSTEM.CONST>
0

>  <SCORE.SYSTEM.DIHEDRAL>
0

>  <SCORE.SYSTEM.SOLV>
0

>  <SCORE.SYSTEM.norm>
0

>  <SCORE.heavy>
37

>  <SCORE.norm>
-0.703492

>  <RMSD>
11.553

$$$$
2oe5_lig
 OpenBabel11021811463D
libRbt.so/2013.1/901 2013/11/27
 37 40  0  0  0  0  0  0  0  0999 V2000
   14.7963   -6.1960   44.6742 C   0  0  1  0  0  0  0  0  0  0  0  0
   14.5319   -6.9662   45.9873 C   0  0  1  0  0  0  0  0  0  0  0  0
   15.1087   -6.1421   47.1979 C   0  0  0  0  0  0  0  0  0  0  0  0
   16.6177   -5.9873   46.9039 C   0  0  1  0  0  0  0  0  0  0  0  0
   16.8713   -5.1960   45.5452 C   0  0  1  0  0  0  0  0  0  0  0  0
   18.3831   -5.0229   45.2344 C   0  0  1  0  0  0  0  0  0  0  0  0
   19.0026   -4.2429   46.4289 C   0  0  1  0  0  0  0  0  0  0  0  0
   18.6905   -5.0355   47.7546 C   0  0  2  0  0  0  0  0  0  0  0  0
   21.2296   -2.9469   46.9013 C   0  0  0  0  0  0  0  0  0  0  0  0
   13.0759   -7.1629   46.1741 N   0  0  0  0  0  0  0  0  0  0  0  0
   20.4915   -4.0739   46.2313 N   0  0  0  0  0  0  0  0  0  0  0  0
   14.1191   -4.9289   44.6484 O   0  0  0  0  0  0  0  0  0  0  0  0
   16.2283   -5.9388   44.4594 O   0  0  0  0  0  0  0  0  0  0  0  0
   17.2454   -5.2353   47.9768 O   0  0  0  0  0  0  0  0  0  0  0  0
   18.9571   -6.3266   45.0969 O   0  0  0  0  0  0  0  0  0  0  0  0
   19.1848   -4.3231   48.8714 O   0  0  0  0  0  0  0  0  0  0  0  0
   19.2593   -5.1741   49.9998 C   0  0  2  0  0  0  0  0  0  0  0  0
   19.3901   -4.3942   51.3076 C   0  0  1  0  0  0  0  0  0  0  0  0
   20.7224   -3.5968   51.3544 C   0  0  2  0  0  0  0  0  0  0  0  0
   21.8854   -4.6154   51.1662 C   0  0  1  0  0  0  0  0  0  0  0  0
   21.6916   -5.3273   49.7871 C   0  0  1  0  0  0  0  0  0  0  0  0
   22.7420   -6.3822   49.5198 C   0  0  0  0  0  0  0  0  0  0  0  0
   23.1874   -3.8494   51.2132 N   0  0  0  0  0  0  0  0  0  0  0  0
   20.4162   -6.0523   49.8319 O   0  0  0  0  0  0  0  0  0  0  0  0
   18.2578   -3.5068   51.3980 O   0  0  0  0  0  0  0  0  0  0  0  0
   20.8272   -2.9793   52.6501 O   0  0  0  0  0  0  0  0  0  0  0  0
   24.0101   -5.8342   49.3998 O   0  0  0  0  0  0  0  0  0  0  0  0
   14.3518   -4.1655   43.4645 C   0  0  1  0  0  0  0  0  0  0  0  0
   13.4559   -4.7090   42.2944 C   0  0  1  0  0  0  0  0  0  0  0  0
   13.7195   -3.8460   41.0083 C   0  0  2  0  0  0  0  0  0  0  0  0
   13.3527   -2.3821   41.2949 C   0  0  1  0  0  0  0  0  0  0  0  0
   14.2631   -1.8334   42.4604 C   0  0  0  0  0  0  0  0  0  0  0  0
   14.0115   -2.7092   43.7505 C   0  0  2  0  0  0  0  0  0  0  0  0
   13.5830   -1.5983   40.0925 N   0  0  0  0  0  0  0  0  0  0  0  0
   14.8694   -2.2371   44.8689 N   0  0  0  0  0  0  0  0  0  0  0  0
   13.8000   -6.0974   42.0196 O   0  0  0  0  0  0  0  0  0  0  0  0
   12.9074   -4.3164   39.9655 O   0  0  0  0  0  0  0  0  0  0  0  0
  1  2  1  0  0  0  0
  1 12  1  1  0  0  0
  1 13  1  0  0  0  0
  2  3  1  0  0  0  0
  2 10  1  1  0  0  0
  4  3  1  1  0  0  0
  4  5  1  0  0  0  0
  4 14  1  0  0  0  0
  5  6  1  0  0  0  0
  5 13  1  6  0  0  0
  6  7  1  0  0  0  0
  6 15  1  1  0  0  0
  7  8  1  0  0  0  0
  7 11  1  6  0  0  0
  8 14  1  0  0  0  0
  8 16  1  1  0  0  0
  9 11  1  0  0  0  0
 17 16  1  6  0  0  0
 17 18  1  0  0  0  0
 17 24  1  0  0  0  0
 18 19  1  0  0  0  0
 18 25  1  6  0  0  0
 19 20  1  0  0  0  0
 19 26  1  1  0  0  0
 20 21  1  0  0  0  0
 20 23  1  6  0  0  0
 21 22  1  1  0  0  0
 21 24  1  0  0  0  0
 22 27  1  0  0  0  0
 28 12  1  1  0  0  0
 28 29  1  0  0  0  0
 28 33  1  0  0  0  0
 29 30  1  0  0  0  0
 29 36  1  6  0  0  0
 30 31  1  0  0  0  0
 30 37  1  6  0  0  0
 31 32  1  0  0  0  0
 31 34  1  6  0  0  0
 32 33  1  0  0  0  0
 33 35  1  1  0  0  0
M  END
>  <CHROM.1>
178.87704198,155.76693125,-163.29917485,-163.36792304,-64.94162686,79.11495760
17.47273429,-4.64319842,46.48203776,2.41592993,-0.42129652,-1.07267197

>  <Name>
2oe5_lig

>  <RI>
0

>  <Rbt.Current_Directory>
/home/itssahil/PROJECTS/Mol_Feturizer/New_Systems/rnas/2oe5

>  <Rbt.Executable>
rbdock ($Id: //depot/dev/client3/rdock/2013.1/src/exe/rbdock.cxx#4 $)

>  <Rbt.Library>
libRbt.so (2013.1, Build901 2013/11/27)

>  <Rbt.Parameter_File>
/export/apps/rDock/src/rDock_2013.1_src/data/scripts/dock_solv.prm

>  <Rbt.Receptor>
prm/blind_docking_100.prm

>  <SCORE>
-25.2505

>  <SCORE.INTER>
-18.9465

>  <SCORE.INTER.CONST>
1

>  <SCORE.INTER.POLAR>
-2.82637

>  <SCORE.INTER.ROT>
6

>  <SCORE.INTER.SOLV>
18.5422

>  <SCORE.INTER.VDW>
-16.9905

>  <SCORE.INTER.norm>
-0.512067

>  <SCORE.INTRA>
-6.30401

>  <SCORE.INTRA.DIHEDRAL>
-11.3749

>  <SCORE.INTRA.DIHEDRAL.0>
16.2083

>  <SCORE.INTRA.POLAR>
0

>  <SCORE.INTRA.POLAR.0>
0

>  <SCORE.INTRA.REPUL>
0

>  <SCORE.INTRA.REPUL.0>
0

>  <SCORE.INTRA.SOLV>
-1.41151

>  <SCORE.INTRA.SOLV.lig_0>
-89.8095

>  <SCORE.INTRA.VDW>
0.0892212

>  <SCORE.INTRA.VDW.0>
-3.19502

>  <SCORE.INTRA.norm>
-0.170379

>  <SCORE.RESTR>
0

>  <SCORE.RESTR.CAVITY>
0

>  <SCORE.RESTR.norm>
0

>  <SCORE.SYSTEM>
0

>  <SCORE.SYSTEM.CONST>
0

>  <SCORE.SYSTEM.DIHEDRAL>
0

>  <SCORE.SYSTEM.SOLV>
0

>  <SCORE.SYSTEM.norm>
0

>  <SCORE.heavy>
37

>  <SCORE.norm>
-0.682445

>  <RMSD>
11.560

$$$$
2oe5_lig
 OpenBabel11021811463D
libRbt.so/2013.1/901 2013/11/27
 37 40  0  0  0  0  0  0  0  0999 V2000
   15.3905   -5.5104   44.1076 C   0  0  1  0  0  0  0  0  0  0  0  0
   14.8363   -6.1968   45.3760 C   0  0  1  0  0  0  0  0  0  0  0  0
   15.3417   -5.4214   46.6491 C   0  0  0  0  0  0  0  0  0  0  0  0
   16.8840   -5.4813   46.5776 C   0  0  1  0  0  0  0  0  0  0  0  0
   17.4371   -4.7739   45.2623 C   0  0  1  0  0  0  0  0  0  0  0  0
   18.9872   -4.8166   45.1745 C   0  0  1  0  0  0  0  0  0  0  0  0
   19.5305   -4.0911   46.4383 C   0  0  1  0  0  0  0  0  0  0  0  0
   18.9247   -4.7930   47.7125 C   0  0  2  0  0  0  0  0  0  0  0  0
   21.8328   -2.9349   46.9132 C   0  0  0  0  0  0  0  0  0  0  0  0
   13.3555   -6.1888   45.3496 N   0  0  0  0  0  0  0  0  0  0  0  0
   21.0413   -4.1313   46.4592 N   0  0  0  0  0  0  0  0  0  0  0  0
   14.9059   -4.1647   43.9692 O   0  0  0  0  0  0  0  0  0  0  0  0
   16.8601   -5.4560   44.1021 O   0  0  0  0  0  0  0  0  0  0  0  0
   17.4490   -4.7884   47.7228 O   0  0  0  0  0  0  0  0  0  0  0  0
   19.3889   -6.1896   45.1366 O   0  0  0  0  0  0  0  0  0  0  0  0
   19.3472   -4.1198   48.8819 O   0  0  0  0  0  0  0  0  0  0  0  0
   19.3871   -5.0179   49.9751 C   0  0  2  0  0  0  0  0  0  0  0  0
   19.4664   -4.2939   51.3186 C   0  0  1  0  0  0  0  0  0  0  0  0
   20.7910   -3.4927   51.4468 C   0  0  2  0  0  0  0  0  0  0  0  0
   21.9666   -4.4966   51.2572 C   0  0  1  0  0  0  0  0  0  0  0  0
   21.8264   -5.1499   49.8431 C   0  0  1  0  0  0  0  0  0  0  0  0
   22.8924   -6.1872   49.5689 C   0  0  0  0  0  0  0  0  0  0  0  0
   23.2611   -3.7268   51.3832 N   0  0  0  0  0  0  0  0  0  0  0  0
   20.5549   -5.8824   49.8115 O   0  0  0  0  0  0  0  0  0  0  0  0
   18.3259   -3.4168   51.4061 O   0  0  0  0  0  0  0  0  0  0  0  0
   20.8458   -2.9306   52.7705 O   0  0  0  0  0  0  0  0  0  0  0  0
   22.8157   -6.6821   48.2759 O   0  0  0  0  0  0  0  0  0  0  0  0
   14.3267   -3.8798   42.6956 C   0  0  1  0  0  0  0  0  0  0  0  0
   13.5711   -2.5039   42.7487 C   0  0  1  0  0  0  0  0  0  0  0  0
   12.9547   -2.2066   41.3345 C   0  0  2  0  0  0  0  0  0  0  0  0
   14.0828   -2.1301   40.2946 C   0  0  1  0  0  0  0  0  0  0  0  0
   14.8314   -3.5171   40.2322 C   0  0  0  0  0  0  0  0  0  0  0  0
   15.4389   -3.8258   41.6570 C   0  0  2  0  0  0  0  0  0  0  0  0
   13.5016   -1.8362   38.9950 N   0  0  0  0  0  0  0  0  0  0  0  0
   16.1360   -5.1388   41.6464 N   0  0  0  0  0  0  0  0  0  0  0  0
   12.5007   -2.5716   43.7342 O   0  0  0  0  0  0  0  0  0  0  0  0
   12.2945   -0.9693   41.3724 O   0  0  0  0  0  0  0  0  0  0  0  0
  1  2  1  0  0  0  0
  1 12  1  1  0  0  0
  1 13  1  0  0  0  0
  2  3  1  0  0  0  0
  2 10  1  6  0  0  0
  4  3  1  1  0  0  0
  4  5  1  0  0  0  0
  4 14  1  0  0  0  0
  5  6  1  0  0  0  0
  5 13  1  6  0  0  0
  6  7  1  0  0  0  0
  6 15  1  1  0  0  0
  7  8  1  0  0  0  0
  7 11  1  1  0  0  0
  8 14  1  0  0  0  0
  8 16  1  1  0  0  0
  9 11  1  0  0  0  0
 17 16  1  6  0  0  0
 17 18  1  0  0  0  0
 17 24  1  0  0  0  0
 18 19  1  0  0  0  0
 18 25  1  6  0  0  0
 19 20  1  0  0  0  0
 19 26  1  1  0  0  0
 20 21  1  0  0  0  0
 20 23  1  6  0  0  0
 21 22  1  1  0  0  0
 21 24  1  0  0  0  0
 22 27  1  0  0  0  0
 28 12  1  1  0  0  0
 28 29  1  0  0  0  0
 28 33  1  0  0  0  0
 29 30  1  0  0  0  0
 29 36  1  1  0  0  0
 30 31  1  0  0  0  0
 30 37  1  1  0  0  0
 31 32  1  0  0  0  0
 31 34  1  6  0  0  0
 32 33  1  0  0  0  0
 33 35  1  6  0  0  0
M  END
>  <CHROM.1>
-128.11242510,140.50185379,-151.94201694,-164.60687321,-175.40364927,168.31055511
17.67679609,-4.29278369,46.19148145,-2.31627106,-0.29130388,1.47277487

>  <Name>
2oe5_lig

>  <RI>
0

>  <Rbt.Current_Directory>
/home/itssahil/PROJECTS/Mol_Feturizer/New_Systems/rnas/2oe5

>  <Rbt.Executable>
rbdock ($Id: //depot/dev/client3/rdock/2013.1/src/exe/rbdock.cxx#4 $)

>  <Rbt.Library>
libRbt.so (2013.1, Build901 2013/11/27)

>  <Rbt.Parameter_File>
/export/apps/rDock/src/rDock_2013.1_src/data/scripts/dock_solv.prm

>  <Rbt.Receptor>
prm/blind_docking_60.prm

>  <SCORE>
-14.1309

>  <SCORE.INTER>
-13.4181

>  <SCORE.INTER.CONST>
1

>  <SCORE.INTER.POLAR>
-1.25636

>  <SCORE.INTER.ROT>
6

>  <SCORE.INTER.SOLV>
10.0066

>  <SCORE.INTER.VDW>
-15.6931

>  <SCORE.INTER.norm>
-0.362652

>  <SCORE.INTRA>
-0.712791

>  <SCORE.INTRA.DIHEDRAL>
-3.3922

>  <SCORE.INTRA.DIHEDRAL.0>
16.2083

>  <SCORE.INTRA.POLAR>
0

>  <SCORE.INTRA.POLAR.0>
0

>  <SCORE.INTRA.REPUL>
0

>  <SCORE.INTRA.REPUL.0>
0

>  <SCORE.INTRA.SOLV>
0.272783

>  <SCORE.INTRA.SOLV.lig_0>
-89.8095

>  <SCORE.INTRA.VDW>
0.846917

>  <SCORE.INTRA.VDW.0>
-3.19502

>  <SCORE.INTRA.norm>
-0.0192646

>  <SCORE.RESTR>
0

>  <SCORE.RESTR.CAVITY>
0

>  <SCORE.RESTR.norm>
0

>  <SCORE.SYSTEM>
0

>  <SCORE.SYSTEM.CONST>
0

>  <SCORE.SYSTEM.DIHEDRAL>
0

>  <SCORE.SYSTEM.SOLV>
0

>  <SCORE.SYSTEM.norm>
0

>  <SCORE.heavy>
37

>  <SCORE.norm>
-0.381916

>  <RMSD>
11.569

$$$$
2oe5_lig
 OpenBabel11021811463D
libRbt.so/2013.1/901 2013/11/27
 37 40  0  0  0  0  0  0  0  0999 V2000
   15.6759   -6.4339   44.5567 C   0  0  1  0  0  0  0  0  0  0  0  0
   15.0606   -6.6908   45.9505 C   0  0  1  0  0  0  0  0  0  0  0  0
   15.7110   -5.7088   46.9944 C   0  0  0  0  0  0  0  0  0  0  0  0
   17.2245   -6.0175   46.9569 C   0  0  1  0  0  0  0  0  0  0  0  0
   17.8406   -5.7520   45.5125 C   0  0  1  0  0  0  0  0  0  0  0  0
   19.3639   -6.0495   45.4549 C   0  0  1  0  0  0  0  0  0  0  0  0
   20.0441   -5.1233   46.5028 C   0  0  1  0  0  0  0  0  0  0  0  0
   19.3756   -5.3858   47.9055 C   0  0  2  0  0  0  0  0  0  0  0  0
   22.0783   -6.5646   47.3075 C   0  0  0  0  0  0  0  0  0  0  0  0
   13.5974   -6.4655   45.9069 N   0  0  0  0  0  0  0  0  0  0  0  0
   21.5320   -5.3854   46.5494 N   0  0  0  0  0  0  0  0  0  0  0  0
   15.3941   -5.1076   44.0808 O   0  0  0  0  0  0  0  0  0  0  0  0
   17.1365   -6.6059   44.5537 O   0  0  0  0  0  0  0  0  0  0  0  0
   17.9180   -5.1553   47.8983 O   0  0  0  0  0  0  0  0  0  0  0  0
   19.5549   -7.4333   45.7661 O   0  0  0  0  0  0  0  0  0  0  0  0
   19.9260   -4.5148   48.8738 O   0  0  0  0  0  0  0  0  0  0  0  0
   20.0255   -5.1731   50.1227 C   0  0  2  0  0  0  0  0  0  0  0  0
   19.4106   -4.3576   51.2595 C   0  0  1  0  0  0  0  0  0  0  0  0
   20.1831   -3.0276   51.4774 C   0  0  2  0  0  0  0  0  0  0  0  0
   21.6709   -3.3904   51.7610 C   0  0  1  0  0  0  0  0  0  0  0  0
   22.2238   -4.1791   50.5288 C   0  0  1  0  0  0  0  0  0  0  0  0
   23.6549   -4.6308   50.7166 C   0  0  0  0  0  0  0  0  0  0  0  0
   22.4311   -2.1023   51.9776 N   0  0  0  0  0  0  0  0  0  0  0  0
   21.4410   -5.4139   50.3987 O   0  0  0  0  0  0  0  0  0  0  0  0
   18.0350   -4.1010   50.9139 O   0  0  0  0  0  0  0  0  0  0  0  0
   19.6203   -2.3681   52.6261 O   0  0  0  0  0  0  0  0  0  0  0  0
   24.5359   -3.5609   50.7617 O   0  0  0  0  0  0  0  0  0  0  0  0
   16.1882   -4.7060   42.9642 C   0  0  1  0  0  0  0  0  0  0  0  0
   15.7660   -5.5200   41.6890 C   0  0  1  0  0  0  0  0  0  0  0  0
   16.6432   -5.0517   40.4726 C   0  0  2  0  0  0  0  0  0  0  0  0
   16.4082   -3.5542   40.2235 C   0  0  1  0  0  0  0  0  0  0  0  0
   16.8460   -2.7369   41.4997 C   0  0  0  0  0  0  0  0  0  0  0  0
   15.9763   -3.2168   42.7276 C   0  0  2  0  0  0  0  0  0  0  0  0
   17.2104   -3.1381   39.0849 N   0  0  0  0  0  0  0  0  0  0  0  0
   16.3743   -2.4843   43.9584 N   0  0  0  0  0  0  0  0  0  0  0  0
   15.9866   -6.9410   41.9209 O   0  0  0  0  0  0  0  0  0  0  0  0
   16.2567   -5.7634   39.3269 O   0  0  0  0  0  0  0  0  0  0  0  0
  1  2  1  0  0  0  0
  1 12  1  1  0  0  0
  1 13  1  0  0  0  0
  2  3  1  0  0  0  0
  2 10  1  6  0  0  0
  4  3  1  6  0  0  0
  4  5  1  0  0  0  0
  4 14  1  0  0  0  0
  5  6  1  0  0  0  0
  5 13  1  6  0  0  0
  6  7  1  0  0  0  0
  6 15  1  1  0  0  0
  7  8  1  0  0  0  0
  7 11  1  1  0  0  0
  8 14  1  0  0  0  0
  8 16  1  1  0  0  0
  9 11  1  0  0  0  0
 17 16  1  6  0  0  0
 17 18  1  0  0  0  0
 17 24  1  0  0  0  0
 18 19  1  0  0  0  0
 18 25  1  6  0  0  0
 19 20  1  0  0  0  0
 19 26  1  1  0  0  0
 20 21  1  0  0  0  0
 20 23  1  6  0  0  0
 21 22  1  1  0  0  0
 21 24  1  0  0  0  0
 22 27  1  0  0  0  0
 28 12  1  1  0  0  0
 28 29  1  0  0  0  0
 28 33  1  0  0  0  0
 29 30  1  0  0  0  0
 29 36  1  1  0  0  0
 30 31  1  0  0  0  0
 30 37  1  6  0  0  0
 31 32  1  0  0  0  0
 31 34  1  6  0  0  0
 32 33  1  0  0  0  0
 33 35  1  1  0  0  0
M  END
>  <CHROM.1>
165.88959241,-79.60792509,-144.17437172,-129.34666363,-66.90997805,69.82819646
18.52123608,-4.87446863,46.44267873,2.11389426,-0.19578083,-1.56452275

>  <Name>
2oe5_lig

>  <RI>
0

>  <Rbt.Current_Directory>
/home/itssahil/PROJECTS/Mol_Feturizer/New_Systems/rnas/2oe5

>  <Rbt.Executable>
rbdock ($Id: //depot/dev/client3/rdock/2013.1/src/exe/rbdock.cxx#4 $)

>  <Rbt.Library>
libRbt.so (2013.1, Build901 2013/11/27)

>  <Rbt.Parameter_File>
/export/apps/rDock/src/rDock_2013.1_src/data/scripts/dock_solv.prm

>  <Rbt.Receptor>
prm/blind_docking_80.prm

>  <SCORE>
-23.598

>  <SCORE.INTER>
-23.2096

>  <SCORE.INTER.CONST>
1

>  <SCORE.INTER.POLAR>
-3.7788

>  <SCORE.INTER.ROT>
6

>  <SCORE.INTER.SOLV>
15.5131

>  <SCORE.INTER.VDW>
-15.6481

>  <SCORE.INTER.norm>
-0.627285

>  <SCORE.INTRA>
-0.388488

>  <SCORE.INTRA.DIHEDRAL>
-2.83994

>  <SCORE.INTRA.DIHEDRAL.0>
16.2083

>  <SCORE.INTRA.POLAR>
0

>  <SCORE.INTRA.POLAR.0>
0

>  <SCORE.INTRA.REPUL>
0

>  <SCORE.INTRA.REPUL.0>
0

>  <SCORE.INTRA.SOLV>
-1.28332

>  <SCORE.INTRA.SOLV.lig_0>
-89.8095

>  <SCORE.INTRA.VDW>
1.67314

>  <SCORE.INTRA.VDW.0>
-3.19502

>  <SCORE.INTRA.norm>
-0.0104997

>  <SCORE.RESTR>
0

>  <SCORE.RESTR.CAVITY>
0

>  <SCORE.RESTR.norm>
0

>  <SCORE.SYSTEM>
0

>  <SCORE.SYSTEM.CONST>
0

>  <SCORE.SYSTEM.DIHEDRAL>
0

>  <SCORE.SYSTEM.SOLV>
0

>  <SCORE.SYSTEM.norm>
0

>  <SCORE.heavy>
37

>  <SCORE.norm>
-0.637785

>  <RMSD>
11.579

$$$$
2oe5_lig
 OpenBabel11021811463D
libRbt.so/2013.1/901 2013/11/27
 37 40  0  0  0  0  0  0  0  0999 V2000
   15.6210   -6.5439   44.4766 C   0  0  1  0  0  0  0  0  0  0  0  0
   14.8703   -6.8911   45.7817 C   0  0  1  0  0  0  0  0  0  0  0  0
   15.3624   -5.9377   46.9332 C   0  0  0  0  0  0  0  0  0  0  0  0
   16.8828   -6.1879   47.0482 C   0  0  1  0  0  0  0  0  0  0  0  0
   17.6393   -5.8297   45.6933 C   0  0  1  0  0  0  0  0  0  0  0  0
   19.1711   -6.0673   45.7900 C   0  0  1  0  0  0  0  0  0  0  0  0
   19.6948   -5.1687   46.9462 C   0  0  1  0  0  0  0  0  0  0  0  0
   18.8906   -5.5239   48.2541 C   0  0  2  0  0  0  0  0  0  0  0  0
   22.1746   -4.6825   46.2558 C   0  0  0  0  0  0  0  0  0  0  0  0
   13.4122   -6.7183   45.5880 N   0  0  0  0  0  0  0  0  0  0  0  0
   21.1786   -5.3774   47.1441 N   0  0  0  0  0  0  0  0  0  0  0  0
   15.3365   -5.2074   44.0320 O   0  0  0  0  0  0  0  0  0  0  0  0
   17.0793   -6.6613   44.6261 O   0  0  0  0  0  0  0  0  0  0  0  0
   17.4338   -5.3475   48.0974 O   0  0  0  0  0  0  0  0  0  0  0  0
   19.3856   -7.4566   46.0585 O   0  0  0  0  0  0  0  0  0  0  0  0
   19.2962   -4.6812   49.3146 O   0  0  0  0  0  0  0  0  0  0  0  0
   19.6023   -5.4522   50.4613 C   0  0  2  0  0  0  0  0  0  0  0  0
   19.8609   -4.5843   51.6924 C   0  0  1  0  0  0  0  0  0  0  0  0
   21.1183   -3.6933   51.4965 C   0  0  2  0  0  0  0  0  0  0  0  0
   22.3183   -4.6370   51.1881 C   0  0  1  0  0  0  0  0  0  0  0  0
   21.9817   -5.4461   49.8926 C   0  0  1  0  0  0  0  0  0  0  0  0
   23.0619   -6.4388   49.5249 C   0  0  0  0  0  0  0  0  0  0  0  0
   23.5482   -3.7794   50.9986 N   0  0  0  0  0  0  0  0  0  0  0  0
   20.7881   -6.2552   50.1666 O   0  0  0  0  0  0  0  0  0  0  0  0
   18.6874   -3.7752   51.9064 O   0  0  0  0  0  0  0  0  0  0  0  0
   21.3624   -2.9897   52.7279 O   0  0  0  0  0  0  0  0  0  0  0  0
   24.2488   -5.8110   49.1788 O   0  0  0  0  0  0  0  0  0  0  0  0
   16.1496   -4.7676   42.9438 C   0  0  1  0  0  0  0  0  0  0  0  0
   15.7537   -5.5410   41.6354 C   0  0  1  0  0  0  0  0  0  0  0  0
   16.6515   -5.0310   40.4512 C   0  0  2  0  0  0  0  0  0  0  0  0
   16.4161   -3.5269   40.2465 C   0  0  1  0  0  0  0  0  0  0  0  0
   16.8276   -2.7502   41.5563 C   0  0  0  0  0  0  0  0  0  0  0  0
   15.9371   -3.2721   42.7518 C   0  0  2  0  0  0  0  0  0  0  0  0
   17.2377   -3.0718   39.1370 N   0  0  0  0  0  0  0  0  0  0  0  0
   16.3100   -2.5788   44.0128 N   0  0  0  0  0  0  0  0  0  0  0  0
   15.9747   -6.9681   41.8251 O   0  0  0  0  0  0  0  0  0  0  0  0
   16.2885   -5.7062   39.2762 O   0  0  0  0  0  0  0  0  0  0  0  0
  1  2  1  0  0  0  0
  1 12  1  1  0  0  0
  1 13  1  0  0  0  0
  2  3  1  0  0  0  0
  2 10  1  6  0  0  0
  4  3  1  6  0  0  0
  4  5  1  0  0  0  0
  4 14  1  0  0  0  0
  5  6  1  0  0  0  0
  5 13  1  6  0  0  0
  6  7  1  0  0  0  0
  6 15  1  1  0  0  0
  7  8  1  0  0  0  0
  7 11  1  1  0  0  0
  8 14  1  0  0  0  0
  8 16  1  1  0  0  0
  9 11  1  0  0  0  0
 17 16  1  6  0  0  0
 17 18  1  0  0  0  0
 17 24  1  0  0  0  0
 18 19  1  0  0  0  0
 18 25  1  6  0  0  0
 19 20  1  0  0  0  0
 19 26  1  1  0  0  0
 20 21  1  0  0  0  0
 20 23  1  6  0  0  0
 21 22  1  1  0  0  0
 21 24  1  0  0  0  0
 22 27  1  0  0  0  0
 28 12  1  1  0  0  0
 28 29  1  0  0  0  0
 28 33  1  0  0  0  0
 29 30  1  0  0  0  0
 29 36  1  1  0  0  0
 30 31  1  0  0  0  0
 30 37  1  6  0  0  0
 31 32  1  0  0  0  0
 31 34  1  6  0  0  0
 32 33  1  0  0  0  0
 33 35  1  1  0  0  0
M  END
>  <CHROM.1>
171.34452910,80.99786887,-129.99118560,-172.14461072,-65.32454629,70.28527835
18.50216927,-5.15878688,46.38428011,2.13756832,-0.18698737,-1.47483775

>  <Name>
2oe5_lig

>  <RI>
0

>  <Rbt.Current_Directory>
/home/itssahil/PROJECTS/Mol_Feturizer/New_Systems/rnas/2oe5

>  <Rbt.Executable>
rbdock ($Id: //depot/dev/client3/rdock/2013.1/src/exe/rbdock.cxx#4 $)

>  <Rbt.Library>
libRbt.so (2013.1, Build901 2013/11/27)

>  <Rbt.Parameter_File>
/export/apps/rDock/src/rDock_2013.1_src/data/scripts/dock_solv.prm

>  <Rbt.Receptor>
prm/blind_docking_80.prm

>  <SCORE>
-25.1422

>  <SCORE.INTER>
-21.657

>  <SCORE.INTER.CONST>
1

>  <SCORE.INTER.POLAR>
-2.94606

>  <SCORE.INTER.ROT>
6

>  <SCORE.INTER.SOLV>
15.2206

>  <SCORE.INTER.VDW>
-17.2913

>  <SCORE.INTER.norm>
-0.585323

>  <SCORE.INTRA>
-3.48526

>  <SCORE.INTRA.DIHEDRAL>
-7.84338

>  <SCORE.INTRA.DIHEDRAL.0>
16.2083

>  <SCORE.INTRA.POLAR>
0

>  <SCORE.INTRA.POLAR.0>
0

>  <SCORE.INTRA.REPUL>
0

>  <SCORE.INTRA.REPUL.0>
0

>  <SCORE.INTRA.SOLV>
-0.157319

>  <SCORE.INTRA.SOLV.lig_0>
-89.8095

>  <SCORE.INTRA.VDW>
0.515085

>  <SCORE.INTRA.VDW.0>
-3.19502

>  <SCORE.INTRA.norm>
-0.0941963

>  <SCORE.RESTR>
0

>  <SCORE.RESTR.CAVITY>
0

>  <SCORE.RESTR.norm>
0

>  <SCORE.SYSTEM>
0

>  <SCORE.SYSTEM.CONST>
0

>  <SCORE.SYSTEM.DIHEDRAL>
0

>  <SCORE.SYSTEM.SOLV>
0

>  <SCORE.SYSTEM.norm>
0

>  <SCORE.heavy>
37

>  <SCORE.norm>
-0.67952

>  <RMSD>
11.585

$$$$
2oe5_lig
 OpenBabel11021811463D
libRbt.so/2013.1/901 2013/11/27
 37 40  0  0  0  0  0  0  0  0999 V2000
   16.7571   -5.2183   44.8077 C   0  0  1  0  0  0  0  0  0  0  0  0
   16.7417   -3.8796   45.5789 C   0  0  1  0  0  0  0  0  0  0  0  0
   18.2077   -3.5201   46.0248 C   0  0  0  0  0  0  0  0  0  0  0  0
   18.6658   -4.7005   46.9104 C   0  0  1  0  0  0  0  0  0  0  0  0
   18.6708   -6.0722   46.1011 C   0  0  1  0  0  0  0  0  0  0  0  0
   19.1356   -7.2714   46.9717 C   0  0  1  0  0  0  0  0  0  0  0  0
   20.5721   -6.9394   47.4666 C   0  0  1  0  0  0  0  0  0  0  0  0
   20.5300   -5.5566   48.2211 C   0  0  2  0  0  0  0  0  0  0  0  0
   22.2871   -8.8531   47.9757 C   0  0  0  0  0  0  0  0  0  0  0  0
   16.2121   -2.8021   44.7117 N   0  0  0  0  0  0  0  0  0  0  0  0
   21.0849   -8.0383   48.3688 N   0  0  0  0  0  0  0  0  0  0  0  0
   17.5286   -5.1332   43.5983 O   0  0  0  0  0  0  0  0  0  0  0  0
   17.3123   -6.3170   45.6124 O   0  0  0  0  0  0  0  0  0  0  0  0
   20.0199   -4.4583   47.3777 O   0  0  0  0  0  0  0  0  0  0  0  0
   18.2172   -7.4076   48.0608 O   0  0  0  0  0  0  0  0  0  0  0  0
   21.8325   -5.1902   48.6317 O   0  0  0  0  0  0  0  0  0  0  0  0
   22.1915   -5.8961   49.8046 C   0  0  2  0  0  0  0  0  0  0  0  0
   21.5684   -5.2892   51.0612 C   0  0  1  0  0  0  0  0  0  0  0  0
   22.1017   -3.8522   51.3139 C   0  0  2  0  0  0  0  0  0  0  0  0
   23.6532   -3.9394   51.4183 C   0  0  1  0  0  0  0  0  0  0  0  0
   24.2001   -4.5258   50.0755 C   0  0  1  0  0  0  0  0  0  0  0  0
   25.7019   -4.7046   50.0831 C   0  0  0  0  0  0  0  0  0  0  0  0
   24.1821   -2.5457   51.6673 N   0  0  0  0  0  0  0  0  0  0  0  0
   23.6491   -5.8773   49.9190 O   0  0  0  0  0  0  0  0  0  0  0  0
   20.1391   -5.2805   50.8752 O   0  0  0  0  0  0  0  0  0  0  0  0
   21.5596   -3.3888   52.5638 O   0  0  0  0  0  0  0  0  0  0  0  0
   26.1134   -5.6031   51.0558 O   0  0  0  0  0  0  0  0  0  0  0  0
   16.8088   -4.6110   42.4812 C   0  0  1  0  0  0  0  0  0  0  0  0
   17.8126   -4.0081   41.4344 C   0  0  1  0  0  0  0  0  0  0  0  0
   16.9991   -3.4527   40.2103 C   0  0  2  0  0  0  0  0  0  0  0  0
   16.2119   -4.6007   39.5606 C   0  0  1  0  0  0  0  0  0  0  0  0
   15.1942   -5.1957   40.6088 C   0  0  0  0  0  0  0  0  0  0  0  0
   16.0084   -5.7408   41.8475 C   0  0  2  0  0  0  0  0  0  0  0  0
   15.4791   -4.0779   38.4192 N   0  0  0  0  0  0  0  0  0  0  0  0
   15.0818   -6.2916   42.8711 N   0  0  0  0  0  0  0  0  0  0  0  0
   18.5619   -2.9193   42.0464 O   0  0  0  0  0  0  0  0  0  0  0  0
   17.8933   -2.9297   39.2642 O   0  0  0  0  0  0  0  0  0  0  0  0
  1  2  1  0  0  0  0
  1 12  1  6  0  0  0
  1 13  1  0  0  0  0
  2  3  1  0  0  0  0
  2 10  1  6  0  0  0
  4  3  1  6  0  0  0
  4  5  1  0  0  0  0
  4 14  1  0  0  0  0
  5  6  1  0  0  0  0
  5 13  1  1  0  0  0
  6  7  1  0  0  0  0
  6 15  1  1  0  0  0
  7  8  1  0  0  0  0
  7 11  1  1  0  0  0
  8 14  1  0  0  0  0
  8 16  1  6  0  0  0
  9 11  1  0  0  0  0
 17 16  1  6  0  0  0
 17 18  1  0  0  0  0
 17 24  1  0  0  0  0
 18 19  1  0  0  0  0
 18 25  1  6  0  0  0
 19 20  1  0  0  0  0
 19 26  1  1  0  0  0
 20 21  1  0  0  0  0
 20 23  1  6  0  0  0
 21 22  1  1  0  0  0
 21 24  1  0  0  0  0
 22 27  1  0  0  0  0
 28 12  1  1  0  0  0
 28 29  1  0  0  0  0
 28 33  1  0  0  0  0
 29 30  1  0  0  0  0
 29 36  1  1  0  0  0
 30 31  1  0  0  0  0
 30 37  1  6  0  0  0
 31 32  1  0  0  0  0
 31 34  1  6  0  0  0
 32 33  1  0  0  0  0
 33 35  1  1  0  0  0
M  END
>  <CHROM.1>
-84.25977635,116.66973867,-79.17700821,-79.04428095,62.04396533,156.62576625
19.63297697,-5.03363292,46.39429354,2.40488638,-0.67037517,-0.90272262

>  <Name>
2oe5_lig

>  <RI>
0

>  <Rbt.Current_Directory>
/home/itssahil/PROJECTS/Mol_Feturizer/New_Systems/rnas/2oe5

>  <Rbt.Executable>
rbdock ($Id: //depot/dev/client3/rdock/2013.1/src/exe/rbdock.cxx#4 $)

>  <Rbt.Library>
libRbt.so (2013.1, Build901 2013/11/27)

>  <Rbt.Parameter_File>
/export/apps/rDock/src/rDock_2013.1_src/data/scripts/dock_solv.prm

>  <Rbt.Receptor>
prm/blind_docking_80.prm

>  <SCORE>
-17.1375

>  <SCORE.INTER>
-16.0751

>  <SCORE.INTER.CONST>
1

>  <SCORE.INTER.POLAR>
-1.79356

>  <SCORE.INTER.ROT>
6

>  <SCORE.INTER.SOLV>
11.1036

>  <SCORE.INTER.VDW>
-16.0394

>  <SCORE.INTER.norm>
-0.434461

>  <SCORE.INTRA>
-1.06245

>  <SCORE.INTRA.DIHEDRAL>
-6.7314

>  <SCORE.INTRA.DIHEDRAL.0>
16.2083

>  <SCORE.INTRA.POLAR>
0

>  <SCORE.INTRA.POLAR.0>
0

>  <SCORE.INTRA.REPUL>
0

>  <SCORE.INTRA.REPUL.0>
0

>  <SCORE.INTRA.SOLV>
2.09863

>  <SCORE.INTRA.SOLV.lig_0>
-89.8095

>  <SCORE.INTRA.VDW>
1.25394

>  <SCORE.INTRA.VDW.0>
-3.19502

>  <SCORE.INTRA.norm>
-0.0287148

>  <SCORE.RESTR>
0

>  <SCORE.RESTR.CAVITY>
0

>  <SCORE.RESTR.norm>
0

>  <SCORE.SYSTEM>
0

>  <SCORE.SYSTEM.CONST>
0

>  <SCORE.SYSTEM.DIHEDRAL>
0

>  <SCORE.SYSTEM.SOLV>
0

>  <SCORE.SYSTEM.norm>
0

>  <SCORE.heavy>
37

>  <SCORE.norm>
-0.463176

>  <RMSD>
11.585

$$$$
2oe5_lig
 OpenBabel11021811463D
libRbt.so/2013.1/901 2013/11/27
 37 40  0  0  0  0  0  0  0  0999 V2000
   15.0893   -5.9636   44.4195 C   0  0  1  0  0  0  0  0  0  0  0  0
   15.2428   -6.6923   45.7733 C   0  0  1  0  0  0  0  0  0  0  0  0
   15.8205   -5.6899   46.8403 C   0  0  0  0  0  0  0  0  0  0  0  0
   17.1785   -5.2241   46.2690 C   0  0  1  0  0  0  0  0  0  0  0  0
   17.0019   -4.4799   44.8721 C   0  0  1  0  0  0  0  0  0  0  0  0
   18.3555   -3.9967   44.2835 C   0  0  1  0  0  0  0  0  0  0  0  0
   18.9814   -3.0287   45.3276 C   0  0  1  0  0  0  0  0  0  0  0  0
   19.0966   -3.7891   46.7030 C   0  0  2  0  0  0  0  0  0  0  0  0
   21.5342   -3.4527   44.9202 C   0  0  0  0  0  0  0  0  0  0  0  0
   13.9262   -7.1937   46.2301 N   0  0  0  0  0  0  0  0  0  0  0  0
   20.3340   -2.5478   44.8546 N   0  0  0  0  0  0  0  0  0  0  0  0
   14.1475   -4.8809   44.4955 O   0  0  0  0  0  0  0  0  0  0  0  0
   16.3642   -5.4104   43.9385 O   0  0  0  0  0  0  0  0  0  0  0  0
   17.7972   -4.2888   47.1927 O   0  0  0  0  0  0  0  0  0  0  0  0
   19.1780   -5.1477   44.0669 O   0  0  0  0  0  0  0  0  0  0  0  0
   19.6042   -2.9191   47.6952 O   0  0  0  0  0  0  0  0  0  0  0  0
   20.1036   -3.6647   48.7896 C   0  0  2  0  0  0  0  0  0  0  0  0
   19.3189   -3.4055   50.0752 C   0  0  1  0  0  0  0  0  0  0  0  0
   19.4652   -1.9285   50.5336 C   0  0  2  0  0  0  0  0  0  0  0  0
   20.9856   -1.6414   50.7126 C   0  0  1  0  0  0  0  0  0  0  0  0
   21.6932   -1.8883   49.3398 C   0  0  1  0  0  0  0  0  0  0  0  0
   23.1908   -1.6886   49.4087 C   0  0  0  0  0  0  0  0  0  0  0  0
   21.1387   -0.2065   51.1617 N   0  0  0  0  0  0  0  0  0  0  0  0
   21.5059   -3.3006   48.9863 O   0  0  0  0  0  0  0  0  0  0  0  0
   17.9385   -3.7266   49.8125 O   0  0  0  0  0  0  0  0  0  0  0  0
   18.7954   -1.7860   51.7993 O   0  0  0  0  0  0  0  0  0  0  0  0
   23.7697   -1.6589   48.1491 O   0  0  0  0  0  0  0  0  0  0  0  0
   14.1034   -4.0613   43.3272 C   0  0  1  0  0  0  0  0  0  0  0  0
   12.9968   -4.5899   42.3460 C   0  0  1  0  0  0  0  0  0  0  0  0
   12.9584   -3.6654   41.0763 C   0  0  2  0  0  0  0  0  0  0  0  0
   12.6186   -2.2295   41.5035 C   0  0  1  0  0  0  0  0  0  0  0  0
   13.7383   -1.6950   42.4775 C   0  0  0  0  0  0  0  0  0  0  0  0
   13.7896   -2.6319   43.7479 C   0  0  2  0  0  0  0  0  0  0  0  0
   12.5676   -1.3889   40.3187 N   0  0  0  0  0  0  0  0  0  0  0  0
   14.8503   -2.1738   44.6834 N   0  0  0  0  0  0  0  0  0  0  0  0
   13.3146   -5.9518   41.9387 O   0  0  0  0  0  0  0  0  0  0  0  0
   11.9583   -4.1232   40.2052 O   0  0  0  0  0  0  0  0  0  0  0  0
  1  2  1  0  0  0  0
  1 12  1  1  0  0  0
  1 13  1  0  0  0  0
  2  3  1  0  0  0  0
  2 10  1  1  0  0  0
  4  3  1  1  0  0  0
  4  5  1  0  0  0  0
  4 14  1  0  0  0  0
  5  6  1  0  0  0  0
  5 13  1  6  0  0  0
  6  7  1  0  0  0  0
  6 15  1  1  0  0  0
  7  8  1  0  0  0  0
  7 11  1  6  0  0  0
  8 14  1  0  0  0  0
  8 16  1  1  0  0  0
  9 11  1  0  0  0  0
 17 16  1  6  0  0  0
 17 18  1  0  0  0  0
 17 24  1  0  0  0  0
 18 19  1  0  0  0  0
 18 25  1  6  0  0  0
 19 20  1  0  0  0  0
 19 26  1  1  0  0  0
 20 21  1  0  0  0  0
 20 23  1  6  0  0  0
 21 22  1  1  0  0  0
 21 24  1  0  0  0  0
 22 27  1  0  0  0  0
 28 12  1  1  0  0  0
 28 29  1  0  0  0  0
 28 33  1  0  0  0  0
 29 30  1  0  0  0  0
 29 36  1  6  0  0  0
 30 31  1  0  0  0  0
 30 37  1  6  0  0  0
 31 32  1  0  0  0  0
 31 34  1  6  0  0  0
 32 33  1  0  0  0  0
 33 35  1  1  0  0  0
M  END
>  <CHROM.1>
171.85999620,-75.56260491,-161.60524726,-115.90338876,-168.53283693,92.40741584
17.34289564,-3.58107184,45.91255379,2.51989955,-0.48249134,-1.24178101

>  <Name>
2oe5_lig

>  <RI>
0

>  <Rbt.Current_Directory>
/home/itssahil/PROJECTS/Mol_Feturizer/New_Systems/rnas/2oe5

>  <Rbt.Executable>
rbdock ($Id: //depot/dev/client3/rdock/2013.1/src/exe/rbdock.cxx#4 $)

>  <Rbt.Library>
libRbt.so (2013.1, Build901 2013/11/27)

>  <Rbt.Parameter_File>
/export/apps/rDock/src/rDock_2013.1_src/data/scripts/dock_solv.prm

>  <Rbt.Receptor>
prm/blind_docking_60.prm

>  <SCORE>
-27.8784

>  <SCORE.INTER>
-26.9477

>  <SCORE.INTER.CONST>
1

>  <SCORE.INTER.POLAR>
-3.84295

>  <SCORE.INTER.ROT>
6

>  <SCORE.INTER.SOLV>
20.0887

>  <SCORE.INTER.VDW>
-19.4516

>  <SCORE.INTER.norm>
-0.728316

>  <SCORE.INTRA>
-0.93065

>  <SCORE.INTRA.DIHEDRAL>
-2.46342

>  <SCORE.INTRA.DIHEDRAL.0>
16.2083

>  <SCORE.INTRA.POLAR>
0

>  <SCORE.INTRA.POLAR.0>
0

>  <SCORE.INTRA.REPUL>
0

>  <SCORE.INTRA.REPUL.0>
0

>  <SCORE.INTRA.SOLV>
-0.696972

>  <SCORE.INTRA.SOLV.lig_0>
-89.8095

>  <SCORE.INTRA.VDW>
0.649546

>  <SCORE.INTRA.VDW.0>
-3.19502

>  <SCORE.INTRA.norm>
-0.0251527

>  <SCORE.RESTR>
0

>  <SCORE.RESTR.CAVITY>
0

>  <SCORE.RESTR.norm>
0

>  <SCORE.SYSTEM>
0

>  <SCORE.SYSTEM.CONST>
0

>  <SCORE.SYSTEM.DIHEDRAL>
0

>  <SCORE.SYSTEM.SOLV>
0

>  <SCORE.SYSTEM.norm>
0

>  <SCORE.heavy>
37

>  <SCORE.norm>
-0.753469

>  <RMSD>
11.633

$$$$
2oe5_lig
 OpenBabel11021811463D
libRbt.so/2013.1/901 2013/11/27
 37 40  0  0  0  0  0  0  0  0999 V2000
   15.0597   -6.0032   44.4126 C   0  0  1  0  0  0  0  0  0  0  0  0
   15.2242   -6.7495   45.7555 C   0  0  1  0  0  0  0  0  0  0  0  0
   15.8010   -5.7582   46.8333 C   0  0  0  0  0  0  0  0  0  0  0  0
   17.1534   -5.2763   46.2620 C   0  0  1  0  0  0  0  0  0  0  0  0
   16.9654   -4.5141   44.8763 C   0  0  1  0  0  0  0  0  0  0  0  0
   18.3132   -4.0146   44.2879 C   0  0  1  0  0  0  0  0  0  0  0  0
   18.9382   -3.0572   45.3422 C   0  0  1  0  0  0  0  0  0  0  0  0
   19.0647   -3.8356   46.7064 C   0  0  2  0  0  0  0  0  0  0  0  0
   21.4933   -3.4569   44.9249 C   0  0  0  0  0  0  0  0  0  0  0  0
   13.9129   -7.2651   46.2117 N   0  0  0  0  0  0  0  0  0  0  0  0
   20.2855   -2.5614   44.8693 N   0  0  0  0  0  0  0  0  0  0  0  0
   14.1117   -4.9275   44.5080 O   0  0  0  0  0  0  0  0  0  0  0  0
   16.3288   -5.4356   43.9330 O   0  0  0  0  0  0  0  0  0  0  0  0
   17.7709   -4.3500   47.1955 O   0  0  0  0  0  0  0  0  0  0  0  0
   19.1416   -5.1574   44.0516 O   0  0  0  0  0  0  0  0  0  0  0  0
   19.5719   -2.9761   47.7081 O   0  0  0  0  0  0  0  0  0  0  0  0
   20.0572   -3.7329   48.8012 C   0  0  2  0  0  0  0  0  0  0  0  0
   19.2910   -3.4457   50.0919 C   0  0  1  0  0  0  0  0  0  0  0  0
   19.4856   -1.9723   50.5439 C   0  0  2  0  0  0  0  0  0  0  0  0
   21.0153   -1.7308   50.7099 C   0  0  1  0  0  0  0  0  0  0  0  0
   21.7042   -2.0036   49.3325 C   0  0  1  0  0  0  0  0  0  0  0  0
   23.2077   -1.8491   49.3889 C   0  0  0  0  0  0  0  0  0  0  0  0
   21.2153   -0.2997   51.1526 N   0  0  0  0  0  0  0  0  0  0  0  0
   21.4714   -3.4107   48.9856 O   0  0  0  0  0  0  0  0  0  0  0  0
   17.8995   -3.7257   49.8412 O   0  0  0  0  0  0  0  0  0  0  0  0
   18.8305   -1.8053   51.8143 O   0  0  0  0  0  0  0  0  0  0  0  0
   23.7883   -2.7371   50.2817 O   0  0  0  0  0  0  0  0  0  0  0  0
   14.0480   -4.0995   43.3465 C   0  0  1  0  0  0  0  0  0  0  0  0
   12.8835   -4.5828   42.4099 C   0  0  1  0  0  0  0  0  0  0  0  0
   12.8251   -3.6497   41.1472 C   0  0  2  0  0  0  0  0  0  0  0  0
   12.5543   -2.2054   41.5951 C   0  0  1  0  0  0  0  0  0  0  0  0
   13.7317   -1.7166   42.5240 C   0  0  0  0  0  0  0  0  0  0  0  0
   13.8027   -2.6626   43.7867 C   0  0  2  0  0  0  0  0  0  0  0  0
   12.4839   -1.3562   40.4175 N   0  0  0  0  0  0  0  0  0  0  0  0
   14.9169   -2.2479   44.6792 N   0  0  0  0  0  0  0  0  0  0  0  0
   13.1358   -5.9525   41.9832 O   0  0  0  0  0  0  0  0  0  0  0  0
   11.7741   -4.0666   40.3166 O   0  0  0  0  0  0  0  0  0  0  0  0
  1  2  1  0  0  0  0
  1 12  1  1  0  0  0
  1 13  1  0  0  0  0
  2  3  1  0  0  0  0
  2 10  1  1  0  0  0
  4  3  1  1  0  0  0
  4  5  1  0  0  0  0
  4 14  1  0  0  0  0
  5  6  1  0  0  0  0
  5 13  1  6  0  0  0
  6  7  1  0  0  0  0
  6 15  1  1  0  0  0
  7  8  1  0  0  0  0
  7 11  1  6  0  0  0
  8 14  1  0  0  0  0
  8 16  1  1  0  0  0
  9 11  1  0  0  0  0
 17 16  1  6  0  0  0
 17 18  1  0  0  0  0
 17 24  1  0  0  0  0
 18 19  1  0  0  0  0
 18 25  1  6  0  0  0
 19 20  1  0  0  0  0
 19 26  1  1  0  0  0
 20 21  1  0  0  0  0
 20 23  1  6  0  0  0
 21 22  1  1  0  0  0
 21 24  1  0  0  0  0
 22 27  1  0  0  0  0
 28 12  1  1  0  0  0
 28 29  1  0  0  0  0
 28 33  1  0  0  0  0
 29 30  1  0  0  0  0
 29 36  1  6  0  0  0
 30 31  1  0  0  0  0
 30 37  1  6  0  0  0
 31 32  1  0  0  0  0
 31 34  1  6  0  0  0
 32 33  1  0  0  0  0
 33 35  1  1  0  0  0
M  END
>  <CHROM.1>
172.40909893,-75.95474831,-162.75274998,-117.55526183,60.87850660,95.35294412
17.30993077,-3.65121147,45.99439725,2.56592386,-0.54185294,-1.11387254

>  <Name>
2oe5_lig

>  <RI>
0

>  <Rbt.Current_Directory>
/home/itssahil/PROJECTS/Mol_Feturizer/New_Systems/rnas/2oe5

>  <Rbt.Executable>
rbdock ($Id: //depot/dev/client3/rdock/2013.1/src/exe/rbdock.cxx#4 $)

>  <Rbt.Library>
libRbt.so (2013.1, Build901 2013/11/27)

>  <Rbt.Parameter_File>
/export/apps/rDock/src/rDock_2013.1_src/data/scripts/dock_solv.prm

>  <Rbt.Receptor>
prm/blind_docking_80.prm

>  <SCORE>
-27.5292

>  <SCORE.INTER>
-27.0483

>  <SCORE.INTER.CONST>
1

>  <SCORE.INTER.POLAR>
-3.9397

>  <SCORE.INTER.ROT>
6

>  <SCORE.INTER.SOLV>
18.5581

>  <SCORE.INTER.VDW>
-18.6859

>  <SCORE.INTER.norm>
-0.731035

>  <SCORE.INTRA>
-0.480937

>  <SCORE.INTRA.DIHEDRAL>
-2.51866

>  <SCORE.INTRA.DIHEDRAL.0>
16.2083

>  <SCORE.INTRA.POLAR>
0

>  <SCORE.INTRA.POLAR.0>
0

>  <SCORE.INTRA.REPUL>
0

>  <SCORE.INTRA.REPUL.0>
0

>  <SCORE.INTRA.SOLV>
0.151673

>  <SCORE.INTRA.SOLV.lig_0>
-89.8095

>  <SCORE.INTRA.VDW>
0.702557

>  <SCORE.INTRA.VDW.0>
-3.19502

>  <SCORE.INTRA.norm>
-0.0129983

>  <SCORE.RESTR>
0

>  <SCORE.RESTR.CAVITY>
0

>  <SCORE.RESTR.norm>
0

>  <SCORE.SYSTEM>
0

>  <SCORE.SYSTEM.CONST>
0

>  <SCORE.SYSTEM.DIHEDRAL>
0

>  <SCORE.SYSTEM.SOLV>
0

>  <SCORE.SYSTEM.norm>
0

>  <SCORE.heavy>
37

>  <SCORE.norm>
-0.744034

>  <RMSD>
11.648

$$$$
2oe5_lig
 OpenBabel11021811463D
libRbt.so/2013.1/901 2013/11/27
 37 40  0  0  0  0  0  0  0  0999 V2000
   16.2721   -4.8615   43.7977 C   0  0  1  0  0  0  0  0  0  0  0  0
   15.4532   -5.0955   45.0869 C   0  0  1  0  0  0  0  0  0  0  0  0
   15.8856   -4.0437   46.1749 C   0  0  0  0  0  0  0  0  0  0  0  0
   17.3974   -4.2784   46.3911 C   0  0  1  0  0  0  0  0  0  0  0  0
   18.2247   -4.0376   45.0517 C   0  0  1  0  0  0  0  0  0  0  0  0
   19.7489   -4.2614   45.2491 C   0  0  1  0  0  0  0  0  0  0  0  0
   20.2125   -3.2636   46.3484 C   0  0  1  0  0  0  0  0  0  0  0  0
   19.3401   -3.5055   47.6382 C   0  0  2  0  0  0  0  0  0  0  0  0
   22.1897   -4.7383   47.2310 C   0  0  0  0  0  0  0  0  0  0  0  0
   14.0076   -4.9447   44.8024 N   0  0  0  0  0  0  0  0  0  0  0  0
   21.6836   -3.4498   46.6414 N   0  0  0  0  0  0  0  0  0  0  0  0
   16.0135   -3.5697   43.2237 O   0  0  0  0  0  0  0  0  0  0  0  0
   17.7203   -4.9610   44.0333 O   0  0  0  0  0  0  0  0  0  0  0  0
   17.8939   -3.3478   47.3903 O   0  0  0  0  0  0  0  0  0  0  0  0
   19.9467   -5.6212   45.6490 O   0  0  0  0  0  0  0  0  0  0  0  0
   19.6906   -2.5722   48.6408 O   0  0  0  0  0  0  0  0  0  0  0  0
   18.9266   -2.8013   49.8100 C   0  0  2  0  0  0  0  0  0  0  0  0
   19.4148   -1.9688   50.9949 C   0  0  1  0  0  0  0  0  0  0  0  0
   20.8569   -2.3724   51.4079 C   0  0  2  0  0  0  0  0  0  0  0  0
   20.8425   -3.8952   51.7341 C   0  0  1  0  0  0  0  0  0  0  0  0
   20.3766   -4.6636   50.4539 C   0  0  1  0  0  0  0  0  0  0  0  0
   20.2748   -6.1568   50.6716 C   0  0  0  0  0  0  0  0  0  0  0  0
   22.2415   -4.2977   52.1401 N   0  0  0  0  0  0  0  0  0  0  0  0
   19.0124   -4.2235   50.1383 O   0  0  0  0  0  0  0  0  0  0  0  0
   19.3628   -0.5831   50.6016 O   0  0  0  0  0  0  0  0  0  0  0  0
   21.2067   -1.6295   52.5898 O   0  0  0  0  0  0  0  0  0  0  0  0
   21.5202   -6.7445   50.8333 O   0  0  0  0  0  0  0  0  0  0  0  0
   15.5722   -3.6108   41.8664 C   0  0  1  0  0  0  0  0  0  0  0  0
   14.7359   -2.3225   41.5380 C   0  0  1  0  0  0  0  0  0  0  0  0
   14.2734   -2.3843   40.0378 C   0  0  2  0  0  0  0  0  0  0  0  0
   15.5093   -2.4368   39.1270 C   0  0  1  0  0  0  0  0  0  0  0  0
   16.3406   -3.7384   39.4481 C   0  0  0  0  0  0  0  0  0  0  0  0
   16.7936   -3.6862   40.9602 C   0  0  2  0  0  0  0  0  0  0  0  0
   15.0685   -2.4746   37.7424 N   0  0  0  0  0  0  0  0  0  0  0  0
   17.5633   -4.9090   41.3099 N   0  0  0  0  0  0  0  0  0  0  0  0
   13.5629   -2.2682   42.3999 O   0  0  0  0  0  0  0  0  0  0  0  0
   13.5415   -1.2263   39.7350 O   0  0  0  0  0  0  0  0  0  0  0  0
  1  2  1  0  0  0  0
  1 12  1  1  0  0  0
  1 13  1  0  0  0  0
  2  3  1  0  0  0  0
  2 10  1  6  0  0  0
  4  3  1  6  0  0  0
  4  5  1  0  0  0  0
  4 14  1  0  0  0  0
  5  6  1  0  0  0  0
  5 13  1  6  0  0  0
  6  7  1  0  0  0  0
  6 15  1  1  0  0  0
  7  8  1  0  0  0  0
  7 11  1  1  0  0  0
  8 14  1  0  0  0  0
  8 16  1  1  0  0  0
  9 11  1  0  0  0  0
 17 16  1  6  0  0  0
 17 18  1  0  0  0  0
 17 24  1  0  0  0  0
 18 19  1  0  0  0  0
 18 25  1  6  0  0  0
 19 20  1  0  0  0  0
 19 26  1  1  0  0  0
 20 21  1  0  0  0  0
 20 23  1  6  0  0  0
 21 22  1  1  0  0  0
 21 24  1  0  0  0  0
 22 27  1  0  0  0  0
 28 12  1  1  0  0  0
 28 29  1  0  0  0  0
 28 33  1  0  0  0  0
 29 30  1  0  0  0  0
 29 36  1  1  0  0  0
 30 31  1  0  0  0  0
 30 37  1  6  0  0  0
 31 32  1  0  0  0  0
 31 34  1  6  0  0  0
 32 33  1  0  0  0  0
 33 35  1  1  0  0  0
M  END
>  <CHROM.1>
-123.89188247,-64.35559448,-178.93399493,170.99435839,-69.46081219,154.97702908
18.08911530,-3.64142900,45.96287287,-2.23305613,-0.66298821,1.18299204

>  <Name>
2oe5_lig

>  <RI>
0

>  <Rbt.Current_Directory>
/home/itssahil/PROJECTS/Mol_Feturizer/New_Systems/rnas/2oe5

>  <Rbt.Executable>
rbdock ($Id: //depot/dev/client3/rdock/2013.1/src/exe/rbdock.cxx#4 $)

>  <Rbt.Library>
libRbt.so (2013.1, Build901 2013/11/27)

>  <Rbt.Parameter_File>
/export/apps/rDock/src/rDock_2013.1_src/data/scripts/dock_solv.prm

>  <Rbt.Receptor>
prm/blind_docking_100.prm

>  <SCORE>
-17.3352

>  <SCORE.INTER>
-17.2852

>  <SCORE.INTER.CONST>
1

>  <SCORE.INTER.POLAR>
-1.75952

>  <SCORE.INTER.ROT>
6

>  <SCORE.INTER.SOLV>
12.6365

>  <SCORE.INTER.VDW>
-17.4706

>  <SCORE.INTER.norm>
-0.467168

>  <SCORE.INTRA>
-0.0499383

>  <SCORE.INTRA.DIHEDRAL>
-5.66801

>  <SCORE.INTRA.DIHEDRAL.0>
16.2083

>  <SCORE.INTRA.POLAR>
0

>  <SCORE.INTRA.POLAR.0>
0

>  <SCORE.INTRA.REPUL>
0

>  <SCORE.INTRA.REPUL.0>
0

>  <SCORE.INTRA.SOLV>
0.809572

>  <SCORE.INTRA.SOLV.lig_0>
-89.8095

>  <SCORE.INTRA.VDW>
2.37928

>  <SCORE.INTRA.VDW.0>
-3.19502

>  <SCORE.INTRA.norm>
-0.00134968

>  <SCORE.RESTR>
0

>  <SCORE.RESTR.CAVITY>
0

>  <SCORE.RESTR.norm>
0

>  <SCORE.SYSTEM>
0

>  <SCORE.SYSTEM.CONST>
0

>  <SCORE.SYSTEM.DIHEDRAL>
0

>  <SCORE.SYSTEM.SOLV>
0

>  <SCORE.SYSTEM.norm>
0

>  <SCORE.heavy>
37

>  <SCORE.norm>
-0.468518

>  <RMSD>
11.701

$$$$
2oe5_lig
 OpenBabel11021811463D
libRbt.so/2013.1/901 2013/11/27
 37 40  0  0  0  0  0  0  0  0999 V2000
   15.0334   -6.1619   44.6696 C   0  0  1  0  0  0  0  0  0  0  0  0
   14.6709   -6.7167   46.0653 C   0  0  1  0  0  0  0  0  0  0  0  0
   15.3567   -5.8306   47.1706 C   0  0  0  0  0  0  0  0  0  0  0  0
   16.8720   -5.9181   46.8814 C   0  0  1  0  0  0  0  0  0  0  0  0
   17.2265   -5.3469   45.4377 C   0  0  1  0  0  0  0  0  0  0  0  0
   18.7471   -5.4189   45.1296 C   0  0  1  0  0  0  0  0  0  0  0  0
   19.4692   -4.5838   46.2251 C   0  0  1  0  0  0  0  0  0  0  0  0
   19.0565   -5.1528   47.6355 C   0  0  2  0  0  0  0  0  0  0  0  0
   21.6588   -3.6653   45.1185 C   0  0  0  0  0  0  0  0  0  0  0  0
   13.2022   -6.6911   46.2541 N   0  0  0  0  0  0  0  0  0  0  0  0
   20.9668   -4.6425   46.0296 N   0  0  0  0  0  0  0  0  0  0  0  0
   14.5332   -4.8290   44.4743 O   0  0  0  0  0  0  0  0  0  0  0  0
   16.4864   -6.1285   44.4449 O   0  0  0  0  0  0  0  0  0  0  0  0
   17.5982   -5.1271   47.8601 O   0  0  0  0  0  0  0  0  0  0  0  0
   19.1396   -6.7947   45.1660 O   0  0  0  0  0  0  0  0  0  0  0  0
   19.6452   -4.3771   48.6607 O   0  0  0  0  0  0  0  0  0  0  0  0
   19.7455   -5.1360   49.8510 C   0  0  2  0  0  0  0  0  0  0  0  0
   19.1924   -4.3891   51.0642 C   0  0  1  0  0  0  0  0  0  0  0  0
   20.0256   -3.1131   51.3652 C   0  0  2  0  0  0  0  0  0  0  0  0
   21.5028   -3.5575   51.5800 C   0  0  1  0  0  0  0  0  0  0  0  0
   21.9929   -4.2676   50.2755 C   0  0  1  0  0  0  0  0  0  0  0  0
   23.4075   -4.7905   50.3894 C   0  0  0  0  0  0  0  0  0  0  0  0
   22.3220   -2.3226   51.8767 N   0  0  0  0  0  0  0  0  0  0  0  0
   21.1555   -5.4554   50.0697 O   0  0  0  0  0  0  0  0  0  0  0  0
   17.8213   -4.0502   50.7763 O   0  0  0  0  0  0  0  0  0  0  0  0
   19.5182   -2.5247   52.5765 O   0  0  0  0  0  0  0  0  0  0  0  0
   23.8407   -5.3786   49.2108 O   0  0  0  0  0  0  0  0  0  0  0  0
   14.7332   -4.3166   43.1568 C   0  0  1  0  0  0  0  0  0  0  0  0
   13.8262   -5.0953   42.1380 C   0  0  1  0  0  0  0  0  0  0  0  0
   14.0536   -4.5054   40.6997 C   0  0  2  0  0  0  0  0  0  0  0  0
   13.6682   -3.0184   40.6937 C   0  0  1  0  0  0  0  0  0  0  0  0
   14.5896   -2.2354   41.7067 C   0  0  0  0  0  0  0  0  0  0  0  0
   14.3744   -2.8368   43.1511 C   0  0  2  0  0  0  0  0  0  0  0  0
   13.8652   -2.4898   39.3540 N   0  0  0  0  0  0  0  0  0  0  0  0
   15.2437   -2.1388   44.1345 N   0  0  0  0  0  0  0  0  0  0  0  0
   14.1877   -6.5062   42.1408 O   0  0  0  0  0  0  0  0  0  0  0  0
   13.2314   -5.1860   39.7891 O   0  0  0  0  0  0  0  0  0  0  0  0
  1  2  1  0  0  0  0
  1 12  1  1  0  0  0
  1 13  1  0  0  0  0
  2  3  1  0  0  0  0
  2 10  1  1  0  0  0
  4  3  1  1  0  0  0
  4  5  1  0  0  0  0
  4 14  1  0  0  0  0
  5  6  1  0  0  0  0
  5 13  1  6  0  0  0
  6  7  1  0  0  0  0
  6 15  1  1  0  0  0
  7  8  1  0  0  0  0
  7 11  1  6  0  0  0
  8 14  1  0  0  0  0
  8 16  1  1  0  0  0
  9 11  1  0  0  0  0
 17 16  1  6  0  0  0
 17 18  1  0  0  0  0
 17 24  1  0  0  0  0
 18 19  1  0  0  0  0
 18 25  1  6  0  0  0
 19 20  1  0  0  0  0
 19 26  1  1  0  0  0
 20 21  1  0  0  0  0
 20 23  1  6  0  0  0
 21 22  1  1  0  0  0
 21 24  1  0  0  0  0
 22 27  1  0  0  0  0
 28 12  1  1  0  0  0
 28 29  1  0  0  0  0
 28 33  1  0  0  0  0
 29 30  1  0  0  0  0
 29 36  1  6  0  0  0
 30 31  1  0  0  0  0
 30 37  1  6  0  0  0
 31 32  1  0  0  0  0
 31 34  1  6  0  0  0
 32 33  1  0  0  0  0
 33 35  1  1  0  0  0
M  END
>  <CHROM.1>
-174.48428142,87.05865413,-156.66182971,-130.33012206,-178.07114812,68.83145741
17.65123419,-4.63081853,46.32531055,2.27228762,-0.12814690,-1.50019499

>  <Name>
2oe5_lig

>  <RI>
0

>  <Rbt.Current_Directory>
/home/itssahil/PROJECTS/Mol_Feturizer/New_Systems/rnas/2oe5

>  <Rbt.Executable>
rbdock ($Id: //depot/dev/client3/rdock/2013.1/src/exe/rbdock.cxx#4 $)

>  <Rbt.Library>
libRbt.so (2013.1, Build901 2013/11/27)

>  <Rbt.Parameter_File>
/export/apps/rDock/src/rDock_2013.1_src/data/scripts/dock_solv.prm

>  <Rbt.Receptor>
prm/blind_docking_60.prm

>  <SCORE>
-24.8793

>  <SCORE.INTER>
-21.044

>  <SCORE.INTER.CONST>
1

>  <SCORE.INTER.POLAR>
-3.07733

>  <SCORE.INTER.ROT>
6

>  <SCORE.INTER.SOLV>
16.0334

>  <SCORE.INTER.VDW>
-16.716

>  <SCORE.INTER.norm>
-0.568756

>  <SCORE.INTRA>
-3.8353

>  <SCORE.INTRA.DIHEDRAL>
-6.03813

>  <SCORE.INTRA.DIHEDRAL.0>
16.2083

>  <SCORE.INTRA.POLAR>
0

>  <SCORE.INTRA.POLAR.0>
0

>  <SCORE.INTRA.REPUL>
0

>  <SCORE.INTRA.REPUL.0>
0

>  <SCORE.INTRA.SOLV>
-2.86905

>  <SCORE.INTRA.SOLV.lig_0>
-89.8095

>  <SCORE.INTRA.VDW>
0.618286

>  <SCORE.INTRA.VDW.0>
-3.19502

>  <SCORE.INTRA.norm>
-0.103657

>  <SCORE.RESTR>
0

>  <SCORE.RESTR.CAVITY>
0

>  <SCORE.RESTR.norm>
0

>  <SCORE.SYSTEM>
0

>  <SCORE.SYSTEM.CONST>
0

>  <SCORE.SYSTEM.DIHEDRAL>
0

>  <SCORE.SYSTEM.SOLV>
0

>  <SCORE.SYSTEM.norm>
0

>  <SCORE.heavy>
37

>  <SCORE.norm>
-0.672413

>  <RMSD>
11.707

$$$$
2oe5_lig
 OpenBabel11021811463D
libRbt.so/2013.1/901 2013/11/27
 37 40  0  0  0  0  0  0  0  0999 V2000
   16.6194   -3.0115   44.0520 C   0  0  1  0  0  0  0  0  0  0  0  0
   17.9927   -2.6868   43.4228 C   0  0  1  0  0  0  0  0  0  0  0  0
   19.0778   -3.6626   44.0121 C   0  0  0  0  0  0  0  0  0  0  0  0
   19.0605   -3.4185   45.5377 C   0  0  1  0  0  0  0  0  0  0  0  0
   17.6369   -3.7533   46.1682 C   0  0  1  0  0  0  0  0  0  0  0  0
   17.6001   -3.5214   47.7035 C   0  0  1  0  0  0  0  0  0  0  0  0
   18.6881   -4.4426   48.3249 C   0  0  1  0  0  0  0  0  0  0  0  0
   20.0690   -4.1099   47.6428 C   0  0  2  0  0  0  0  0  0  0  0  0
   19.3019   -5.3215   50.7152 C   0  0  0  0  0  0  0  0  0  0  0  0
   17.9274   -2.8522   41.9525 N   0  0  0  0  0  0  0  0  0  0  0  0
   18.7558   -4.2414   49.8214 N   0  0  0  0  0  0  0  0  0  0  0  0
   16.1777   -4.3388   43.7232 O   0  0  0  0  0  0  0  0  0  0  0  0
   16.6396   -2.9005   45.5183 O   0  0  0  0  0  0  0  0  0  0  0  0
   20.0404   -4.2796   46.1771 O   0  0  0  0  0  0  0  0  0  0  0  0
   17.8736   -2.1379   47.9470 O   0  0  0  0  0  0  0  0  0  0  0  0
   21.0733   -4.9731   48.1382 O   0  0  0  0  0  0  0  0  0  0  0  0
   22.3406   -4.5829   47.6434 C   0  0  2  0  0  0  0  0  0  0  0  0
   23.4683   -5.4679   48.1730 C   0  0  1  0  0  0  0  0  0  0  0  0
   23.6123   -5.3312   49.7137 C   0  0  2  0  0  0  0  0  0  0  0  0
   23.8572   -3.8260   50.0301 C   0  0  1  0  0  0  0  0  0  0  0  0
   22.6353   -3.0100   49.4940 C   0  0  1  0  0  0  0  0  0  0  0  0
   22.7896   -1.5199   49.7016 C   0  0  0  0  0  0  0  0  0  0  0  0
   24.0017   -3.6826   51.5277 N   0  0  0  0  0  0  0  0  0  0  0  0
   22.5760   -3.1951   48.0391 O   0  0  0  0  0  0  0  0  0  0  0  0
   23.1614   -6.8273   47.8052 O   0  0  0  0  0  0  0  0  0  0  0  0
   24.7556   -6.1025   50.1249 O   0  0  0  0  0  0  0  0  0  0  0  0
   21.6082   -0.8361   49.4580 O   0  0  0  0  0  0  0  0  0  0  0  0
   15.5335   -4.4428   42.4532 C   0  0  1  0  0  0  0  0  0  0  0  0
   15.6235   -5.9206   41.9287 C   0  0  1  0  0  0  0  0  0  0  0  0
   14.8972   -6.0125   40.5386 C   0  0  2  0  0  0  0  0  0  0  0  0
   13.4218   -5.6201   40.7093 C   0  0  1  0  0  0  0  0  0  0  0  0
   13.3328   -4.1312   41.2224 C   0  0  0  0  0  0  0  0  0  0  0  0
   14.0758   -4.0325   42.6126 C   0  0  2  0  0  0  0  0  0  0  0  0
   12.7574   -5.7274   39.4209 N   0  0  0  0  0  0  0  0  0  0  0  0
   14.0336   -2.6363   43.1214 N   0  0  0  0  0  0  0  0  0  0  0  0
   17.0210   -6.2973   41.7659 O   0  0  0  0  0  0  0  0  0  0  0  0
   14.9591   -7.3352   40.0749 O   0  0  0  0  0  0  0  0  0  0  0  0
  1  2  1  0  0  0  0
  1 12  1  1  0  0  0
  1 13  1  0  0  0  0
  2  3  1  0  0  0  0
  2 10  1  6  0  0  0
  4  3  1  6  0  0  0
  4  5  1  0  0  0  0
  4 14  1  0  0  0  0
  5  6  1  0  0  0  0
  5 13  1  6  0  0  0
  6  7  1  0  0  0  0
  6 15  1  6  0  0  0
  7  8  1  0  0  0  0
  7 11  1  1  0  0  0
  8 14  1  0  0  0  0
  8 16  1  1  0  0  0
  9 11  1  0  0  0  0
 17 16  1  1  0  0  0
 17 18  1  0  0  0  0
 17 24  1  0  0  0  0
 18 19  1  0  0  0  0
 18 25  1  1  0  0  0
 19 20  1  0  0  0  0
 19 26  1  6  0  0  0
 20 21  1  0  0  0  0
 20 23  1  1  0  0  0
 21 22  1  6  0  0  0
 21 24  1  0  0  0  0
 22 27  1  0  0  0  0
 28 12  1  1  0  0  0
 28 29  1  0  0  0  0
 28 33  1  0  0  0  0
 29 30  1  0  0  0  0
 29 36  1  6  0  0  0
 30 31  1  0  0  0  0
 30 37  1  1  0  0  0
 31 32  1  0  0  0  0
 31 34  1  6  0  0  0
 32 33  1  0  0  0  0
 33 35  1  6  0  0  0
M  END
>  <CHROM.1>
-83.27820872,156.38444326,-173.46553011,178.80995515,-168.62472166,156.81135534
18.82398147,-4.23126165,45.88153922,2.55007317,0.56817522,-2.34870379

>  <Name>
2oe5_lig

>  <RI>
0

>  <Rbt.Current_Directory>
/home/itssahil/PROJECTS/Mol_Feturizer/New_Systems/rnas/2oe5

>  <Rbt.Executable>
rbdock ($Id: //depot/dev/client3/rdock/2013.1/src/exe/rbdock.cxx#4 $)

>  <Rbt.Library>
libRbt.so (2013.1, Build901 2013/11/27)

>  <Rbt.Parameter_File>
/export/apps/rDock/src/rDock_2013.1_src/data/scripts/dock_solv.prm

>  <Rbt.Receptor>
prm/blind_docking_60.prm

>  <SCORE>
-15.749

>  <SCORE.INTER>
-11.5649

>  <SCORE.INTER.CONST>
1

>  <SCORE.INTER.POLAR>
-0.930689

>  <SCORE.INTER.ROT>
6

>  <SCORE.INTER.SOLV>
14.7944

>  <SCORE.INTER.VDW>
-17.1391

>  <SCORE.INTER.norm>
-0.312565

>  <SCORE.INTRA>
-4.18662

>  <SCORE.INTRA.DIHEDRAL>
-10.3808

>  <SCORE.INTRA.DIHEDRAL.0>
16.2083

>  <SCORE.INTRA.POLAR>
0

>  <SCORE.INTRA.POLAR.0>
0

>  <SCORE.INTRA.REPUL>
0.00443675

>  <SCORE.INTRA.REPUL.0>
0

>  <SCORE.INTRA.SOLV>
0.395776

>  <SCORE.INTRA.SOLV.lig_0>
-89.8095

>  <SCORE.INTRA.VDW>
0.783689

>  <SCORE.INTRA.VDW.0>
-3.19502

>  <SCORE.INTRA.norm>
-0.113152

>  <SCORE.RESTR>
0.00249533

>  <SCORE.RESTR.CAVITY>
0.00249533

>  <SCORE.RESTR.norm>
6.74412e-05

>  <SCORE.SYSTEM>
0

>  <SCORE.SYSTEM.CONST>
0

>  <SCORE.SYSTEM.DIHEDRAL>
0

>  <SCORE.SYSTEM.SOLV>
0

>  <SCORE.SYSTEM.norm>
0

>  <SCORE.heavy>
37

>  <SCORE.norm>
-0.42565

>  <RMSD>
11.715

$$$$
2oe5_lig
 OpenBabel11021811463D
libRbt.so/2013.1/901 2013/11/27
 37 40  0  0  0  0  0  0  0  0999 V2000
   15.8718   -5.3059   43.9691 C   0  0  1  0  0  0  0  0  0  0  0  0
   15.0995   -5.4071   45.3034 C   0  0  1  0  0  0  0  0  0  0  0  0
   15.5990   -4.2781   46.2796 C   0  0  0  0  0  0  0  0  0  0  0  0
   17.1124   -4.5335   46.4584 C   0  0  1  0  0  0  0  0  0  0  0  0
   17.8913   -4.4301   45.0732 C   0  0  1  0  0  0  0  0  0  0  0  0
   19.4165   -4.6766   45.2319 C   0  0  1  0  0  0  0  0  0  0  0  0
   19.9463   -3.6013   46.2227 C   0  0  1  0  0  0  0  0  0  0  0  0
   19.1204   -3.7089   47.5603 C   0  0  2  0  0  0  0  0  0  0  0  0
   22.4126   -3.7075   45.3456 C   0  0  0  0  0  0  0  0  0  0  0  0
   13.6476   -5.2427   45.0614 N   0  0  0  0  0  0  0  0  0  0  0  0
   21.4231   -3.8009   46.4753 N   0  0  0  0  0  0  0  0  0  0  0  0
   15.6208   -4.0615   43.2957 O   0  0  0  0  0  0  0  0  0  0  0  0
   17.3255   -5.4234   44.1579 O   0  0  0  0  0  0  0  0  0  0  0  0
   17.6695   -3.5346   47.3542 O   0  0  0  0  0  0  0  0  0  0  0  0
   19.5983   -6.0021   45.7399 O   0  0  0  0  0  0  0  0  0  0  0  0
   19.5320   -2.7031   48.4648 O   0  0  0  0  0  0  0  0  0  0  0  0
   18.9043   -2.8880   49.7197 C   0  0  2  0  0  0  0  0  0  0  0  0
   19.5243   -2.0183   50.8128 C   0  0  1  0  0  0  0  0  0  0  0  0
   21.0032   -2.4155   51.0744 C   0  0  2  0  0  0  0  0  0  0  0  0
   21.0232   -3.9263   51.4523 C   0  0  1  0  0  0  0  0  0  0  0  0
   20.4147   -4.7352   50.2600 C   0  0  1  0  0  0  0  0  0  0  0  0
   20.3357   -6.2196   50.5391 C   0  0  0  0  0  0  0  0  0  0  0  0
   22.4584   -4.3223   51.7119 N   0  0  0  0  0  0  0  0  0  0  0  0
   19.0243   -4.2987   50.0851 O   0  0  0  0  0  0  0  0  0  0  0  0
   19.4305   -0.6465   50.3804 O   0  0  0  0  0  0  0  0  0  0  0  0
   21.4852   -1.6347   52.1830 O   0  0  0  0  0  0  0  0  0  0  0  0
   21.5897   -6.8107   50.5665 O   0  0  0  0  0  0  0  0  0  0  0  0
   15.4599   -4.1835   41.8823 C   0  0  1  0  0  0  0  0  0  0  0  0
   14.5447   -3.0246   41.3474 C   0  0  1  0  0  0  0  0  0  0  0  0
   14.3936   -3.1724   39.7905 C   0  0  2  0  0  0  0  0  0  0  0  0
   15.7789   -3.0736   39.1341 C   0  0  1  0  0  0  0  0  0  0  0  0
   16.6923   -4.2466   39.6615 C   0  0  0  0  0  0  0  0  0  0  0  0
   16.8331   -4.1093   41.2285 C   0  0  2  0  0  0  0  0  0  0  0  0
   15.6234   -3.1929   37.6937 N   0  0  0  0  0  0  0  0  0  0  0  0
   17.6710   -5.2120   41.7690 N   0  0  0  0  0  0  0  0  0  0  0  0
   13.2299   -3.1139   41.9678 O   0  0  0  0  0  0  0  0  0  0  0  0
   13.5917   -2.1282   39.3059 O   0  0  0  0  0  0  0  0  0  0  0  0
  1  2  1  0  0  0  0
  1 12  1  1  0  0  0
  1 13  1  0  0  0  0
  2  3  1  0  0  0  0
  2 10  1  6  0  0  0
  4  3  1  6  0  0  0
  4  5  1  0  0  0  0
  4 14  1  0  0  0  0
  5  6  1  0  0  0  0
  5 13  1  6  0  0  0
  6  7  1  0  0  0  0
  6 15  1  1  0  0  0
  7  8  1  0  0  0  0
  7 11  1  1  0  0  0
  8 14  1  0  0  0  0
  8 16  1  1  0  0  0
  9 11  1  0  0  0  0
 17 16  1  6  0  0  0
 17 18  1  0  0  0  0
 17 24  1  0  0  0  0
 18 19  1  0  0  0  0
 18 25  1  6  0  0  0
 19 20  1  0  0  0  0
 19 26  1  1  0  0  0
 20 21  1  0  0  0  0
 20 23  1  6  0  0  0
 21 22  1  1  0  0  0
 21 24  1  0  0  0  0
 22 27  1  0  0  0  0
 28 12  1  1  0  0  0
 28 29  1  0  0  0  0
 28 33  1  0  0  0  0
 29 30  1  0  0  0  0
 29 36  1  1  0  0  0
 30 31  1  0  0  0  0
 30 37  1  6  0  0  0
 31 32  1  0  0  0  0
 31 34  1  6  0  0  0
 32 33  1  0  0  0  0
 33 35  1  1  0  0  0
M  END
>  <CHROM.1>
-139.13100646,61.22301983,-173.36373442,168.03956450,-70.05756716,152.52074736
18.02383984,-3.93192797,45.83877204,2.11118663,0.26372252,-1.72905100

>  <Name>
2oe5_lig

>  <RI>
0

>  <Rbt.Current_Directory>
/home/itssahil/PROJECTS/Mol_Feturizer/New_Systems/rnas/2oe5

>  <Rbt.Executable>
rbdock ($Id: //depot/dev/client3/rdock/2013.1/src/exe/rbdock.cxx#4 $)

>  <Rbt.Library>
libRbt.so (2013.1, Build901 2013/11/27)

>  <Rbt.Parameter_File>
/export/apps/rDock/src/rDock_2013.1_src/data/scripts/dock_solv.prm

>  <Rbt.Receptor>
prm/blind_docking_100.prm

>  <SCORE>
-13.9322

>  <SCORE.INTER>
-13.7601

>  <SCORE.INTER.CONST>
1

>  <SCORE.INTER.POLAR>
-0.958874

>  <SCORE.INTER.ROT>
6

>  <SCORE.INTER.SOLV>
10.5996

>  <SCORE.INTER.VDW>
-17.1104

>  <SCORE.INTER.norm>
-0.371895

>  <SCORE.INTRA>
-0.17205

>  <SCORE.INTRA.DIHEDRAL>
-6.25568

>  <SCORE.INTRA.DIHEDRAL.0>
16.2083

>  <SCORE.INTRA.POLAR>
0

>  <SCORE.INTRA.POLAR.0>
0

>  <SCORE.INTRA.REPUL>
0

>  <SCORE.INTRA.REPUL.0>
0

>  <SCORE.INTRA.SOLV>
0.997843

>  <SCORE.INTRA.SOLV.lig_0>
-89.8095

>  <SCORE.INTRA.VDW>
2.45687

>  <SCORE.INTRA.VDW.0>
-3.19502

>  <SCORE.INTRA.norm>
-0.00464999

>  <SCORE.RESTR>
0

>  <SCORE.RESTR.CAVITY>
0

>  <SCORE.RESTR.norm>
0

>  <SCORE.SYSTEM>
0

>  <SCORE.SYSTEM.CONST>
0

>  <SCORE.SYSTEM.DIHEDRAL>
0

>  <SCORE.SYSTEM.SOLV>
0

>  <SCORE.SYSTEM.norm>
0

>  <SCORE.heavy>
37

>  <SCORE.norm>
-0.376545

>  <RMSD>
11.825

$$$$
2oe5_lig
 OpenBabel11021811463D
libRbt.so/2013.1/901 2013/11/27
 37 40  0  0  0  0  0  0  0  0999 V2000
   16.4978   -3.1847   43.8565 C   0  0  1  0  0  0  0  0  0  0  0  0
   17.8961   -3.0595   43.2112 C   0  0  1  0  0  0  0  0  0  0  0  0
   18.8884   -4.0505   43.9255 C   0  0  0  0  0  0  0  0  0  0  0  0
   18.8893   -3.6264   45.4113 C   0  0  1  0  0  0  0  0  0  0  0  0
   17.4400   -3.7571   46.0584 C   0  0  1  0  0  0  0  0  0  0  0  0
   17.4204   -3.3423   47.5550 C   0  0  1  0  0  0  0  0  0  0  0  0
   18.4204   -4.2757   48.2948 C   0  0  1  0  0  0  0  0  0  0  0  0
   19.8271   -4.1495   47.5961 C   0  0  2  0  0  0  0  0  0  0  0  0
   18.9376   -4.9185   50.7812 C   0  0  0  0  0  0  0  0  0  0  0  0
   17.8198   -3.3918   41.7699 N   0  0  0  0  0  0  0  0  0  0  0  0
   18.5022   -3.9051   49.7579 N   0  0  0  0  0  0  0  0  0  0  0  0
   15.9403   -4.4974   43.6808 O   0  0  0  0  0  0  0  0  0  0  0  0
   16.5243   -2.9027   45.2996 O   0  0  0  0  0  0  0  0  0  0  0  0
   19.7870   -4.4888   46.1604 O   0  0  0  0  0  0  0  0  0  0  0  0
   17.8157   -1.9693   47.6371 O   0  0  0  0  0  0  0  0  0  0  0  0
   20.7492   -5.0332   48.2029 O   0  0  0  0  0  0  0  0  0  0  0  0
   22.0001   -4.9614   47.5448 C   0  0  2  0  0  0  0  0  0  0  0  0
   23.0166   -5.9464   48.1208 C   0  0  1  0  0  0  0  0  0  0  0  0
   23.3535   -5.6052   49.5984 C   0  0  2  0  0  0  0  0  0  0  0  0
   23.8800   -4.1398   49.6329 C   0  0  1  0  0  0  0  0  0  0  0  0
   22.7590   -3.2056   49.0700 C   0  0  1  0  0  0  0  0  0  0  0  0
   23.1822   -1.7548   49.0078 C   0  0  0  0  0  0  0  0  0  0  0  0
   24.2137   -3.7986   51.0669 N   0  0  0  0  0  0  0  0  0  0  0  0
   22.5067   -3.5963   47.6779 O   0  0  0  0  0  0  0  0  0  0  0  0
   22.4479   -7.2668   48.0163 O   0  0  0  0  0  0  0  0  0  0  0  0
   24.3909   -6.5007   50.0376 O   0  0  0  0  0  0  0  0  0  0  0  0
   23.3958   -1.2212   50.2697 O   0  0  0  0  0  0  0  0  0  0  0  0
   15.3608   -4.7193   42.3949 C   0  0  1  0  0  0  0  0  0  0  0  0
   15.2413   -6.2615   42.1224 C   0  0  1  0  0  0  0  0  0  0  0  0
   14.5897   -6.4799   40.7095 C   0  0  2  0  0  0  0  0  0  0  0  0
   13.1895   -5.8484   40.6928 C   0  0  1  0  0  0  0  0  0  0  0  0
   13.3124   -4.2973   40.9524 C   0  0  0  0  0  0  0  0  0  0  0  0
   13.9814   -4.0749   42.3657 C   0  0  2  0  0  0  0  0  0  0  0  0
   12.5906   -6.0736   39.3876 N   0  0  0  0  0  0  0  0  0  0  0  0
   14.1358   -2.6220   42.6397 N   0  0  0  0  0  0  0  0  0  0  0  0
   16.5670   -6.8648   42.1380 O   0  0  0  0  0  0  0  0  0  0  0  0
   14.4642   -7.8565   40.4698 O   0  0  0  0  0  0  0  0  0  0  0  0
  1  2  1  0  0  0  0
  1 12  1  1  0  0  0
  1 13  1  0  0  0  0
  2  3  1  0  0  0  0
  2 10  1  6  0  0  0
  4  3  1  6  0  0  0
  4  5  1  0  0  0  0
  4 14  1  0  0  0  0
  5  6  1  0  0  0  0
  5 13  1  6  0  0  0
  6  7  1  0  0  0  0
  6 15  1  6  0  0  0
  7  8  1  0  0  0  0
  7 11  1  1  0  0  0
  8 14  1  0  0  0  0
  8 16  1  1  0  0  0
  9 11  1  0  0  0  0
 17 16  1  1  0  0  0
 17 18  1  0  0  0  0
 17 24  1  0  0  0  0
 18 19  1  0  0  0  0
 18 25  1  1  0  0  0
 19 20  1  0  0  0  0
 19 26  1  6  0  0  0
 20 21  1  0  0  0  0
 20 23  1  1  0  0  0
 21 22  1  6  0  0  0
 21 24  1  0  0  0  0
 22 27  1  0  0  0  0
 28 12  1  1  0  0  0
 28 29  1  0  0  0  0
 28 33  1  0  0  0  0
 29 30  1  0  0  0  0
 29 36  1  6  0  0  0
 30 31  1  0  0  0  0
 30 37  1  1  0  0  0
 31 32  1  0  0  0  0
 31 34  1  6  0  0  0
 32 33  1  0  0  0  0
 33 35  1  6  0  0  0
M  END
>  <CHROM.1>
-79.82849069,155.91795166,177.72178786,-177.32869631,-65.59076235,160.44856216
18.68952689,-4.43450201,45.80017812,2.64338158,0.62374842,-2.51774133

>  <Name>
2oe5_lig

>  <RI>
0

>  <Rbt.Current_Directory>
/home/itssahil/PROJECTS/Mol_Feturizer/New_Systems/rnas/2oe5

>  <Rbt.Executable>
rbdock ($Id: //depot/dev/client3/rdock/2013.1/src/exe/rbdock.cxx#4 $)

>  <Rbt.Library>
libRbt.so (2013.1, Build901 2013/11/27)

>  <Rbt.Parameter_File>
/export/apps/rDock/src/rDock_2013.1_src/data/scripts/dock_solv.prm

>  <Rbt.Receptor>
prm/blind_docking_80.prm

>  <SCORE>
-17.4942

>  <SCORE.INTER>
-13.9872

>  <SCORE.INTER.CONST>
1

>  <SCORE.INTER.POLAR>
-1.58389

>  <SCORE.INTER.ROT>
6

>  <SCORE.INTER.SOLV>
13.4414

>  <SCORE.INTER.VDW>
-16.1256

>  <SCORE.INTER.norm>
-0.378032

>  <SCORE.INTRA>
-3.50706

>  <SCORE.INTRA.DIHEDRAL>
-12.0412

>  <SCORE.INTRA.DIHEDRAL.0>
16.2083

>  <SCORE.INTRA.POLAR>
0

>  <SCORE.INTRA.POLAR.0>
0

>  <SCORE.INTRA.REPUL>
0

>  <SCORE.INTRA.REPUL.0>
0

>  <SCORE.INTRA.SOLV>
1.54895

>  <SCORE.INTRA.SOLV.lig_0>
-89.8095

>  <SCORE.INTRA.VDW>
1.73908

>  <SCORE.INTRA.VDW.0>
-3.19502

>  <SCORE.INTRA.norm>
-0.0947854

>  <SCORE.RESTR>
0

>  <SCORE.RESTR.CAVITY>
0

>  <SCORE.RESTR.norm>
0

>  <SCORE.SYSTEM>
0

>  <SCORE.SYSTEM.CONST>
0

>  <SCORE.SYSTEM.DIHEDRAL>
0

>  <SCORE.SYSTEM.SOLV>
0

>  <SCORE.SYSTEM.norm>
0

>  <SCORE.heavy>
37

>  <SCORE.norm>
-0.472817

>  <RMSD>
11.829

$$$$
2oe5_lig
 OpenBabel11021811463D
libRbt.so/2013.1/901 2013/11/27
 37 40  0  0  0  0  0  0  0  0999 V2000
   15.8930   -5.0626   43.7012 C   0  0  1  0  0  0  0  0  0  0  0  0
   15.0823   -5.4096   44.9699 C   0  0  1  0  0  0  0  0  0  0  0  0
   15.4485   -4.3932   46.1145 C   0  0  0  0  0  0  0  0  0  0  0  0
   16.9701   -4.5529   46.3303 C   0  0  1  0  0  0  0  0  0  0  0  0
   17.7892   -4.1961   45.0119 C   0  0  1  0  0  0  0  0  0  0  0  0
   19.3226   -4.3432   45.2097 C   0  0  1  0  0  0  0  0  0  0  0  0
   19.7230   -3.3795   46.3628 C   0  0  1  0  0  0  0  0  0  0  0  0
   18.8592   -3.7374   47.6313 C   0  0  2  0  0  0  0  0  0  0  0  0
   22.2127   -3.4019   45.5482 C   0  0  0  0  0  0  0  0  0  0  0  0
   13.6319   -5.3262   44.6821 N   0  0  0  0  0  0  0  0  0  0  0  0
   21.2008   -3.4971   46.6576 N   0  0  0  0  0  0  0  0  0  0  0  0
   15.5642   -3.7594   43.1928 O   0  0  0  0  0  0  0  0  0  0  0  0
   17.3433   -5.0922   43.9430 O   0  0  0  0  0  0  0  0  0  0  0  0
   17.4077   -3.6491   47.3803 O   0  0  0  0  0  0  0  0  0  0  0  0
   19.5955   -5.7086   45.5401 O   0  0  0  0  0  0  0  0  0  0  0  0
   19.1510   -2.8394   48.6837 O   0  0  0  0  0  0  0  0  0  0  0  0
   19.9828   -3.4646   49.6429 C   0  0  2  0  0  0  0  0  0  0  0  0
   19.7457   -2.9290   51.0545 C   0  0  1  0  0  0  0  0  0  0  0  0
   20.1257   -1.4262   51.1555 C   0  0  2  0  0  0  0  0  0  0  0  0
   21.6162   -1.2895   50.7247 C   0  0  1  0  0  0  0  0  0  0  0  0
   21.7503   -1.8173   49.2585 C   0  0  1  0  0  0  0  0  0  0  0  0
   23.1744   -1.7802   48.7507 C   0  0  0  0  0  0  0  0  0  0  0  0
   21.9970    0.1698   50.8224 N   0  0  0  0  0  0  0  0  0  0  0  0
   21.3744   -3.2362   49.2565 O   0  0  0  0  0  0  0  0  0  0  0  0
   18.3521   -3.1276   51.3648 O   0  0  0  0  0  0  0  0  0  0  0  0
   19.9818   -1.0212   52.5290 O   0  0  0  0  0  0  0  0  0  0  0  0
   24.0227   -2.5573   49.5248 O   0  0  0  0  0  0  0  0  0  0  0  0
   15.1911   -3.7465   41.8147 C   0  0  1  0  0  0  0  0  0  0  0  0
   14.4837   -2.3882   41.4661 C   0  0  1  0  0  0  0  0  0  0  0  0
   14.0952   -2.3924   39.9438 C   0  0  2  0  0  0  0  0  0  0  0  0
   15.3674   -2.5381   39.0953 C   0  0  1  0  0  0  0  0  0  0  0  0
   16.0690   -3.9091   39.4361 C   0  0  0  0  0  0  0  0  0  0  0  0
   16.4467   -3.9138   40.9696 C   0  0  2  0  0  0  0  0  0  0  0  0
   14.9965   -2.5216   37.6899 N   0  0  0  0  0  0  0  0  0  0  0  0
   17.0922   -5.2015   41.3373 N   0  0  0  0  0  0  0  0  0  0  0  0
   13.2768   -2.2454   42.2690 O   0  0  0  0  0  0  0  0  0  0  0  0
   13.4794   -1.1730   39.6238 O   0  0  0  0  0  0  0  0  0  0  0  0
  1  2  1  0  0  0  0
  1 12  1  1  0  0  0
  1 13  1  0  0  0  0
  2  3  1  0  0  0  0
  2 10  1  6  0  0  0
  4  3  1  6  0  0  0
  4  5  1  0  0  0  0
  4 14  1  0  0  0  0
  5  6  1  0  0  0  0
  5 13  1  6  0  0  0
  6  7  1  0  0  0  0
  6 15  1  1  0  0  0
  7  8  1  0  0  0  0
  7 11  1  1  0  0  0
  8 14  1  0  0  0  0
  8 16  1  1  0  0  0
  9 11  1  0  0  0  0
 17 16  1  6  0  0  0
 17 18  1  0  0  0  0
 17 24  1  0  0  0  0
 18 19  1  0  0  0  0
 18 25  1  6  0  0  0
 19 20  1  0  0  0  0
 19 26  1  1  0  0  0
 20 21  1  0  0  0  0
 20 23  1  6  0  0  0
 21 22  1  1  0  0  0
 21 24  1  0  0  0  0
 22 27  1  0  0  0  0
 28 12  1  1  0  0  0
 28 29  1  0  0  0  0
 28 33  1  0  0  0  0
 29 30  1  0  0  0  0
 29 36  1  1  0  0  0
 30 31  1  0  0  0  0
 30 37  1  6  0  0  0
 31 32  1  0  0  0  0
 31 34  1  6  0  0  0
 32 33  1  0  0  0  0
 33 35  1  1  0  0  0
M  END
>  <CHROM.1>
-126.58858888,50.67031274,-103.48765280,-149.35645447,60.03656366,164.47649830
18.06936313,-3.25892413,45.68567917,2.16528757,-0.12294488,-1.60612484

>  <Name>
2oe5_lig

>  <RI>
0

>  <Rbt.Current_Directory>
/home/itssahil/PROJECTS/Mol_Feturizer/New_Systems/rnas/2oe5

>  <Rbt.Executable>
rbdock ($Id: //depot/dev/client3/rdock/2013.1/src/exe/rbdock.cxx#4 $)

>  <Rbt.Library>
libRbt.so (2013.1, Build901 2013/11/27)

>  <Rbt.Parameter_File>
/export/apps/rDock/src/rDock_2013.1_src/data/scripts/dock_solv.prm

>  <Rbt.Receptor>
prm/blind_docking_100.prm

>  <SCORE>
-15.8088

>  <SCORE.INTER>
-18.6491

>  <SCORE.INTER.CONST>
1

>  <SCORE.INTER.POLAR>
-2.00167

>  <SCORE.INTER.ROT>
6

>  <SCORE.INTER.SOLV>
10.1202

>  <SCORE.INTER.VDW>
-16.7339

>  <SCORE.INTER.norm>
-0.504029

>  <SCORE.INTRA>
2.84029

>  <SCORE.INTRA.DIHEDRAL>
1.58961

>  <SCORE.INTRA.DIHEDRAL.0>
16.2083

>  <SCORE.INTRA.POLAR>
0

>  <SCORE.INTRA.POLAR.0>
0

>  <SCORE.INTRA.REPUL>
0

>  <SCORE.INTRA.REPUL.0>
0

>  <SCORE.INTRA.SOLV>
1.69395

>  <SCORE.INTRA.SOLV.lig_0>
-89.8095

>  <SCORE.INTRA.VDW>
1.19851

>  <SCORE.INTRA.VDW.0>
-3.19502

>  <SCORE.INTRA.norm>
0.0767645

>  <SCORE.RESTR>
0

>  <SCORE.RESTR.CAVITY>
0

>  <SCORE.RESTR.norm>
0

>  <SCORE.SYSTEM>
0

>  <SCORE.SYSTEM.CONST>
0

>  <SCORE.SYSTEM.DIHEDRAL>
0

>  <SCORE.SYSTEM.SOLV>
0

>  <SCORE.SYSTEM.norm>
0

>  <SCORE.heavy>
37

>  <SCORE.norm>
-0.427264

>  <RMSD>
11.851

$$$$
2oe5_lig
 OpenBabel11021811463D
libRbt.so/2013.1/901 2013/11/27
 37 40  0  0  0  0  0  0  0  0999 V2000
   15.8473   -5.2073   43.6287 C   0  0  1  0  0  0  0  0  0  0  0  0
   14.9866   -5.4517   44.8883 C   0  0  1  0  0  0  0  0  0  0  0  0
   15.3663   -4.3939   45.9902 C   0  0  0  0  0  0  0  0  0  0  0  0
   16.8725   -4.6086   46.2599 C   0  0  1  0  0  0  0  0  0  0  0  0
   17.7435   -4.3575   44.9504 C   0  0  1  0  0  0  0  0  0  0  0  0
   19.2625   -4.5611   45.2017 C   0  0  1  0  0  0  0  0  0  0  0  0
   19.6738   -3.5570   46.3159 C   0  0  1  0  0  0  0  0  0  0  0  0
   18.7596   -3.8099   47.5742 C   0  0  2  0  0  0  0  0  0  0  0  0
   22.1858   -3.6859   45.5838 C   0  0  0  0  0  0  0  0  0  0  0  0
   13.5500   -5.3199   44.5529 N   0  0  0  0  0  0  0  0  0  0  0  0
   21.1359   -3.7237   46.6609 N   0  0  0  0  0  0  0  0  0  0  0  0
   15.5923   -3.9193   43.0449 O   0  0  0  0  0  0  0  0  0  0  0  0
   17.2875   -5.2877   43.9155 O   0  0  0  0  0  0  0  0  0  0  0  0
   17.3210   -3.6713   47.2752 O   0  0  0  0  0  0  0  0  0  0  0  0
   19.4639   -5.9181   45.6094 O   0  0  0  0  0  0  0  0  0  0  0  0
   19.0621   -2.8718   48.5879 O   0  0  0  0  0  0  0  0  0  0  0  0
   19.9390   -3.4460   49.5389 C   0  0  2  0  0  0  0  0  0  0  0  0
   19.7252   -2.8796   50.9421 C   0  0  1  0  0  0  0  0  0  0  0  0
   20.0622   -1.3641   50.9928 C   0  0  2  0  0  0  0  0  0  0  0  0
   21.5353   -1.1950   50.5159 C   0  0  1  0  0  0  0  0  0  0  0  0
   21.6443   -1.7582   49.0609 C   0  0  1  0  0  0  0  0  0  0  0  0
   23.0519   -1.6927   48.5115 C   0  0  0  0  0  0  0  0  0  0  0  0
   21.8743    0.2770   50.5644 N   0  0  0  0  0  0  0  0  0  0  0  0
   21.3117   -3.1870   49.1069 O   0  0  0  0  0  0  0  0  0  0  0  0
   18.3475   -3.1108   51.2974 O   0  0  0  0  0  0  0  0  0  0  0  0
   19.9444   -0.9265   52.3587 O   0  0  0  0  0  0  0  0  0  0  0  0
   23.9381   -2.4513   49.2611 O   0  0  0  0  0  0  0  0  0  0  0  0
   14.4751   -3.8909   42.1563 C   0  0  1  0  0  0  0  0  0  0  0  0
   14.0320   -2.4055   41.9033 C   0  0  1  0  0  0  0  0  0  0  0  0
   12.8117   -2.3997   40.9137 C   0  0  2  0  0  0  0  0  0  0  0  0
   13.2339   -3.0403   39.5829 C   0  0  1  0  0  0  0  0  0  0  0  0
   13.6650   -4.5364   39.8364 C   0  0  0  0  0  0  0  0  0  0  0  0
   14.8818   -4.5460   40.8432 C   0  0  2  0  0  0  0  0  0  0  0  0
   12.1026   -3.0117   38.6706 N   0  0  0  0  0  0  0  0  0  0  0  0
   15.3053   -5.9426   41.1262 N   0  0  0  0  0  0  0  0  0  0  0  0
   13.6313   -1.7936   43.1630 O   0  0  0  0  0  0  0  0  0  0  0  0
   12.4243   -1.0734   40.6705 O   0  0  0  0  0  0  0  0  0  0  0  0
  1  2  1  0  0  0  0
  1 12  1  1  0  0  0
  1 13  1  0  0  0  0
  2  3  1  0  0  0  0
  2 10  1  6  0  0  0
  4  3  1  6  0  0  0
  4  5  1  0  0  0  0
  4 14  1  0  0  0  0
  5  6  1  0  0  0  0
  5 13  1  6  0  0  0
  6  7  1  0  0  0  0
  6 15  1  1  0  0  0
  7  8  1  0  0  0  0
  7 11  1  1  0  0  0
  8 14  1  0  0  0  0
  8 16  1  1  0  0  0
  9 11  1  0  0  0  0
 17 16  1  6  0  0  0
 17 18  1  0  0  0  0
 17 24  1  0  0  0  0
 18 19  1  0  0  0  0
 18 25  1  6  0  0  0
 19 20  1  0  0  0  0
 19 26  1  1  0  0  0
 20 21  1  0  0  0  0
 20 23  1  6  0  0  0
 21 22  1  1  0  0  0
 21 24  1  0  0  0  0
 22 27  1  0  0  0  0
 28 12  1  1  0  0  0
 28 29  1  0  0  0  0
 28 33  1  0  0  0  0
 29 30  1  0  0  0  0
 29 36  1  1  0  0  0
 30 31  1  0  0  0  0
 30 37  1  6  0  0  0
 31 32  1  0  0  0  0
 31 34  1  6  0  0  0
 32 33  1  0  0  0  0
 33 35  1  1  0  0  0
M  END
>  <CHROM.1>
-84.67021601,52.68831173,-98.09657813,-148.86308291,61.60414385,163.83130273
17.65654361,-3.35830925,45.75096186,-2.33327965,-0.35519036,1.08686350

>  <Name>
2oe5_lig

>  <RI>
0

>  <Rbt.Current_Directory>
/home/itssahil/PROJECTS/Mol_Feturizer/New_Systems/rnas/2oe5

>  <Rbt.Executable>
rbdock ($Id: //depot/dev/client3/rdock/2013.1/src/exe/rbdock.cxx#4 $)

>  <Rbt.Library>
libRbt.so (2013.1, Build901 2013/11/27)

>  <Rbt.Parameter_File>
/export/apps/rDock/src/rDock_2013.1_src/data/scripts/dock_solv.prm

>  <Rbt.Receptor>
prm/blind_docking_100.prm

>  <SCORE>
-18.0071

>  <SCORE.INTER>
-19.0476

>  <SCORE.INTER.CONST>
1

>  <SCORE.INTER.POLAR>
-2.02299

>  <SCORE.INTER.ROT>
6

>  <SCORE.INTER.SOLV>
10.6812

>  <SCORE.INTER.VDW>
-17.1155

>  <SCORE.INTER.norm>
-0.514801

>  <SCORE.INTRA>
1.0405

>  <SCORE.INTRA.DIHEDRAL>
-3.41958

>  <SCORE.INTRA.DIHEDRAL.0>
16.2083

>  <SCORE.INTRA.POLAR>
0

>  <SCORE.INTRA.POLAR.0>
0

>  <SCORE.INTRA.REPUL>
0

>  <SCORE.INTRA.REPUL.0>
0

>  <SCORE.INTRA.SOLV>
2.85044

>  <SCORE.INTRA.SOLV.lig_0>
-89.8095

>  <SCORE.INTRA.VDW>
1.32507

>  <SCORE.INTRA.VDW.0>
-3.19502

>  <SCORE.INTRA.norm>
0.0281216

>  <SCORE.RESTR>
0

>  <SCORE.RESTR.CAVITY>
0

>  <SCORE.RESTR.norm>
0

>  <SCORE.SYSTEM>
0

>  <SCORE.SYSTEM.CONST>
0

>  <SCORE.SYSTEM.DIHEDRAL>
0

>  <SCORE.SYSTEM.SOLV>
0

>  <SCORE.SYSTEM.norm>
0

>  <SCORE.heavy>
37

>  <SCORE.norm>
-0.486679

>  <RMSD>
11.901

$$$$
2oe5_lig
 OpenBabel11021811463D
libRbt.so/2013.1/901 2013/11/27
 37 40  0  0  0  0  0  0  0  0999 V2000
   15.7752   -5.2068   43.6863 C   0  0  1  0  0  0  0  0  0  0  0  0
   14.9539   -5.4852   44.9650 C   0  0  1  0  0  0  0  0  0  0  0  0
   15.3530   -4.4438   46.0756 C   0  0  0  0  0  0  0  0  0  0  0  0
   16.8687   -4.6453   46.2980 C   0  0  1  0  0  0  0  0  0  0  0  0
   17.6986   -4.3591   44.9693 C   0  0  1  0  0  0  0  0  0  0  0  0
   19.2266   -4.5490   45.1732 C   0  0  1  0  0  0  0  0  0  0  0  0
   19.6581   -3.5611   46.2941 C   0  0  1  0  0  0  0  0  0  0  0  0
   18.7834   -3.8487   47.5730 C   0  0  2  0  0  0  0  0  0  0  0  0
   22.1582   -3.5138   45.5131 C   0  0  0  0  0  0  0  0  0  0  0  0
   13.5069   -5.3646   44.6733 N   0  0  0  0  0  0  0  0  0  0  0  0
   21.1313   -3.7166   46.5940 N   0  0  0  0  0  0  0  0  0  0  0  0
   15.4886   -3.9112   43.1347 O   0  0  0  0  0  0  0  0  0  0  0  0
   17.2239   -5.2752   43.9302 O   0  0  0  0  0  0  0  0  0  0  0  0
   17.3354   -3.7219   47.3179 O   0  0  0  0  0  0  0  0  0  0  0  0
   19.4552   -5.9109   45.5489 O   0  0  0  0  0  0  0  0  0  0  0  0
   19.1042   -2.9262   48.5954 O   0  0  0  0  0  0  0  0  0  0  0  0
   19.9355   -3.5390   49.5631 C   0  0  2  0  0  0  0  0  0  0  0  0
   19.7592   -2.9261   50.9519 C   0  0  1  0  0  0  0  0  0  0  0  0
   20.2035   -1.4377   50.9688 C   0  0  2  0  0  0  0  0  0  0  0  0
   21.6860   -1.3854   50.4942 C   0  0  1  0  0  0  0  0  0  0  0  0
   21.7582   -1.9889   49.0531 C   0  0  1  0  0  0  0  0  0  0  0  0
   23.1682   -2.0370   48.5082 C   0  0  0  0  0  0  0  0  0  0  0  0
   22.1292    0.0594   50.5099 N   0  0  0  0  0  0  0  0  0  0  0  0
   21.3242   -3.3889   49.1309 O   0  0  0  0  0  0  0  0  0  0  0  0
   18.3676   -3.0499   51.3067 O   0  0  0  0  0  0  0  0  0  0  0  0
   20.1139   -0.9608   52.3236 O   0  0  0  0  0  0  0  0  0  0  0  0
   23.6749   -0.7694   48.2648 O   0  0  0  0  0  0  0  0  0  0  0  0
   14.4992   -3.9198   42.1054 C   0  0  1  0  0  0  0  0  0  0  0  0
   14.0035   -2.4551   41.8295 C   0  0  1  0  0  0  0  0  0  0  0  0
   12.9268   -2.4890   40.6858 C   0  0  2  0  0  0  0  0  0  0  0  0
   13.5597   -3.0630   39.4092 C   0  0  1  0  0  0  0  0  0  0  0  0
   14.0440   -4.5389   39.6837 C   0  0  0  0  0  0  0  0  0  0  0  0
   15.1153   -4.5095   40.8439 C   0  0  2  0  0  0  0  0  0  0  0  0
   12.5594   -3.0713   38.3545 N   0  0  0  0  0  0  0  0  0  0  0  0
   15.5821   -5.8876   41.1490 N   0  0  0  0  0  0  0  0  0  0  0  0
   13.4031   -1.9064   43.0378 O   0  0  0  0  0  0  0  0  0  0  0  0
   12.4947   -1.1803   40.4233 O   0  0  0  0  0  0  0  0  0  0  0  0
  1  2  1  0  0  0  0
  1 12  1  1  0  0  0
  1 13  1  0  0  0  0
  2  3  1  0  0  0  0
  2 10  1  6  0  0  0
  4  3  1  6  0  0  0
  4  5  1  0  0  0  0
  4 14  1  0  0  0  0
  5  6  1  0  0  0  0
  5 13  1  6  0  0  0
  6  7  1  0  0  0  0
  6 15  1  1  0  0  0
  7  8  1  0  0  0  0
  7 11  1  1  0  0  0
  8 14  1  0  0  0  0
  8 16  1  1  0  0  0
  9 11  1  0  0  0  0
 17 16  1  6  0  0  0
 17 18  1  0  0  0  0
 17 24  1  0  0  0  0
 18 19  1  0  0  0  0
 18 25  1  6  0  0  0
 19 20  1  0  0  0  0
 19 26  1  1  0  0  0
 20 21  1  0  0  0  0
 20 23  1  6  0  0  0
 21 22  1  1  0  0  0
 21 24  1  0  0  0  0
 22 27  1  0  0  0  0
 28 12  1  1  0  0  0
 28 29  1  0  0  0  0
 28 33  1  0  0  0  0
 29 30  1  0  0  0  0
 29 36  1  1  0  0  0
 30 31  1  0  0  0  0
 30 37  1  6  0  0  0
 31 32  1  0  0  0  0
 31 34  1  6  0  0  0
 32 33  1  0  0  0  0
 33 35  1  1  0  0  0
M  END
>  <CHROM.1>
-95.01979064,58.64343062,-102.43460587,-151.29657791,-68.06949358,165.84460728
17.70640321,-3.35611365,45.69019315,-2.26834501,-0.08248411,1.32947856

>  <Name>
2oe5_lig

>  <RI>
0

>  <Rbt.Current_Directory>
/home/itssahil/PROJECTS/Mol_Feturizer/New_Systems/rnas/2oe5

>  <Rbt.Executable>
rbdock ($Id: //depot/dev/client3/rdock/2013.1/src/exe/rbdock.cxx#4 $)

>  <Rbt.Library>
libRbt.so (2013.1, Build901 2013/11/27)

>  <Rbt.Parameter_File>
/export/apps/rDock/src/rDock_2013.1_src/data/scripts/dock_solv.prm

>  <Rbt.Receptor>
prm/blind_docking_60.prm

>  <SCORE>
-17.1306

>  <SCORE.INTER>
-18.8497

>  <SCORE.INTER.CONST>
1

>  <SCORE.INTER.POLAR>
-2.05332

>  <SCORE.INTER.ROT>
6

>  <SCORE.INTER.SOLV>
11.0512

>  <SCORE.INTER.VDW>
-17.0058

>  <SCORE.INTER.norm>
-0.509452

>  <SCORE.INTRA>
1.71911

>  <SCORE.INTRA.DIHEDRAL>
-1.36201

>  <SCORE.INTRA.DIHEDRAL.0>
16.2083

>  <SCORE.INTRA.POLAR>
0

>  <SCORE.INTRA.POLAR.0>
0

>  <SCORE.INTRA.REPUL>
0

>  <SCORE.INTRA.REPUL.0>
0

>  <SCORE.INTRA.SOLV>
2.59538

>  <SCORE.INTRA.SOLV.lig_0>
-89.8095

>  <SCORE.INTRA.VDW>
1.10243

>  <SCORE.INTRA.VDW.0>
-3.19502

>  <SCORE.INTRA.norm>
0.0464626

>  <SCORE.RESTR>
0

>  <SCORE.RESTR.CAVITY>
0

>  <SCORE.RESTR.norm>
0

>  <SCORE.SYSTEM>
0

>  <SCORE.SYSTEM.CONST>
0

>  <SCORE.SYSTEM.DIHEDRAL>
0

>  <SCORE.SYSTEM.SOLV>
0

>  <SCORE.SYSTEM.norm>
0

>  <SCORE.heavy>
37

>  <SCORE.norm>
-0.462989

>  <RMSD>
11.921

$$$$
2oe5_lig
 OpenBabel11021811463D
libRbt.so/2013.1/901 2013/11/27
 37 40  0  0  0  0  0  0  0  0999 V2000
   17.0783   -2.8844   42.9443 C   0  0  1  0  0  0  0  0  0  0  0  0
   18.5597   -2.6929   42.5492 C   0  0  1  0  0  0  0  0  0  0  0  0
   19.4499   -3.7004   43.3675 C   0  0  0  0  0  0  0  0  0  0  0  0
   19.1915   -3.3600   44.8523 C   0  0  1  0  0  0  0  0  0  0  0  0
   17.6597   -3.5582   45.2404 C   0  0  1  0  0  0  0  0  0  0  0  0
   17.3794   -3.2281   46.7320 C   0  0  1  0  0  0  0  0  0  0  0  0
   18.2712   -4.1794   47.5796 C   0  0  1  0  0  0  0  0  0  0  0  0
   19.7698   -3.9837   47.1333 C   0  0  2  0  0  0  0  0  0  0  0  0
   18.5069   -4.9036   50.0861 C   0  0  0  0  0  0  0  0  0  0  0  0
   18.7337   -2.9458   41.1003 N   0  0  0  0  0  0  0  0  0  0  0  0
   18.0979   -3.8893   49.0528 N   0  0  0  0  0  0  0  0  0  0  0  0
   16.5983   -4.1971   42.6107 O   0  0  0  0  0  0  0  0  0  0  0  0
   16.8566   -2.6830   44.3841 O   0  0  0  0  0  0  0  0  0  0  0  0
   19.9787   -4.2431   45.6956 O   0  0  0  0  0  0  0  0  0  0  0  0
   17.7132   -1.8535   46.9495 O   0  0  0  0  0  0  0  0  0  0  0  0
   20.6053   -4.8795   47.8395 O   0  0  0  0  0  0  0  0  0  0  0  0
   21.9260   -4.8166   47.3348 C   0  0  2  0  0  0  0  0  0  0  0  0
   22.8372   -5.8726   47.9593 C   0  0  1  0  0  0  0  0  0  0  0  0
   23.0100   -5.6336   49.4844 C   0  0  2  0  0  0  0  0  0  0  0  0
   23.5744   -4.1942   49.6725 C   0  0  1  0  0  0  0  0  0  0  0  0
   22.5564   -3.1856   49.0458 C   0  0  1  0  0  0  0  0  0  0  0  0
   23.0289   -1.7511   49.1252 C   0  0  0  0  0  0  0  0  0  0  0  0
   23.7490   -3.9524   51.1541 N   0  0  0  0  0  0  0  0  0  0  0  0
   22.4560   -3.4824   47.6118 O   0  0  0  0  0  0  0  0  0  0  0  0
   22.2435   -7.1615   47.7062 O   0  0  0  0  0  0  0  0  0  0  0  0
   23.9606   -6.5929   49.9813 O   0  0  0  0  0  0  0  0  0  0  0  0
   23.1652   -1.3206   50.4362 O   0  0  0  0  0  0  0  0  0  0  0  0
   15.2697   -4.2186   42.0881 C   0  0  1  0  0  0  0  0  0  0  0  0
   15.2369   -3.5142   40.6846 C   0  0  1  0  0  0  0  0  0  0  0  0
   13.7696   -3.5622   40.1251 C   0  0  2  0  0  0  0  0  0  0  0  0
   13.3320   -5.0268   39.9719 C   0  0  1  0  0  0  0  0  0  0  0  0
   13.3518   -5.7288   41.3843 C   0  0  0  0  0  0  0  0  0  0  0  0
   14.8227   -5.6682   41.9561 C   0  0  2  0  0  0  0  0  0  0  0  0
   11.9811   -5.0575   39.4362 N   0  0  0  0  0  0  0  0  0  0  0  0
   14.8797   -6.3016   43.2998 N   0  0  0  0  0  0  0  0  0  0  0  0
   15.6519   -2.1251   40.8250 O   0  0  0  0  0  0  0  0  0  0  0  0
   13.7394   -2.9504   38.8629 O   0  0  0  0  0  0  0  0  0  0  0  0
  1  2  1  0  0  0  0
  1 12  1  1  0  0  0
  1 13  1  0  0  0  0
  2  3  1  0  0  0  0
  2 10  1  6  0  0  0
  4  3  1  6  0  0  0
  4  5  1  0  0  0  0
  4 14  1  0  0  0  0
  5  6  1  0  0  0  0
  5 13  1  6  0  0  0
  6  7  1  0  0  0  0
  6 15  1  6  0  0  0
  7  8  1  0  0  0  0
  7 11  1  1  0  0  0
  8 14  1  0  0  0  0
  8 16  1  1  0  0  0
  9 11  1  0  0  0  0
 17 16  1  1  0  0  0
 17 18  1  0  0  0  0
 17 24  1  0  0  0  0
 18 19  1  0  0  0  0
 18 25  1  1  0  0  0
 19 20  1  0  0  0  0
 19 26  1  6  0  0  0
 20 21  1  0  0  0  0
 20 23  1  1  0  0  0
 21 22  1  6  0  0  0
 21 24  1  0  0  0  0
 22 27  1  0  0  0  0
 28 12  1  6  0  0  0
 28 29  1  0  0  0  0
 28 33  1  0  0  0  0
 29 30  1  0  0  0  0
 29 36  1  1  0  0  0
 30 31  1  0  0  0  0
 30 37  1  6  0  0  0
 31 32  1  0  0  0  0
 31 34  1  1  0  0  0
 32 33  1  0  0  0  0
 33 35  1  1  0  0  0
M  END
>  <CHROM.1>
-139.90475229,161.51811755,173.30090013,-173.79233262,-63.02739866,67.06563598
18.65645607,-4.02391111,45.34008227,-2.71340911,0.71675246,2.55802446

>  <Name>
2oe5_lig

>  <RI>
0

>  <Rbt.Current_Directory>
/home/itssahil/PROJECTS/Mol_Feturizer/New_Systems/rnas/2oe5

>  <Rbt.Executable>
rbdock ($Id: //depot/dev/client3/rdock/2013.1/src/exe/rbdock.cxx#4 $)

>  <Rbt.Library>
libRbt.so (2013.1, Build901 2013/11/27)

>  <Rbt.Parameter_File>
/export/apps/rDock/src/rDock_2013.1_src/data/scripts/dock_solv.prm

>  <Rbt.Receptor>
prm/blind_docking_80.prm

>  <SCORE>
-16.5365

>  <SCORE.INTER>
-13.3522

>  <SCORE.INTER.CONST>
1

>  <SCORE.INTER.POLAR>
-1.47434

>  <SCORE.INTER.ROT>
6

>  <SCORE.INTER.SOLV>
13.4747

>  <SCORE.INTER.VDW>
-16.0786

>  <SCORE.INTER.norm>
-0.360871

>  <SCORE.INTRA>
-3.18427

>  <SCORE.INTRA.DIHEDRAL>
-9.8204

>  <SCORE.INTRA.DIHEDRAL.0>
16.2083

>  <SCORE.INTRA.POLAR>
0

>  <SCORE.INTRA.POLAR.0>
0

>  <SCORE.INTRA.REPUL>
0

>  <SCORE.INTRA.REPUL.0>
0

>  <SCORE.INTRA.SOLV>
-0.90103

>  <SCORE.INTRA.SOLV.lig_0>
-89.8095

>  <SCORE.INTRA.VDW>
2.17645

>  <SCORE.INTRA.VDW.0>
-3.19502

>  <SCORE.INTRA.norm>
-0.0860613

>  <SCORE.RESTR>
0

>  <SCORE.RESTR.CAVITY>
0

>  <SCORE.RESTR.norm>
0

>  <SCORE.SYSTEM>
0

>  <SCORE.SYSTEM.CONST>
0

>  <SCORE.SYSTEM.DIHEDRAL>
0

>  <SCORE.SYSTEM.SOLV>
0

>  <SCORE.SYSTEM.norm>
0

>  <SCORE.heavy>
37

>  <SCORE.norm>
-0.446933

>  <RMSD>
11.945

$$$$
2oe5_lig
 OpenBabel11021811463D
libRbt.so/2013.1/901 2013/11/27
 37 40  0  0  0  0  0  0  0  0999 V2000
   14.6204   -6.5864   43.5425 C   0  0  1  0  0  0  0  0  0  0  0  0
   14.5135   -7.6343   44.6730 C   0  0  1  0  0  0  0  0  0  0  0  0
   15.0640   -7.0135   46.0104 C   0  0  0  0  0  0  0  0  0  0  0  0
   16.5289   -6.6264   45.7078 C   0  0  1  0  0  0  0  0  0  0  0  0
   16.6203   -5.5499   44.5376 C   0  0  1  0  0  0  0  0  0  0  0  0
   18.0851   -5.1412   44.2224 C   0  0  1  0  0  0  0  0  0  0  0  0
   18.6818   -4.5550   45.5335 C   0  0  1  0  0  0  0  0  0  0  0  0
   18.5308   -5.6329   46.6730 C   0  0  2  0  0  0  0  0  0  0  0  0
   20.7665   -3.1005   46.1670 C   0  0  0  0  0  0  0  0  0  0  0  0
   13.0998   -8.0341   44.8603 N   0  0  0  0  0  0  0  0  0  0  0  0
   20.1307   -4.1761   45.3288 N   0  0  0  0  0  0  0  0  0  0  0  0
   13.8101   -5.4289   43.8041 O   0  0  0  0  0  0  0  0  0  0  0  0
   16.0022   -6.1250   43.3412 O   0  0  0  0  0  0  0  0  0  0  0  0
   17.1301   -6.0415   46.8940 O   0  0  0  0  0  0  0  0  0  0  0  0
   18.7879   -6.3130   43.7968 O   0  0  0  0  0  0  0  0  0  0  0  0
   19.0062   -5.1110   47.8981 O   0  0  0  0  0  0  0  0  0  0  0  0
   18.7402   -6.0180   48.9515 C   0  0  2  0  0  0  0  0  0  0  0  0
   18.3168   -5.3073   50.2365 C   0  0  1  0  0  0  0  0  0  0  0  0
   19.4647   -4.4196   50.7909 C   0  0  2  0  0  0  0  0  0  0  0  0
   20.7018   -5.3388   51.0155 C   0  0  1  0  0  0  0  0  0  0  0  0
   21.0867   -5.9822   49.6428 C   0  0  1  0  0  0  0  0  0  0  0  0
   22.2512   -6.9411   49.7515 C   0  0  0  0  0  0  0  0  0  0  0  0
   21.8242   -4.4845   51.5581 N   0  0  0  0  0  0  0  0  0  0  0  0
   19.9517   -6.7990   49.1965 O   0  0  0  0  0  0  0  0  0  0  0  0
   17.1555   -4.5109   49.9288 O   0  0  0  0  0  0  0  0  0  0  0  0
   19.0360   -3.8718   52.0508 O   0  0  0  0  0  0  0  0  0  0  0  0
   22.6094   -7.4655   48.5189 O   0  0  0  0  0  0  0  0  0  0  0  0
   13.9168   -4.4048   42.8150 C   0  0  1  0  0  0  0  0  0  0  0  0
   13.0873   -4.8036   41.5423 C   0  0  1  0  0  0  0  0  0  0  0  0
   13.2092   -3.6570   40.4751 C   0  0  2  0  0  0  0  0  0  0  0  0
   12.6474   -2.3539   41.0633 C   0  0  1  0  0  0  0  0  0  0  0  0
   13.4904   -1.9470   42.3329 C   0  0  0  0  0  0  0  0  0  0  0  0
   13.3822   -3.1051   43.4013 C   0  0  2  0  0  0  0  0  0  0  0  0
   12.7486   -1.3064   40.0604 N   0  0  0  0  0  0  0  0  0  0  0  0
   14.1833   -2.7695   44.6078 N   0  0  0  0  0  0  0  0  0  0  0  0
   13.6162   -6.0394   40.9814 O   0  0  0  0  0  0  0  0  0  0  0  0
   12.4544   -4.0009   39.3436 O   0  0  0  0  0  0  0  0  0  0  0  0
  1  2  1  0  0  0  0
  1 12  1  1  0  0  0
  1 13  1  0  0  0  0
  2  3  1  0  0  0  0
  2 10  1  1  0  0  0
  4  3  1  1  0  0  0
  4  5  1  0  0  0  0
  4 14  1  0  0  0  0
  5  6  1  0  0  0  0
  5 13  1  6  0  0  0
  6  7  1  0  0  0  0
  6 15  1  1  0  0  0
  7  8  1  0  0  0  0
  7 11  1  6  0  0  0
  8 14  1  0  0  0  0
  8 16  1  1  0  0  0
  9 11  1  0  0  0  0
 17 16  1  6  0  0  0
 17 18  1  0  0  0  0
 17 24  1  0  0  0  0
 18 19  1  0  0  0  0
 18 25  1  6  0  0  0
 19 20  1  0  0  0  0
 19 26  1  1  0  0  0
 20 21  1  0  0  0  0
 20 23  1  6  0  0  0
 21 22  1  1  0  0  0
 21 24  1  0  0  0  0
 22 27  1  0  0  0  0
 28 12  1  1  0  0  0
 28 29  1  0  0  0  0
 28 33  1  0  0  0  0
 29 30  1  0  0  0  0
 29 36  1  6  0  0  0
 30 31  1  0  0  0  0
 30 37  1  6  0  0  0
 31 32  1  0  0  0  0
 31 34  1  6  0  0  0
 32 33  1  0  0  0  0
 33 35  1  1  0  0  0
M  END
>  <CHROM.1>
177.51878511,153.80293096,173.65882923,-141.12884608,-177.85251611,76.97839231
16.92995536,-5.11385883,45.72595906,3.10085894,-0.86140945,0.11178297

>  <Name>
2oe5_lig

>  <RI>
0

>  <Rbt.Current_Directory>
/home/itssahil/PROJECTS/Mol_Feturizer/New_Systems/rnas/2oe5

>  <Rbt.Executable>
rbdock ($Id: //depot/dev/client3/rdock/2013.1/src/exe/rbdock.cxx#4 $)

>  <Rbt.Library>
libRbt.so (2013.1, Build901 2013/11/27)

>  <Rbt.Parameter_File>
/export/apps/rDock/src/rDock_2013.1_src/data/scripts/dock_solv.prm

>  <Rbt.Receptor>
prm/blind_docking_80.prm

>  <SCORE>
-24.3294

>  <SCORE.INTER>
-19.5472

>  <SCORE.INTER.CONST>
1

>  <SCORE.INTER.POLAR>
-2.65666

>  <SCORE.INTER.ROT>
6

>  <SCORE.INTER.SOLV>
14.4757

>  <SCORE.INTER.VDW>
-16.6012

>  <SCORE.INTER.norm>
-0.528304

>  <SCORE.INTRA>
-4.7822

>  <SCORE.INTRA.DIHEDRAL>
-8.85374

>  <SCORE.INTRA.DIHEDRAL.0>
16.2083

>  <SCORE.INTRA.POLAR>
0

>  <SCORE.INTRA.POLAR.0>
0

>  <SCORE.INTRA.REPUL>
0

>  <SCORE.INTRA.REPUL.0>
0

>  <SCORE.INTRA.SOLV>
-2.8613

>  <SCORE.INTRA.SOLV.lig_0>
-89.8095

>  <SCORE.INTRA.VDW>
1.07532

>  <SCORE.INTRA.VDW.0>
-3.19502

>  <SCORE.INTRA.norm>
-0.129249

>  <SCORE.RESTR>
0

>  <SCORE.RESTR.CAVITY>
0

>  <SCORE.RESTR.norm>
0

>  <SCORE.SYSTEM>
0

>  <SCORE.SYSTEM.CONST>
0

>  <SCORE.SYSTEM.DIHEDRAL>
0

>  <SCORE.SYSTEM.SOLV>
0

>  <SCORE.SYSTEM.norm>
0

>  <SCORE.heavy>
37

>  <SCORE.norm>
-0.657552

>  <RMSD>
12.142

$$$$
2oe5_lig
 OpenBabel11021811463D
libRbt.so/2013.1/901 2013/11/27
 37 40  0  0  0  0  0  0  0  0999 V2000
   15.2201   -6.1617   44.0820 C   0  0  1  0  0  0  0  0  0  0  0  0
   14.5907   -6.7341   45.3718 C   0  0  1  0  0  0  0  0  0  0  0  0
   15.0672   -5.8806   46.6053 C   0  0  0  0  0  0  0  0  0  0  0  0
   16.6084   -5.9912   46.6070 C   0  0  1  0  0  0  0  0  0  0  0  0
   17.2393   -5.4014   45.2690 C   0  0  1  0  0  0  0  0  0  0  0  0
   18.7895   -5.4963   45.2535 C   0  0  1  0  0  0  0  0  0  0  0  0
   19.3026   -4.6943   46.4832 C   0  0  1  0  0  0  0  0  0  0  0  0
   18.6210   -5.2802   47.7775 C   0  0  2  0  0  0  0  0  0  0  0  0
   21.6777   -3.9417   45.6736 C   0  0  0  0  0  0  0  0  0  0  0  0
   13.1134   -6.6844   45.2791 N   0  0  0  0  0  0  0  0  0  0  0  0
   20.8091   -4.7775   46.5741 N   0  0  0  0  0  0  0  0  0  0  0  0
   14.7861   -4.8164   43.8233 O   0  0  0  0  0  0  0  0  0  0  0  0
   16.6896   -6.1514   44.1378 O   0  0  0  0  0  0  0  0  0  0  0  0
   17.1471   -5.2313   47.7219 O   0  0  0  0  0  0  0  0  0  0  0  0
   19.1472   -6.8796   45.3349 O   0  0  0  0  0  0  0  0  0  0  0  0
   19.0158   -4.5339   48.9117 O   0  0  0  0  0  0  0  0  0  0  0  0
   19.0249   -5.3598   50.0610 C   0  0  2  0  0  0  0  0  0  0  0  0
   19.2496   -4.5639   51.3461 C   0  0  1  0  0  0  0  0  0  0  0  0
   20.6530   -3.8978   51.3554 C   0  0  2  0  0  0  0  0  0  0  0  0
   21.7098   -5.0284   51.1795 C   0  0  1  0  0  0  0  0  0  0  0  0
   21.4278   -5.7523   49.8221 C   0  0  1  0  0  0  0  0  0  0  0  0
   22.3678   -6.9100   49.5694 C   0  0  0  0  0  0  0  0  0  0  0  0
   23.0799   -4.3906   51.1901 N   0  0  0  0  0  0  0  0  0  0  0  0
   20.0894   -6.3494   49.9018 O   0  0  0  0  0  0  0  0  0  0  0  0
   18.2095   -3.5693   51.4274 O   0  0  0  0  0  0  0  0  0  0  0  0
   20.8361   -3.2613   52.6331 O   0  0  0  0  0  0  0  0  0  0  0  0
   22.1388   -7.5063   48.3388 O   0  0  0  0  0  0  0  0  0  0  0  0
   13.7830   -4.7098   42.8129 C   0  0  1  0  0  0  0  0  0  0  0  0
   13.9364   -5.8852   41.7825 C   0  0  1  0  0  0  0  0  0  0  0  0
   12.8151   -5.7540   40.6898 C   0  0  2  0  0  0  0  0  0  0  0  0
   11.4371   -5.8415   41.3630 C   0  0  1  0  0  0  0  0  0  0  0  0
   11.2790   -4.6522   42.3870 C   0  0  0  0  0  0  0  0  0  0  0  0
   12.4146   -4.7728   43.4779 C   0  0  2  0  0  0  0  0  0  0  0  0
   10.4095   -5.7379   40.3400 N   0  0  0  0  0  0  0  0  0  0  0  0
   12.3139   -3.6546   44.4523 N   0  0  0  0  0  0  0  0  0  0  0  0
   15.2422   -5.8066   41.1420 O   0  0  0  0  0  0  0  0  0  0  0  0
   12.9371   -6.8129   39.7775 O   0  0  0  0  0  0  0  0  0  0  0  0
  1  2  1  0  0  0  0
  1 12  1  1  0  0  0
  1 13  1  0  0  0  0
  2  3  1  0  0  0  0
  2 10  1  6  0  0  0
  4  3  1  6  0  0  0
  4  5  1  0  0  0  0
  4 14  1  0  0  0  0
  5  6  1  0  0  0  0
  5 13  1  6  0  0  0
  6  7  1  0  0  0  0
  6 15  1  1  0  0  0
  7  8  1  0  0  0  0
  7 11  1  1  0  0  0
  8 14  1  0  0  0  0
  8 16  1  1  0  0  0
  9 11  1  0  0  0  0
 17 16  1  6  0  0  0
 17 18  1  0  0  0  0
 17 24  1  0  0  0  0
 18 19  1  0  0  0  0
 18 25  1  6  0  0  0
 19 20  1  0  0  0  0
 19 26  1  1  0  0  0
 20 21  1  0  0  0  0
 20 23  1  6  0  0  0
 21 22  1  1  0  0  0
 21 24  1  0  0  0  0
 22 27  1  0  0  0  0
 28 12  1  1  0  0  0
 28 29  1  0  0  0  0
 28 33  1  0  0  0  0
 29 30  1  0  0  0  0
 29 36  1  6  0  0  0
 30 31  1  0  0  0  0
 30 37  1  6  0  0  0
 31 32  1  0  0  0  0
 31 34  1  6  0  0  0
 32 33  1  0  0  0  0
 33 35  1  1  0  0  0
M  END
>  <CHROM.1>
-102.21569931,77.59035573,-149.91558973,-171.83156507,-177.59184600,-28.91078197
17.15991052,-5.37908098,46.23385876,-2.37274888,-0.20431229,1.28589126

>  <Name>
2oe5_lig

>  <RI>
0

>  <Rbt.Current_Directory>
/home/itssahil/PROJECTS/Mol_Feturizer/New_Systems/rnas/2oe5

>  <Rbt.Executable>
rbdock ($Id: //depot/dev/client3/rdock/2013.1/src/exe/rbdock.cxx#4 $)

>  <Rbt.Library>
libRbt.so (2013.1, Build901 2013/11/27)

>  <Rbt.Parameter_File>
/export/apps/rDock/src/rDock_2013.1_src/data/scripts/dock_solv.prm

>  <Rbt.Receptor>
prm/blind_docking_60.prm

>  <SCORE>
-11.181

>  <SCORE.INTER>
-13.7165

>  <SCORE.INTER.CONST>
1

>  <SCORE.INTER.POLAR>
-1.29755

>  <SCORE.INTER.ROT>
6

>  <SCORE.INTER.SOLV>
12.3245

>  <SCORE.INTER.VDW>
-16.5273

>  <SCORE.INTER.norm>
-0.370716

>  <SCORE.INTRA>
2.53551

>  <SCORE.INTRA.DIHEDRAL>
-2.46376

>  <SCORE.INTRA.DIHEDRAL.0>
16.2083

>  <SCORE.INTRA.POLAR>
0

>  <SCORE.INTRA.POLAR.0>
0

>  <SCORE.INTRA.REPUL>
0

>  <SCORE.INTRA.REPUL.0>
0

>  <SCORE.INTRA.SOLV>
2.51371

>  <SCORE.INTRA.SOLV.lig_0>
-89.8095

>  <SCORE.INTRA.VDW>
2.51054

>  <SCORE.INTRA.VDW.0>
-3.19502

>  <SCORE.INTRA.norm>
0.0685273

>  <SCORE.RESTR>
0

>  <SCORE.RESTR.CAVITY>
0

>  <SCORE.RESTR.norm>
0

>  <SCORE.SYSTEM>
0

>  <SCORE.SYSTEM.CONST>
0

>  <SCORE.SYSTEM.DIHEDRAL>
0

>  <SCORE.SYSTEM.SOLV>
0

>  <SCORE.SYSTEM.norm>
0

>  <SCORE.heavy>
37

>  <SCORE.norm>
-0.302188

>  <RMSD>
12.150

$$$$
2oe5_lig
 OpenBabel11021811463D
libRbt.so/2013.1/901 2013/11/27
 37 40  0  0  0  0  0  0  0  0999 V2000
   15.9435   -6.5116   42.6064 C   0  0  1  0  0  0  0  0  0  0  0  0
   16.1973   -7.6649   43.6028 C   0  0  1  0  0  0  0  0  0  0  0  0
   16.3925   -7.0701   45.0469 C   0  0  0  0  0  0  0  0  0  0  0  0
   17.6029   -6.1162   44.9350 C   0  0  1  0  0  0  0  0  0  0  0  0
   17.3256   -4.9373   43.9008 C   0  0  1  0  0  0  0  0  0  0  0  0
   18.5281   -3.9619   43.7788 C   0  0  1  0  0  0  0  0  0  0  0  0
   18.7806   -3.3776   45.1977 C   0  0  1  0  0  0  0  0  0  0  0  0
   19.0052   -4.5764   46.1955 C   0  0  2  0  0  0  0  0  0  0  0  0
   21.3654   -2.9902   45.3754 C   0  0  0  0  0  0  0  0  0  0  0  0
   15.0448   -8.5950   43.6044 N   0  0  0  0  0  0  0  0  0  0  0  0
   19.9744   -2.4508   45.1803 N   0  0  0  0  0  0  0  0  0  0  0  0
   14.7330   -5.7980   42.9071 O   0  0  0  0  0  0  0  0  0  0  0  0
   17.0433   -5.5353   42.5943 O   0  0  0  0  0  0  0  0  0  0  0  0
   17.8664   -5.5144   46.2308 O   0  0  0  0  0  0  0  0  0  0  0  0
   19.6537   -4.7072   43.3036 O   0  0  0  0  0  0  0  0  0  0  0  0
   19.1757   -4.0854   47.5105 O   0  0  0  0  0  0  0  0  0  0  0  0
   19.1490   -5.1539   48.4382 C   0  0  2  0  0  0  0  0  0  0  0  0
   18.5996   -4.7276   49.7991 C   0  0  1  0  0  0  0  0  0  0  0  0
   19.5222   -3.6740   50.4715 C   0  0  2  0  0  0  0  0  0  0  0  0
   20.9429   -4.3014   50.5887 C   0  0  1  0  0  0  0  0  0  0  0  0
   21.4374   -4.6609   49.1491 C   0  0  1  0  0  0  0  0  0  0  0  0
   22.7943   -5.3289   49.1457 C   0  0  0  0  0  0  0  0  0  0  0  0
   21.8482   -3.2846   51.2449 N   0  0  0  0  0  0  0  0  0  0  0  0
   20.5133   -5.6564   48.5930 O   0  0  0  0  0  0  0  0  0  0  0  0
   17.2793   -4.1906   49.5845 O   0  0  0  0  0  0  0  0  0  0  0  0
   19.0048   -3.4030   51.7868 O   0  0  0  0  0  0  0  0  0  0  0  0
   23.7999   -4.4651   49.5522 O   0  0  0  0  0  0  0  0  0  0  0  0
   14.6160   -4.5393   42.2433 C   0  0  1  0  0  0  0  0  0  0  0  0
   14.4032   -4.7656   40.7037 C   0  0  1  0  0  0  0  0  0  0  0  0
   14.2641   -3.3687   39.9982 C   0  0  2  0  0  0  0  0  0  0  0  0
   13.0511   -2.6255   40.5777 C   0  0  1  0  0  0  0  0  0  0  0  0
   13.2727   -2.3863   42.1210 C   0  0  0  0  0  0  0  0  0  0  0  0
   13.4284   -3.7887   42.8305 C   0  0  2  0  0  0  0  0  0  0  0  0
   12.9224   -1.3438   39.9040 N   0  0  0  0  0  0  0  0  0  0  0  0
   13.6617   -3.6060   44.2873 N   0  0  0  0  0  0  0  0  0  0  0  0
   15.5510   -5.4708   40.1500 O   0  0  0  0  0  0  0  0  0  0  0  0
   14.0553   -3.5667   38.6251 O   0  0  0  0  0  0  0  0  0  0  0  0
  1  2  1  0  0  0  0
  1 12  1  1  0  0  0
  1 13  1  0  0  0  0
  2  3  1  0  0  0  0
  2 10  1  1  0  0  0
  4  3  1  1  0  0  0
  4  5  1  0  0  0  0
  4 14  1  0  0  0  0
  5  6  1  0  0  0  0
  5 13  1  6  0  0  0
  6  7  1  0  0  0  0
  6 15  1  1  0  0  0
  7  8  1  0  0  0  0
  7 11  1  6  0  0  0
  8 14  1  0  0  0  0
  8 16  1  1  0  0  0
  9 11  1  0  0  0  0
 17 16  1  6  0  0  0
 17 18  1  0  0  0  0
 17 24  1  0  0  0  0
 18 19  1  0  0  0  0
 18 25  1  6  0  0  0
 19 20  1  0  0  0  0
 19 26  1  1  0  0  0
 20 21  1  0  0  0  0
 20 23  1  6  0  0  0
 21 22  1  1  0  0  0
 21 24  1  0  0  0  0
 22 27  1  0  0  0  0
 28 12  1  1  0  0  0
 28 29  1  0  0  0  0
 28 33  1  0  0  0  0
 29 30  1  0  0  0  0
 29 36  1  6  0  0  0
 30 31  1  0  0  0  0
 30 37  1  6  0  0  0
 31 32  1  0  0  0  0
 31 34  1  6  0  0  0
 32 33  1  0  0  0  0
 33 35  1  1  0  0  0
M  END
>  <CHROM.1>
165.22090422,-86.91480804,170.04434995,-149.82623080,-67.36912672,69.41990976
17.57326074,-4.54924243,45.20360220,-2.24661977,-0.21853858,1.41123900

>  <Name>
2oe5_lig

>  <RI>
0

>  <Rbt.Current_Directory>
/home/itssahil/PROJECTS/Mol_Feturizer/New_Systems/rnas/2oe5

>  <Rbt.Executable>
rbdock ($Id: //depot/dev/client3/rdock/2013.1/src/exe/rbdock.cxx#4 $)

>  <Rbt.Library>
libRbt.so (2013.1, Build901 2013/11/27)

>  <Rbt.Parameter_File>
/export/apps/rDock/src/rDock_2013.1_src/data/scripts/dock_solv.prm

>  <Rbt.Receptor>
prm/blind_docking_80.prm

>  <SCORE>
-23.6607

>  <SCORE.INTER>
-21.9352

>  <SCORE.INTER.CONST>
1

>  <SCORE.INTER.POLAR>
-3.79324

>  <SCORE.INTER.ROT>
6

>  <SCORE.INTER.SOLV>
10.5349

>  <SCORE.INTER.VDW>
-13.091

>  <SCORE.INTER.norm>
-0.592844

>  <SCORE.INTRA>
-2.29908

>  <SCORE.INTRA.DIHEDRAL>
-9.86548

>  <SCORE.INTRA.DIHEDRAL.0>
16.2083

>  <SCORE.INTRA.POLAR>
0

>  <SCORE.INTRA.POLAR.0>
0

>  <SCORE.INTRA.REPUL>
0

>  <SCORE.INTRA.REPUL.0>
0

>  <SCORE.INTRA.SOLV>
-1.80599

>  <SCORE.INTRA.SOLV.lig_0>
-89.8095

>  <SCORE.INTRA.VDW>
3.53665

>  <SCORE.INTRA.VDW.0>
-3.19502

>  <SCORE.INTRA.norm>
-0.0621373

>  <SCORE.RESTR>
0.573631

>  <SCORE.RESTR.CAVITY>
0.573631

>  <SCORE.RESTR.norm>
0.0155035

>  <SCORE.SYSTEM>
0

>  <SCORE.SYSTEM.CONST>
0

>  <SCORE.SYSTEM.DIHEDRAL>
0

>  <SCORE.SYSTEM.SOLV>
0

>  <SCORE.SYSTEM.norm>
0

>  <SCORE.heavy>
37

>  <SCORE.norm>
-0.639478

>  <RMSD>
12.215

$$$$
2oe5_lig
 OpenBabel11021811463D
libRbt.so/2013.1/901 2013/11/27
 37 40  0  0  0  0  0  0  0  0999 V2000
   14.0957   -6.7346   44.0043 C   0  0  1  0  0  0  0  0  0  0  0  0
   13.8785   -7.3734   45.3943 C   0  0  1  0  0  0  0  0  0  0  0  0
   14.3705   -6.3753   46.5073 C   0  0  0  0  0  0  0  0  0  0  0  0
   15.8653   -6.1296   46.2031 C   0  0  1  0  0  0  0  0  0  0  0  0
   16.0706   -5.4758   44.7655 C   0  0  1  0  0  0  0  0  0  0  0  0
   17.5670   -5.2137   44.4426 C   0  0  1  0  0  0  0  0  0  0  0  0
   18.1053   -4.2574   45.5447 C   0  0  1  0  0  0  0  0  0  0  0  0
   17.8424   -4.9211   46.9495 C   0  0  2  0  0  0  0  0  0  0  0  0
   20.0636   -3.3310   44.0717 C   0  0  0  0  0  0  0  0  0  0  0  0
   12.4413   -7.6681   45.5968 N   0  0  0  0  0  0  0  0  0  0  0  0
   19.5778   -3.9887   45.3348 N   0  0  0  0  0  0  0  0  0  0  0  0
   13.3174   -5.5386   43.8349 O   0  0  0  0  0  0  0  0  0  0  0  0
   15.5044   -6.3852   43.7672 O   0  0  0  0  0  0  0  0  0  0  0  0
   16.4157   -5.2139   47.1876 O   0  0  0  0  0  0  0  0  0  0  0  0
   18.2474   -6.4727   44.4536 O   0  0  0  0  0  0  0  0  0  0  0  0
   18.2624   -4.0506   47.9816 O   0  0  0  0  0  0  0  0  0  0  0  0
   19.6257   -4.2767   48.2867 C   0  0  2  0  0  0  0  0  0  0  0  0
   19.8169   -5.4308   49.2702 C   0  0  1  0  0  0  0  0  0  0  0  0
   19.1763   -5.1061   50.6476 C   0  0  2  0  0  0  0  0  0  0  0  0
   19.8226   -3.7873   51.1661 C   0  0  1  0  0  0  0  0  0  0  0  0
   19.5360   -2.6599   50.1206 C   0  0  1  0  0  0  0  0  0  0  0  0
   20.1655   -1.3375   50.4978 C   0  0  0  0  0  0  0  0  0  0  0  0
   19.2077   -3.4638   52.5083 N   0  0  0  0  0  0  0  0  0  0  0  0
   20.1745   -3.0473   48.8570 O   0  0  0  0  0  0  0  0  0  0  0  0
   19.2123   -6.6020   48.6867 O   0  0  0  0  0  0  0  0  0  0  0  0
   19.4884   -6.1831   51.5496 O   0  0  0  0  0  0  0  0  0  0  0  0
   21.5460   -1.4271   50.5917 O   0  0  0  0  0  0  0  0  0  0  0  0
   13.4968   -4.8984   42.5713 C   0  0  1  0  0  0  0  0  0  0  0  0
   12.8296   -5.7575   41.4383 C   0  0  1  0  0  0  0  0  0  0  0  0
   13.0284   -5.0271   40.0616 C   0  0  2  0  0  0  0  0  0  0  0  0
   12.3576   -3.6463   40.1176 C   0  0  1  0  0  0  0  0  0  0  0  0
   13.0382   -2.7797   41.2463 C   0  0  0  0  0  0  0  0  0  0  0  0
   12.8533   -3.5195   42.6294 C   0  0  2  0  0  0  0  0  0  0  0  0
   12.5322   -2.9892   38.8328 N   0  0  0  0  0  0  0  0  0  0  0  0
   13.5019   -2.7439   43.7192 N   0  0  0  0  0  0  0  0  0  0  0  0
   13.4623   -7.0683   41.3819 O   0  0  0  0  0  0  0  0  0  0  0  0
   12.4177   -5.7821   39.0490 O   0  0  0  0  0  0  0  0  0  0  0  0
  1  2  1  0  0  0  0
  1 12  1  1  0  0  0
  1 13  1  0  0  0  0
  2  3  1  0  0  0  0
  2 10  1  1  0  0  0
  4  3  1  1  0  0  0
  4  5  1  0  0  0  0
  4 14  1  0  0  0  0
  5  6  1  0  0  0  0
  5 13  1  6  0  0  0
  6  7  1  0  0  0  0
  6 15  1  1  0  0  0
  7  8  1  0  0  0  0
  7 11  1  6  0  0  0
  8 14  1  0  0  0  0
  8 16  1  1  0  0  0
  9 11  1  0  0  0  0
 17 16  1  1  0  0  0
 17 18  1  0  0  0  0
 17 24  1  0  0  0  0
 18 19  1  0  0  0  0
 18 25  1  6  0  0  0
 19 20  1  0  0  0  0
 19 26  1  1  0  0  0
 20 21  1  0  0  0  0
 20 23  1  1  0  0  0
 21 22  1  1  0  0  0
 21 24  1  0  0  0  0
 22 27  1  0  0  0  0
 28 12  1  1  0  0  0
 28 29  1  0  0  0  0
 28 33  1  0  0  0  0
 29 30  1  0  0  0  0
 29 36  1  6  0  0  0
 30 31  1  0  0  0  0
 30 37  1  6  0  0  0
 31 32  1  0  0  0  0
 31 34  1  6  0  0  0
 32 33  1  0  0  0  0
 33 35  1  1  0  0  0
M  END
>  <CHROM.1>
179.17671563,60.98439328,-88.75268013,-84.10554241,60.61556193,71.00664454
16.49800897,-4.78591204,45.67711985,2.57764641,-0.75776071,-0.88397623

>  <Name>
2oe5_lig

>  <RI>
0

>  <Rbt.Current_Directory>
/home/itssahil/PROJECTS/Mol_Feturizer/New_Systems/rnas/2oe5

>  <Rbt.Executable>
rbdock ($Id: //depot/dev/client3/rdock/2013.1/src/exe/rbdock.cxx#4 $)

>  <Rbt.Library>
libRbt.so (2013.1, Build901 2013/11/27)

>  <Rbt.Parameter_File>
/export/apps/rDock/src/rDock_2013.1_src/data/scripts/dock_solv.prm

>  <Rbt.Receptor>
prm/blind_docking_80.prm

>  <SCORE>
-13.5632

>  <SCORE.INTER>
-9.56103

>  <SCORE.INTER.CONST>
1

>  <SCORE.INTER.POLAR>
-1.0583

>  <SCORE.INTER.ROT>
6

>  <SCORE.INTER.SOLV>
16.1874

>  <SCORE.INTER.VDW>
-15.8421

>  <SCORE.INTER.norm>
-0.258406

>  <SCORE.INTRA>
-4.00221

>  <SCORE.INTRA.DIHEDRAL>
-9.68305

>  <SCORE.INTRA.DIHEDRAL.0>
16.2083

>  <SCORE.INTRA.POLAR>
0

>  <SCORE.INTRA.POLAR.0>
0

>  <SCORE.INTRA.REPUL>
0

>  <SCORE.INTRA.REPUL.0>
0

>  <SCORE.INTRA.SOLV>
-1.49523

>  <SCORE.INTRA.SOLV.lig_0>
-89.8095

>  <SCORE.INTRA.VDW>
1.58693

>  <SCORE.INTRA.VDW.0>
-3.19502

>  <SCORE.INTRA.norm>
-0.108168

>  <SCORE.RESTR>
0

>  <SCORE.RESTR.CAVITY>
0

>  <SCORE.RESTR.norm>
0

>  <SCORE.SYSTEM>
0

>  <SCORE.SYSTEM.CONST>
0

>  <SCORE.SYSTEM.DIHEDRAL>
0

>  <SCORE.SYSTEM.SOLV>
0

>  <SCORE.SYSTEM.norm>
0

>  <SCORE.heavy>
37

>  <SCORE.norm>
-0.366574

>  <RMSD>
12.541

$$$$
2oe5_lig
 OpenBabel11021811463D
libRbt.so/2013.1/901 2013/11/27
 37 40  0  0  0  0  0  0  0  0999 V2000
   15.0483   -3.4647   41.6773 C   0  0  1  0  0  0  0  0  0  0  0  0
   14.1985   -3.4252   42.9670 C   0  0  1  0  0  0  0  0  0  0  0  0
   14.9981   -2.6703   44.0930 C   0  0  0  0  0  0  0  0  0  0  0  0
   16.3035   -3.4763   44.2767 C   0  0  1  0  0  0  0  0  0  0  0  0
   17.1638   -3.5106   42.9369 C   0  0  1  0  0  0  0  0  0  0  0  0
   18.4849   -4.3104   43.1021 C   0  0  1  0  0  0  0  0  0  0  0  0
   19.2925   -3.6178   44.2365 C   0  0  1  0  0  0  0  0  0  0  0  0
   18.3902   -3.5650   45.5273 C   0  0  2  0  0  0  0  0  0  0  0  0
   21.7951   -3.6438   45.0105 C   0  0  0  0  0  0  0  0  0  0  0  0
   12.9223   -2.7188   42.7106 N   0  0  0  0  0  0  0  0  0  0  0  0
   20.5786   -4.3670   44.4996 N   0  0  0  0  0  0  0  0  0  0  0  0
   15.3070   -2.1479   41.1634 O   0  0  0  0  0  0  0  0  0  0  0  0
   16.3468   -4.1226   41.8871 O   0  0  0  0  0  0  0  0  0  0  0  0
   17.1159   -2.8537   45.3077 O   0  0  0  0  0  0  0  0  0  0  0  0
   18.1445   -5.6588   43.4400 O   0  0  0  0  0  0  0  0  0  0  0  0
   19.0690   -2.8842   46.5640 O   0  0  0  0  0  0  0  0  0  0  0  0
   18.7442   -3.4550   47.8177 C   0  0  2  0  0  0  0  0  0  0  0  0
   19.5751   -2.8654   48.9568 C   0  0  1  0  0  0  0  0  0  0  0  0
   21.0832   -3.1923   48.7787 C   0  0  2  0  0  0  0  0  0  0  0  0
   21.2212   -4.7417   48.7001 C   0  0  1  0  0  0  0  0  0  0  0  0
   20.3778   -5.2451   47.4829 C   0  0  1  0  0  0  0  0  0  0  0  0
   20.3964   -6.7507   47.3401 C   0  0  0  0  0  0  0  0  0  0  0  0
   22.6863   -5.0707   48.5295 N   0  0  0  0  0  0  0  0  0  0  0  0
   18.9744   -4.8965   47.7348 O   0  0  0  0  0  0  0  0  0  0  0  0
   19.3561   -1.4408   48.9605 O   0  0  0  0  0  0  0  0  0  0  0  0
   21.7852   -2.7039   49.9361 O   0  0  0  0  0  0  0  0  0  0  0  0
   19.6864   -7.1761   46.2277 O   0  0  0  0  0  0  0  0  0  0  0  0
   15.1198   -2.0233   39.7534 C   0  0  1  0  0  0  0  0  0  0  0  0
   16.0276   -3.0608   39.0008 C   0  0  1  0  0  0  0  0  0  0  0  0
   15.7944   -2.9137   37.4541 C   0  0  2  0  0  0  0  0  0  0  0  0
   14.3194   -3.1986   37.1334 C   0  0  1  0  0  0  0  0  0  0  0  0
   13.4097   -2.1471   37.8785 C   0  0  0  0  0  0  0  0  0  0  0  0
   13.6538   -2.2823   39.4330 C   0  0  2  0  0  0  0  0  0  0  0  0
   14.1211   -3.0778   35.6984 N   0  0  0  0  0  0  0  0  0  0  0  0
   12.8291   -1.2906   40.1721 N   0  0  0  0  0  0  0  0  0  0  0  0
   17.4275   -2.7947   39.3025 O   0  0  0  0  0  0  0  0  0  0  0  0
   16.5899   -3.8514   36.7787 O   0  0  0  0  0  0  0  0  0  0  0  0
  1  2  1  0  0  0  0
  1 12  1  1  0  0  0
  1 13  1  0  0  0  0
  2  3  1  0  0  0  0
  2 10  1  6  0  0  0
  4  3  1  6  0  0  0
  4  5  1  0  0  0  0
  4 14  1  0  0  0  0
  5  6  1  0  0  0  0
  5 13  1  6  0  0  0
  6  7  1  0  0  0  0
  6 15  1  1  0  0  0
  7  8  1  0  0  0  0
  7 11  1  1  0  0  0
  8 14  1  0  0  0  0
  8 16  1  1  0  0  0
  9 11  1  0  0  0  0
 17 16  1  6  0  0  0
 17 18  1  0  0  0  0
 17 24  1  0  0  0  0
 18 19  1  0  0  0  0
 18 25  1  6  0  0  0
 19 20  1  0  0  0  0
 19 26  1  1  0  0  0
 20 21  1  0  0  0  0
 20 23  1  6  0  0  0
 21 22  1  1  0  0  0
 21 24  1  0  0  0  0
 22 27  1  0  0  0  0
 28 12  1  1  0  0  0
 28 29  1  0  0  0  0
 28 33  1  0  0  0  0
 29 30  1  0  0  0  0
 29 36  1  6  0  0  0
 30 31  1  0  0  0  0
 30 37  1  6  0  0  0
 31 32  1  0  0  0  0
 31 34  1  6  0  0  0
 32 33  1  0  0  0  0
 33 35  1  1  0  0  0
M  END
>  <CHROM.1>
-134.85789693,150.79678630,-145.34212640,173.26810530,-177.71408204,-56.86575430
17.56349017,-3.54000242,43.61616552,2.21682273,0.50111659,-1.77574000

>  <Name>
2oe5_lig

>  <RI>
0

>  <Rbt.Current_Directory>
/home/itssahil/PROJECTS/Mol_Feturizer/New_Systems/rnas/2oe5

>  <Rbt.Executable>
rbdock ($Id: //depot/dev/client3/rdock/2013.1/src/exe/rbdock.cxx#4 $)

>  <Rbt.Library>
libRbt.so (2013.1, Build901 2013/11/27)

>  <Rbt.Parameter_File>
/export/apps/rDock/src/rDock_2013.1_src/data/scripts/dock_solv.prm

>  <Rbt.Receptor>
prm/blind_docking_100.prm

>  <SCORE>
-22.0801

>  <SCORE.INTER>
-21.2032

>  <SCORE.INTER.CONST>
1

>  <SCORE.INTER.POLAR>
-2.70122

>  <SCORE.INTER.ROT>
6

>  <SCORE.INTER.SOLV>
14.9655

>  <SCORE.INTER.VDW>
-17.7199

>  <SCORE.INTER.norm>
-0.573059

>  <SCORE.INTRA>
-0.876871

>  <SCORE.INTRA.DIHEDRAL>
-4.72947

>  <SCORE.INTRA.DIHEDRAL.0>
16.2083

>  <SCORE.INTRA.POLAR>
0

>  <SCORE.INTRA.POLAR.0>
0

>  <SCORE.INTRA.REPUL>
0

>  <SCORE.INTRA.REPUL.0>
0

>  <SCORE.INTRA.SOLV>
2.70021

>  <SCORE.INTRA.SOLV.lig_0>
-89.8095

>  <SCORE.INTRA.VDW>
0.137758

>  <SCORE.INTRA.VDW.0>
-3.19502

>  <SCORE.INTRA.norm>
-0.0236992

>  <SCORE.RESTR>
0

>  <SCORE.RESTR.CAVITY>
0

>  <SCORE.RESTR.norm>
0

>  <SCORE.SYSTEM>
0

>  <SCORE.SYSTEM.CONST>
0

>  <SCORE.SYSTEM.DIHEDRAL>
0

>  <SCORE.SYSTEM.SOLV>
0

>  <SCORE.SYSTEM.norm>
0

>  <SCORE.heavy>
37

>  <SCORE.norm>
-0.596759

>  <RMSD>
13.052

$$$$
2oe5_lig
 OpenBabel11021811463D
libRbt.so/2013.1/901 2013/11/27
 37 40  0  0  0  0  0  0  0  0999 V2000
   15.6601   -2.9689   40.7908 C   0  0  1  0  0  0  0  0  0  0  0  0
   17.0443   -2.3489   40.4960 C   0  0  1  0  0  0  0  0  0  0  0  0
   18.1561   -3.1889   41.2279 C   0  0  0  0  0  0  0  0  0  0  0  0
   17.7938   -3.1252   42.7286 C   0  0  1  0  0  0  0  0  0  0  0  0
   16.3628   -3.7637   43.0131 C   0  0  1  0  0  0  0  0  0  0  0  0
   15.9821   -3.7165   44.5181 C   0  0  1  0  0  0  0  0  0  0  0  0
   17.0801   -4.5061   45.2860 C   0  0  1  0  0  0  0  0  0  0  0  0
   18.4806   -3.8709   44.9419 C   0  0  2  0  0  0  0  0  0  0  0  0
   16.8825   -5.7242   47.5968 C   0  0  0  0  0  0  0  0  0  0  0  0
   17.3015   -2.3556   39.0375 N   0  0  0  0  0  0  0  0  0  0  0  0
   16.8134   -4.4669   46.7732 N   0  0  0  0  0  0  0  0  0  0  0  0
   15.5491   -4.3057   40.2755 O   0  0  0  0  0  0  0  0  0  0  0  0
   15.3706   -3.0227   42.2316 O   0  0  0  0  0  0  0  0  0  0  0  0
   18.7730   -3.8762   43.4954 O   0  0  0  0  0  0  0  0  0  0  0  0
   15.9376   -2.3432   44.9186 O   0  0  0  0  0  0  0  0  0  0  0  0
   19.5119   -4.6035   45.5736 O   0  0  0  0  0  0  0  0  0  0  0  0
   20.4550   -3.7205   46.1513 C   0  0  2  0  0  0  0  0  0  0  0  0
   21.8896   -4.2268   46.0055 C   0  0  1  0  0  0  0  0  0  0  0  0
   22.0977   -5.5547   46.7841 C   0  0  2  0  0  0  0  0  0  0  0  0
   21.7234   -5.2893   48.2724 C   0  0  1  0  0  0  0  0  0  0  0  0
   20.2316   -4.8223   48.3241 C   0  0  1  0  0  0  0  0  0  0  0  0
   19.7720   -4.4841   49.7248 C   0  0  0  0  0  0  0  0  0  0  0  0
   21.9255   -6.5756   49.0398 N   0  0  0  0  0  0  0  0  0  0  0  0
   20.1277   -3.5685   47.5682 O   0  0  0  0  0  0  0  0  0  0  0  0
   22.1428   -4.4120   44.5986 O   0  0  0  0  0  0  0  0  0  0  0  0
   23.4889   -5.9117   46.6931 O   0  0  0  0  0  0  0  0  0  0  0  0
   20.4865   -3.4255   50.2648 O   0  0  0  0  0  0  0  0  0  0  0  0
   14.2433   -4.8712   40.3935 C   0  0  1  0  0  0  0  0  0  0  0  0
   13.3128   -4.3062   39.2614 C   0  0  1  0  0  0  0  0  0  0  0  0
   11.8878   -4.9522   39.4038 C   0  0  2  0  0  0  0  0  0  0  0  0
   12.0041   -6.4768   39.2559 C   0  0  1  0  0  0  0  0  0  0  0  0
   12.9273   -7.0444   40.4020 C   0  0  0  0  0  0  0  0  0  0  0  0
   14.3563   -6.3848   40.2705 C   0  0  2  0  0  0  0  0  0  0  0  0
   10.6777   -7.0603   39.3707 N   0  0  0  0  0  0  0  0  0  0  0  0
   15.2527   -6.8782   41.3490 N   0  0  0  0  0  0  0  0  0  0  0  0
   13.2001   -2.8604   39.3974 O   0  0  0  0  0  0  0  0  0  0  0  0
   11.0583   -4.4641   38.3830 O   0  0  0  0  0  0  0  0  0  0  0  0
  1  2  1  0  0  0  0
  1 12  1  1  0  0  0
  1 13  1  0  0  0  0
  2  3  1  0  0  0  0
  2 10  1  6  0  0  0
  4  3  1  6  0  0  0
  4  5  1  0  0  0  0
  4 14  1  0  0  0  0
  5  6  1  0  0  0  0
  5 13  1  6  0  0  0
  6  7  1  0  0  0  0
  6 15  1  1  0  0  0
  7  8  1  0  0  0  0
  7 11  1  1  0  0  0
  8 14  1  0  0  0  0
  8 16  1  1  0  0  0
  9 11  1  0  0  0  0
 17 16  1  1  0  0  0
 17 18  1  0  0  0  0
 17 24  1  0  0  0  0
 18 19  1  0  0  0  0
 18 25  1  6  0  0  0
 19 20  1  0  0  0  0
 19 26  1  1  0  0  0
 20 21  1  0  0  0  0
 20 23  1  1  0  0  0
 21 22  1  1  0  0  0
 21 24  1  0  0  0  0
 22 27  1  0  0  0  0
 28 12  1  6  0  0  0
 28 29  1  0  0  0  0
 28 33  1  0  0  0  0
 29 30  1  0  0  0  0
 29 36  1  1  0  0  0
 30 31  1  0  0  0  0
 30 37  1  6  0  0  0
 31 32  1  0  0  0  0
 31 34  1  1  0  0  0
 32 33  1  0  0  0  0
 33 35  1  1  0  0  0
M  END
>  <CHROM.1>
-173.58896954,132.94614528,-136.20190692,-141.82921425,62.41669795,78.60212518
17.21549067,-4.45263981,43.64880232,-2.40418256,0.35452303,1.92064018

>  <Name>
2oe5_lig

>  <RI>
0

>  <Rbt.Current_Directory>
/home/itssahil/PROJECTS/Mol_Feturizer/New_Systems/rnas/2oe5

>  <Rbt.Executable>
rbdock ($Id: //depot/dev/client3/rdock/2013.1/src/exe/rbdock.cxx#4 $)

>  <Rbt.Library>
libRbt.so (2013.1, Build901 2013/11/27)

>  <Rbt.Parameter_File>
/export/apps/rDock/src/rDock_2013.1_src/data/scripts/dock_solv.prm

>  <Rbt.Receptor>
prm/blind_docking_60.prm

>  <SCORE>
-20.6214

>  <SCORE.INTER>
-18.2699

>  <SCORE.INTER.CONST>
1

>  <SCORE.INTER.POLAR>
-1.88776

>  <SCORE.INTER.ROT>
6

>  <SCORE.INTER.SOLV>
13.3901

>  <SCORE.INTER.VDW>
-17.9508

>  <SCORE.INTER.norm>
-0.493781

>  <SCORE.INTRA>
-2.36638

>  <SCORE.INTRA.DIHEDRAL>
-2.22926

>  <SCORE.INTRA.DIHEDRAL.0>
16.2083

>  <SCORE.INTRA.POLAR>
0

>  <SCORE.INTRA.POLAR.0>
0

>  <SCORE.INTRA.REPUL>
0

>  <SCORE.INTRA.REPUL.0>
0

>  <SCORE.INTRA.SOLV>
-1.21015

>  <SCORE.INTRA.SOLV.lig_0>
-89.8095

>  <SCORE.INTRA.VDW>
-0.646672

>  <SCORE.INTRA.VDW.0>
-3.19502

>  <SCORE.INTRA.norm>
-0.0639562

>  <SCORE.RESTR>
0.0148934

>  <SCORE.RESTR.CAVITY>
0.0148934

>  <SCORE.RESTR.norm>
0.000402523

>  <SCORE.SYSTEM>
0

>  <SCORE.SYSTEM.CONST>
0

>  <SCORE.SYSTEM.DIHEDRAL>
0

>  <SCORE.SYSTEM.SOLV>
0

>  <SCORE.SYSTEM.norm>
0

>  <SCORE.heavy>
37

>  <SCORE.norm>
-0.557335

>  <RMSD>
13.311

$$$$
2oe5_lig
 OpenBabel11021811463D
libRbt.so/2013.1/901 2013/11/27
 37 40  0  0  0  0  0  0  0  0999 V2000
   12.4182    3.7793   34.1204 C   0  0  1  0  0  0  0  0  0  0  0  0
   11.2038    2.9362   33.6710 C   0  0  1  0  0  0  0  0  0  0  0  0
   11.3520    1.4726   34.2304 C   0  0  0  0  0  0  0  0  0  0  0  0
   12.6805    0.9444   33.6443 C   0  0  1  0  0  0  0  0  0  0  0  0
   13.9198    1.8276   34.1136 C   0  0  1  0  0  0  0  0  0  0  0  0
   15.2671    1.3088   33.5409 C   0  0  1  0  0  0  0  0  0  0  0  0
   15.4359   -0.1543   34.0404 C   0  0  1  0  0  0  0  0  0  0  0  0
   14.1703   -0.9803   33.5941 C   0  0  2  0  0  0  0  0  0  0  0  0
   17.5101   -1.7336   34.2980 C   0  0  0  0  0  0  0  0  0  0  0  0
    9.9522    3.5368   34.1868 N   0  0  0  0  0  0  0  0  0  0  0  0
   16.7053   -0.7571   33.4839 N   0  0  0  0  0  0  0  0  0  0  0  0
   12.4841    3.9073   35.5502 O   0  0  0  0  0  0  0  0  0  0  0  0
   13.6931    3.2035   33.6667 O   0  0  0  0  0  0  0  0  0  0  0  0
   12.9067   -0.4147   34.1053 O   0  0  0  0  0  0  0  0  0  0  0  0
   15.1947    1.3773   32.1132 O   0  0  0  0  0  0  0  0  0  0  0  0
   14.2584   -2.3031   34.0857 O   0  0  0  0  0  0  0  0  0  0  0  0
   14.7134   -2.2969   35.4259 C   0  0  2  0  0  0  0  0  0  0  0  0
   14.4249   -3.6151   36.1431 C   0  0  1  0  0  0  0  0  0  0  0  0
   12.8965   -3.8619   36.2703 C   0  0  2  0  0  0  0  0  0  0  0  0
   12.2861   -2.6438   37.0250 C   0  0  1  0  0  0  0  0  0  0  0  0
   12.5914   -1.3535   36.1954 C   0  0  1  0  0  0  0  0  0  0  0  0
   12.0867   -0.0943   36.8641 C   0  0  0  0  0  0  0  0  0  0  0  0
   10.7985   -2.8756   37.1566 N   0  0  0  0  0  0  0  0  0  0  0  0
   14.0494   -1.1989   36.1269 O   0  0  0  0  0  0  0  0  0  0  0  0
   15.0529   -4.6676   35.3845 O   0  0  0  0  0  0  0  0  0  0  0  0
   12.7010   -5.0575   37.0470 O   0  0  0  0  0  0  0  0  0  0  0  0
   10.7015   -0.0373   36.8869 O   0  0  0  0  0  0  0  0  0  0  0  0
   12.5115    5.2568   36.0157 C   0  0  1  0  0  0  0  0  0  0  0  0
   13.7607    6.0009   35.4218 C   0  0  1  0  0  0  0  0  0  0  0  0
   13.7617    7.4852   35.9369 C   0  0  2  0  0  0  0  0  0  0  0  0
   12.4783    8.1867   35.4672 C   0  0  1  0  0  0  0  0  0  0  0  0
   11.2252    7.4469   36.0760 C   0  0  0  0  0  0  0  0  0  0  0  0
   11.2304    5.9501   35.5722 C   0  0  2  0  0  0  0  0  0  0  0  0
   12.5003    9.5632   35.9338 N   0  0  0  0  0  0  0  0  0  0  0  0
   10.0741    5.2104   36.1430 N   0  0  0  0  0  0  0  0  0  0  0  0
   14.9802    5.3386   35.8642 O   0  0  0  0  0  0  0  0  0  0  0  0
   14.8660    8.1588   35.3938 O   0  0  0  0  0  0  0  0  0  0  0  0
  1  2  1  0  0  0  0
  1 12  1  1  0  0  0
  1 13  1  0  0  0  0
  2  3  1  0  0  0  0
  2 10  1  1  0  0  0
  4  3  1  1  0  0  0
  4  5  1  0  0  0  0
  4 14  1  0  0  0  0
  5  6  1  0  0  0  0
  5 13  1  6  0  0  0
  6  7  1  0  0  0  0
  6 15  1  6  0  0  0
  7  8  1  0  0  0  0
  7 11  1  6  0  0  0
  8 14  1  0  0  0  0
  8 16  1  1  0  0  0
  9 11  1  0  0  0  0
 17 16  1  6  0  0  0
 17 18  1  0  0  0  0
 17 24  1  0  0  0  0
 18 19  1  0  0  0  0
 18 25  1  6  0  0  0
 19 20  1  0  0  0  0
 19 26  1  1  0  0  0
 20 21  1  0  0  0  0
 20 23  1  6  0  0  0
 21 22  1  1  0  0  0
 21 24  1  0  0  0  0
 22 27  1  0  0  0  0
 28 12  1  6  0  0  0
 28 29  1  0  0  0  0
 28 33  1  0  0  0  0
 29 30  1  0  0  0  0
 29 36  1  1  0  0  0
 30 31  1  0  0  0  0
 30 37  1  6  0  0  0
 31 32  1  0  0  0  0
 31 34  1  1  0  0  0
 32 33  1  0  0  0  0
 33 35  1  1  0  0  0
M  END
>  <CHROM.1>
-123.94556996,145.52128076,42.84666370,162.34550749,-68.37964464,-59.41007502
13.23916306,1.54589350,35.15587063,1.71631085,0.47303852,-0.07658858

>  <Name>
2oe5_lig

>  <RI>
0

>  <Rbt.Current_Directory>
/home/afrankz/demos/rdock_decoys_rna/rnas/2oe5

>  <Rbt.Executable>
rbdock ($Id: //depot/dev/client3/rdock/2013.1/src/exe/rbdock.cxx#4 $)

>  <Rbt.Library>
libRbt.so (2013.1, Build901 2013/11/27)

>  <Rbt.Parameter_File>
/export/apps/rDock/src/rDock_2013.1_src/data/scripts/dock_solv.prm

>  <Rbt.Receptor>
prm/blind_docking_40.prm

>  <SCORE>
25.2586

>  <SCORE.INTER>
0.076087

>  <SCORE.INTER.CONST>
1

>  <SCORE.INTER.POLAR>
0

>  <SCORE.INTER.ROT>
6

>  <SCORE.INTER.SOLV>
14.2036

>  <SCORE.INTER.VDW>
-12.2838

>  <SCORE.INTER.norm>
0.00205641

>  <SCORE.INTRA>
12.3613

>  <SCORE.INTRA.DIHEDRAL>
-5.30571

>  <SCORE.INTRA.DIHEDRAL.0>
16.2083

>  <SCORE.INTRA.POLAR>
0

>  <SCORE.INTRA.POLAR.0>
0

>  <SCORE.INTRA.REPUL>
0

>  <SCORE.INTRA.REPUL.0>
0

>  <SCORE.INTRA.SOLV>
4.13871

>  <SCORE.INTRA.SOLV.lig_0>
-89.8095

>  <SCORE.INTRA.VDW>
12.9448

>  <SCORE.INTRA.VDW.0>
-3.19502

>  <SCORE.INTRA.norm>
0.33409

>  <SCORE.RESTR>
12.8212

>  <SCORE.RESTR.CAVITY>
12.8212

>  <SCORE.RESTR.norm>
0.346519

>  <SCORE.SYSTEM>
0

>  <SCORE.SYSTEM.CONST>
0

>  <SCORE.SYSTEM.DIHEDRAL>
0

>  <SCORE.SYSTEM.SOLV>
0

>  <SCORE.SYSTEM.norm>
0

>  <SCORE.heavy>
37

>  <SCORE.norm>
0.682665

>  <RMSD>
19.664

$$$$
2oe5_lig
 OpenBabel11021811463D
libRbt.so/2013.1/901 2013/11/27
 37 40  0  0  0  0  0  0  0  0999 V2000
    9.8473    3.5207   35.0745 C   0  0  1  0  0  0  0  0  0  0  0  0
    9.0824    2.7328   36.1614 C   0  0  1  0  0  0  0  0  0  0  0  0
   10.1063    1.8913   37.0104 C   0  0  0  0  0  0  0  0  0  0  0  0
   10.8081    0.9598   35.9969 C   0  0  1  0  0  0  0  0  0  0  0  0
   11.5869    1.7884   34.8819 C   0  0  1  0  0  0  0  0  0  0  0  0
   12.3062    0.8701   33.8564 C   0  0  1  0  0  0  0  0  0  0  0  0
   13.3048   -0.0094   34.6614 C   0  0  1  0  0  0  0  0  0  0  0  0
   12.5015   -0.7756   35.7798 C   0  0  2  0  0  0  0  0  0  0  0  0
   14.9458   -0.4695   32.6719 C   0  0  0  0  0  0  0  0  0  0  0  0
    8.3579    3.6701   37.0502 N   0  0  0  0  0  0  0  0  0  0  0  0
   14.0157   -0.9749   33.7412 N   0  0  0  0  0  0  0  0  0  0  0  0
   10.7636    4.4702   35.6435 O   0  0  0  0  0  0  0  0  0  0  0  0
   10.6177    2.6374   34.1862 O   0  0  0  0  0  0  0  0  0  0  0  0
   11.7796    0.1326   36.6918 O   0  0  0  0  0  0  0  0  0  0  0  0
   11.3112    0.0781   33.2000 O   0  0  0  0  0  0  0  0  0  0  0  0
   13.3877   -1.5389   36.5744 O   0  0  0  0  0  0  0  0  0  0  0  0
   13.4765   -2.8602   36.0753 C   0  0  2  0  0  0  0  0  0  0  0  0
   13.7243   -3.8838   37.1827 C   0  0  1  0  0  0  0  0  0  0  0  0
   15.1003   -3.6504   37.8648 C   0  0  2  0  0  0  0  0  0  0  0  0
   16.1913   -3.7188   36.7553 C   0  0  1  0  0  0  0  0  0  0  0  0
   15.8806   -2.6099   35.6970 C   0  0  1  0  0  0  0  0  0  0  0  0
   16.8527   -2.6172   34.5384 C   0  0  0  0  0  0  0  0  0  0  0  0
   17.5352   -3.4957   37.4095 N   0  0  0  0  0  0  0  0  0  0  0  0
   14.5704   -2.9081   35.1063 O   0  0  0  0  0  0  0  0  0  0  0  0
   12.6512   -3.7583   38.1368 O   0  0  0  0  0  0  0  0  0  0  0  0
   15.3123   -4.7099   38.8153 O   0  0  0  0  0  0  0  0  0  0  0  0
   18.1090   -2.1640   34.9112 O   0  0  0  0  0  0  0  0  0  0  0  0
   11.9803    4.6197   34.9114 C   0  0  1  0  0  0  0  0  0  0  0  0
   11.7452    5.5534   33.6705 C   0  0  1  0  0  0  0  0  0  0  0  0
   13.0991    5.7131   32.8897 C   0  0  2  0  0  0  0  0  0  0  0  0
   14.1475    6.3484   33.8155 C   0  0  1  0  0  0  0  0  0  0  0  0
   14.3931    5.4027   35.0539 C   0  0  0  0  0  0  0  0  0  0  0  0
   13.0298    5.2279   35.8319 C   0  0  2  0  0  0  0  0  0  0  0  0
   15.3889    6.5079   33.0761 N   0  0  0  0  0  0  0  0  0  0  0  0
   13.2139    4.3232   36.9970 N   0  0  0  0  0  0  0  0  0  0  0  0
   10.7510    4.9552   32.7900 O   0  0  0  0  0  0  0  0  0  0  0  0
   12.8979    6.5616   31.7906 O   0  0  0  0  0  0  0  0  0  0  0  0
  1  2  1  0  0  0  0
  1 12  1  1  0  0  0
  1 13  1  0  0  0  0
  2  3  1  0  0  0  0
  2 10  1  1  0  0  0
  4  3  1  1  0  0  0
  4  5  1  0  0  0  0
  4 14  1  0  0  0  0
  5  6  1  0  0  0  0
  5 13  1  6  0  0  0
  6  7  1  0  0  0  0
  6 15  1  1  0  0  0
  7  8  1  0  0  0  0
  7 11  1  6  0  0  0
  8 14  1  0  0  0  0
  8 16  1  1  0  0  0
  9 11  1  0  0  0  0
 17 16  1  1  0  0  0
 17 18  1  0  0  0  0
 17 24  1  0  0  0  0
 18 19  1  0  0  0  0
 18 25  1  1  0  0  0
 19 20  1  0  0  0  0
 19 26  1  1  0  0  0
 20 21  1  0  0  0  0
 20 23  1  1  0  0  0
 21 22  1  6  0  0  0
 21 24  1  0  0  0  0
 22 27  1  0  0  0  0
 28 12  1  1  0  0  0
 28 29  1  0  0  0  0
 28 33  1  0  0  0  0
 29 30  1  0  0  0  0
 29 36  1  6  0  0  0
 30 31  1  0  0  0  0
 30 37  1  6  0  0  0
 31 32  1  0  0  0  0
 31 34  1  6  0  0  0
 32 33  1  0  0  0  0
 33 35  1  1  0  0  0
M  END
>  <CHROM.1>
143.80085412,65.23695765,-93.49002621,-148.37760543,-71.21390014,79.61864984
13.10745613,0.98623431,35.30197164,1.96858731,0.37148882,-0.42762748

>  <Name>
2oe5_lig

>  <RI>
0

>  <Rbt.Current_Directory>
/home/afrankz/demos/rdock_decoys_rna/rnas/2oe5

>  <Rbt.Executable>
rbdock ($Id: //depot/dev/client3/rdock/2013.1/src/exe/rbdock.cxx#4 $)

>  <Rbt.Library>
libRbt.so (2013.1, Build901 2013/11/27)

>  <Rbt.Parameter_File>
/export/apps/rDock/src/rDock_2013.1_src/data/scripts/dock_solv.prm

>  <Rbt.Receptor>
prm/blind_docking_40.prm

>  <SCORE>
17.2954

>  <SCORE.INTER>
-3.02432

>  <SCORE.INTER.CONST>
1

>  <SCORE.INTER.POLAR>
-0.79111

>  <SCORE.INTER.ROT>
6

>  <SCORE.INTER.SOLV>
17.9724

>  <SCORE.INTER.VDW>
-12.97

>  <SCORE.INTER.norm>
-0.0817385

>  <SCORE.INTRA>
2.64552

>  <SCORE.INTRA.DIHEDRAL>
-1.09332

>  <SCORE.INTRA.DIHEDRAL.0>
16.2083

>  <SCORE.INTRA.POLAR>
0

>  <SCORE.INTRA.POLAR.0>
0

>  <SCORE.INTRA.REPUL>
0

>  <SCORE.INTRA.REPUL.0>
0

>  <SCORE.INTRA.SOLV>
0.784345

>  <SCORE.INTRA.SOLV.lig_0>
-89.8095

>  <SCORE.INTRA.VDW>
2.80001

>  <SCORE.INTRA.VDW.0>
-3.19502

>  <SCORE.INTRA.norm>
0.0715007

>  <SCORE.RESTR>
17.6742

>  <SCORE.RESTR.CAVITY>
17.6742

>  <SCORE.RESTR.norm>
0.477681

>  <SCORE.SYSTEM>
0

>  <SCORE.SYSTEM.CONST>
0

>  <SCORE.SYSTEM.DIHEDRAL>
0

>  <SCORE.SYSTEM.SOLV>
0

>  <SCORE.SYSTEM.norm>
0

>  <SCORE.heavy>
37

>  <SCORE.norm>
0.467443

>  <RMSD>
19.673

$$$$
2oe5_lig
 OpenBabel11021811463D
libRbt.so/2013.1/901 2013/11/27
 37 40  0  0  0  0  0  0  0  0999 V2000
   11.2470    3.2435   34.2473 C   0  0  1  0  0  0  0  0  0  0  0  0
   10.3933    2.0065   33.8894 C   0  0  1  0  0  0  0  0  0  0  0  0
   11.1809    0.7011   34.2802 C   0  0  0  0  0  0  0  0  0  0  0  0
   12.4952    0.7596   33.4699 C   0  0  1  0  0  0  0  0  0  0  0  0
   13.3595    2.0427   33.8479 C   0  0  1  0  0  0  0  0  0  0  0  0
   14.6895    2.1168   33.0491 C   0  0  1  0  0  0  0  0  0  0  0  0
   15.4858    0.8221   33.3781 C   0  0  1  0  0  0  0  0  0  0  0  0
   14.5794   -0.4196   33.0319 C   0  0  2  0  0  0  0  0  0  0  0  0
   17.5077   -0.5106   32.3789 C   0  0  0  0  0  0  0  0  0  0  0  0
    9.1096    2.0471   34.6269 N   0  0  0  0  0  0  0  0  0  0  0  0
   16.7799    0.7879   32.5979 N   0  0  0  0  0  0  0  0  0  0  0  0
   11.4916    3.3374   35.6602 O   0  0  0  0  0  0  0  0  0  0  0  0
   12.5525    3.2326   33.5703 O   0  0  0  0  0  0  0  0  0  0  0  0
   13.2975   -0.4156   33.7630 O   0  0  0  0  0  0  0  0  0  0  0  0
   14.3641    2.2009   31.6580 O   0  0  0  0  0  0  0  0  0  0  0  0
   15.2474   -1.6169   33.3776 O   0  0  0  0  0  0  0  0  0  0  0  0
   15.7772   -1.5204   34.6864 C   0  0  2  0  0  0  0  0  0  0  0  0
   16.4175   -2.8277   35.1515 C   0  0  1  0  0  0  0  0  0  0  0  0
   15.3616   -3.9619   35.2604 C   0  0  2  0  0  0  0  0  0  0  0  0
   14.2521   -3.4773   36.2401 C   0  0  1  0  0  0  0  0  0  0  0  0
   13.6274   -2.1663   35.6591 C   0  0  1  0  0  0  0  0  0  0  0  0
   12.5669   -1.5737   36.5600 C   0  0  0  0  0  0  0  0  0  0  0  0
   13.2205   -4.5757   36.3553 N   0  0  0  0  0  0  0  0  0  0  0  0
   14.6891   -1.1550   35.5921 O   0  0  0  0  0  0  0  0  0  0  0  0
   17.4427   -3.1713   34.1983 O   0  0  0  0  0  0  0  0  0  0  0  0
   16.0111   -5.1250   35.8048 O   0  0  0  0  0  0  0  0  0  0  0  0
   13.0821   -1.1962   37.7907 O   0  0  0  0  0  0  0  0  0  0  0  0
   11.9928    4.6054   36.0839 C   0  0  1  0  0  0  0  0  0  0  0  0
   13.4590    4.8029   35.5565 C   0  0  1  0  0  0  0  0  0  0  0  0
   13.9831    6.2085   36.0235 C   0  0  2  0  0  0  0  0  0  0  0  0
   13.0792    7.3063   35.4425 C   0  0  1  0  0  0  0  0  0  0  0  0
   11.6102    7.1151   35.9844 C   0  0  0  0  0  0  0  0  0  0  0  0
   11.0865    5.6962   35.5295 C   0  0  2  0  0  0  0  0  0  0  0  0
   13.5854    8.6015   35.8660 N   0  0  0  0  0  0  0  0  0  0  0  0
    9.7093    5.4673   36.0403 N   0  0  0  0  0  0  0  0  0  0  0  0
   14.3198    3.7635   36.1044 O   0  0  0  0  0  0  0  0  0  0  0  0
   15.2862    6.3968   35.5387 O   0  0  0  0  0  0  0  0  0  0  0  0
  1  2  1  0  0  0  0
  1 12  1  1  0  0  0
  1 13  1  0  0  0  0
  2  3  1  0  0  0  0
  2 10  1  1  0  0  0
  4  3  1  1  0  0  0
  4  5  1  0  0  0  0
  4 14  1  0  0  0  0
  5  6  1  0  0  0  0
  5 13  1  6  0  0  0
  6  7  1  0  0  0  0
  6 15  1  6  0  0  0
  7  8  1  0  0  0  0
  7 11  1  6  0  0  0
  8 14  1  0  0  0  0
  8 16  1  1  0  0  0
  9 11  1  0  0  0  0
 17 16  1  6  0  0  0
 17 18  1  0  0  0  0
 17 24  1  0  0  0  0
 18 19  1  0  0  0  0
 18 25  1  6  0  0  0
 19 20  1  0  0  0  0
 19 26  1  1  0  0  0
 20 21  1  0  0  0  0
 20 23  1  6  0  0  0
 21 22  1  1  0  0  0
 21 24  1  0  0  0  0
 22 27  1  0  0  0  0
 28 12  1  6  0  0  0
 28 29  1  0  0  0  0
 28 33  1  0  0  0  0
 29 30  1  0  0  0  0
 29 36  1  1  0  0  0
 30 31  1  0  0  0  0
 30 37  1  6  0  0  0
 31 32  1  0  0  0  0
 31 34  1  1  0  0  0
 32 33  1  0  0  0  0
 33 35  1  1  0  0  0
M  END
>  <CHROM.1>
-165.89752364,-159.97924129,47.99565708,175.59717279,62.47453847,-69.37721992
13.66884652,1.29872428,34.81687721,1.93251977,0.40968233,-0.09563456

>  <Name>
2oe5_lig

>  <RI>
0

>  <Rbt.Current_Directory>
/home/afrankz/demos/rdock_decoys_rna/rnas/2oe5

>  <Rbt.Executable>
rbdock ($Id: //depot/dev/client3/rdock/2013.1/src/exe/rbdock.cxx#4 $)

>  <Rbt.Library>
libRbt.so (2013.1, Build901 2013/11/27)

>  <Rbt.Parameter_File>
/export/apps/rDock/src/rDock_2013.1_src/data/scripts/dock_solv.prm

>  <Rbt.Receptor>
prm/blind_docking_40.prm

>  <SCORE>
18.5055

>  <SCORE.INTER>
1.76303

>  <SCORE.INTER.CONST>
1

>  <SCORE.INTER.POLAR>
0

>  <SCORE.INTER.ROT>
6

>  <SCORE.INTER.SOLV>
18.7308

>  <SCORE.INTER.VDW>
-12.6683

>  <SCORE.INTER.norm>
0.0476494

>  <SCORE.INTRA>
2.16558

>  <SCORE.INTRA.DIHEDRAL>
-13.6626

>  <SCORE.INTRA.DIHEDRAL.0>
16.2083

>  <SCORE.INTRA.POLAR>
0

>  <SCORE.INTRA.POLAR.0>
0

>  <SCORE.INTRA.REPUL>
0

>  <SCORE.INTRA.REPUL.0>
0

>  <SCORE.INTRA.SOLV>
0.754833

>  <SCORE.INTRA.SOLV.lig_0>
-89.8095

>  <SCORE.INTRA.VDW>
8.61944

>  <SCORE.INTRA.VDW.0>
-3.19502

>  <SCORE.INTRA.norm>
0.0585291

>  <SCORE.RESTR>
14.5769

>  <SCORE.RESTR.CAVITY>
14.5769

>  <SCORE.RESTR.norm>
0.39397

>  <SCORE.SYSTEM>
0

>  <SCORE.SYSTEM.CONST>
0

>  <SCORE.SYSTEM.DIHEDRAL>
0

>  <SCORE.SYSTEM.SOLV>
0

>  <SCORE.SYSTEM.norm>
0

>  <SCORE.heavy>
37

>  <SCORE.norm>
0.500149

>  <RMSD>
19.748

$$$$
2oe5_lig
 OpenBabel11021811463D
libRbt.so/2013.1/901 2013/11/27
 37 40  0  0  0  0  0  0  0  0999 V2000
   11.7490    4.0879   36.3890 C   0  0  1  0  0  0  0  0  0  0  0  0
   13.1435    3.9906   37.0471 C   0  0  1  0  0  0  0  0  0  0  0  0
   13.7252    2.5459   36.8204 C   0  0  0  0  0  0  0  0  0  0  0  0
   12.7027    1.5876   37.4712 C   0  0  1  0  0  0  0  0  0  0  0  0
   11.2708    1.7048   36.7841 C   0  0  1  0  0  0  0  0  0  0  0  0
   10.2290    0.7437   37.4192 C   0  0  1  0  0  0  0  0  0  0  0  0
   10.7847   -0.6990   37.2503 C   0  0  1  0  0  0  0  0  0  0  0  0
   12.2177   -0.7586   37.9030 C   0  0  2  0  0  0  0  0  0  0  0  0
    8.5648   -2.0895   37.2134 C   0  0  0  0  0  0  0  0  0  0  0  0
   14.0572    4.9897   36.4467 N   0  0  0  0  0  0  0  0  0  0  0  0
    9.8511   -1.7007   37.8903 N   0  0  0  0  0  0  0  0  0  0  0  0
   11.8128    3.9064   34.9649 O   0  0  0  0  0  0  0  0  0  0  0  0
   10.8116    3.0883   36.9227 O   0  0  0  0  0  0  0  0  0  0  0  0
   13.1567    0.2164   37.3152 O   0  0  0  0  0  0  0  0  0  0  0  0
   10.0848    1.0989   38.7981 O   0  0  0  0  0  0  0  0  0  0  0  0
   12.7824   -2.0409   37.7130 O   0  0  0  0  0  0  0  0  0  0  0  0
   12.5205   -2.5004   36.4002 C   0  0  2  0  0  0  0  0  0  0  0  0
   13.2410   -3.8118   36.0896 C   0  0  1  0  0  0  0  0  0  0  0  0
   14.7829   -3.6252   36.1177 C   0  0  2  0  0  0  0  0  0  0  0  0
   15.1390   -2.5091   35.0915 C   0  0  1  0  0  0  0  0  0  0  0  0
   14.3953   -1.2005   35.5167 C   0  0  1  0  0  0  0  0  0  0  0  0
   14.6283   -0.0559   34.5559 C   0  0  0  0  0  0  0  0  0  0  0  0
   16.6385   -2.3217   35.1090 N   0  0  0  0  0  0  0  0  0  0  0  0
   12.9529   -1.4662   35.4613 O   0  0  0  0  0  0  0  0  0  0  0  0
   12.8234   -4.7792   37.0732 O   0  0  0  0  0  0  0  0  0  0  0  0
   15.3897   -4.8653   35.7113 O   0  0  0  0  0  0  0  0  0  0  0  0
   14.0827   -0.3072   33.3062 O   0  0  0  0  0  0  0  0  0  0  0  0
   11.5636    5.0939   34.2124 C   0  0  1  0  0  0  0  0  0  0  0  0
   12.4964    6.2518   34.7183 C   0  0  1  0  0  0  0  0  0  0  0  0
   12.2135    7.5420   33.8675 C   0  0  2  0  0  0  0  0  0  0  0  0
   12.5151    7.2521   32.3894 C   0  0  1  0  0  0  0  0  0  0  0  0
   11.5677    6.0988   31.8789 C   0  0  0  0  0  0  0  0  0  0  0  0
   11.8391    4.8049   32.7429 C   0  0  2  0  0  0  0  0  0  0  0  0
   12.2677    8.4580   31.6164 N   0  0  0  0  0  0  0  0  0  0  0  0
   10.9478    3.6979   32.3067 N   0  0  0  0  0  0  0  0  0  0  0  0
   12.2142    6.5298   36.1199 O   0  0  0  0  0  0  0  0  0  0  0  0
   13.0579    8.5739   34.3039 O   0  0  0  0  0  0  0  0  0  0  0  0
  1  2  1  0  0  0  0
  1 12  1  6  0  0  0
  1 13  1  0  0  0  0
  2  3  1  0  0  0  0
  2 10  1  6  0  0  0
  4  3  1  6  0  0  0
  4  5  1  0  0  0  0
  4 14  1  0  0  0  0
  5  6  1  0  0  0  0
  5 13  1  1  0  0  0
  6  7  1  0  0  0  0
  6 15  1  1  0  0  0
  7  8  1  0  0  0  0
  7 11  1  1  0  0  0
  8 14  1  0  0  0  0
  8 16  1  6  0  0  0
  9 11  1  0  0  0  0
 17 16  1  1  0  0  0
 17 18  1  0  0  0  0
 17 24  1  0  0  0  0
 18 19  1  0  0  0  0
 18 25  1  1  0  0  0
 19 20  1  0  0  0  0
 19 26  1  6  0  0  0
 20 21  1  0  0  0  0
 20 23  1  1  0  0  0
 21 22  1  6  0  0  0
 21 24  1  0  0  0  0
 22 27  1  0  0  0  0
 28 12  1  1  0  0  0
 28 29  1  0  0  0  0
 28 33  1  0  0  0  0
 29 30  1  0  0  0  0
 29 36  1  1  0  0  0
 30 31  1  0  0  0  0
 30 37  1  1  0  0  0
 31 32  1  0  0  0  0
 31 34  1  6  0  0  0
 32 33  1  0  0  0  0
 33 35  1  6  0  0  0
M  END
>  <CHROM.1>
-109.41319508,76.09376775,41.73509987,173.56884103,65.48349194,52.26643062
12.54411650,1.51790031,35.66841358,1.70598436,0.71102264,-0.36203466

>  <Name>
2oe5_lig

>  <RI>
0

>  <Rbt.Current_Directory>
/home/afrankz/demos/rdock_decoys_rna/rnas/2oe5

>  <Rbt.Executable>
rbdock ($Id: //depot/dev/client3/rdock/2013.1/src/exe/rbdock.cxx#4 $)

>  <Rbt.Library>
libRbt.so (2013.1, Build901 2013/11/27)

>  <Rbt.Parameter_File>
/export/apps/rDock/src/rDock_2013.1_src/data/scripts/dock_solv.prm

>  <Rbt.Receptor>
prm/blind_docking_40.prm

>  <SCORE>
25.3579

>  <SCORE.INTER>
5.74704

>  <SCORE.INTER.CONST>
1

>  <SCORE.INTER.POLAR>
0

>  <SCORE.INTER.ROT>
6

>  <SCORE.INTER.SOLV>
17.1062

>  <SCORE.INTER.VDW>
-9.4707

>  <SCORE.INTER.norm>
0.155325

>  <SCORE.INTRA>
6.48794

>  <SCORE.INTRA.DIHEDRAL>
-7.2262

>  <SCORE.INTRA.DIHEDRAL.0>
16.2083

>  <SCORE.INTRA.POLAR>
0

>  <SCORE.INTRA.POLAR.0>
0

>  <SCORE.INTRA.REPUL>
0

>  <SCORE.INTRA.REPUL.0>
0

>  <SCORE.INTRA.SOLV>
1.64191

>  <SCORE.INTRA.SOLV.lig_0>
-89.8095

>  <SCORE.INTRA.VDW>
9.28009

>  <SCORE.INTRA.VDW.0>
-3.19502

>  <SCORE.INTRA.norm>
0.17535

>  <SCORE.RESTR>
13.1229

>  <SCORE.RESTR.CAVITY>
13.1229

>  <SCORE.RESTR.norm>
0.354674

>  <SCORE.SYSTEM>
0

>  <SCORE.SYSTEM.CONST>
0

>  <SCORE.SYSTEM.DIHEDRAL>
0

>  <SCORE.SYSTEM.SOLV>
0

>  <SCORE.SYSTEM.norm>
0

>  <SCORE.heavy>
37

>  <SCORE.norm>
0.685349

>  <RMSD>
19.786

$$$$
2oe5_lig
 OpenBabel11021811463D
libRbt.so/2013.1/901 2013/11/27
 37 40  0  0  0  0  0  0  0  0999 V2000
   11.9193    3.9097   33.2883 C   0  0  1  0  0  0  0  0  0  0  0  0
   10.7252    2.9425   33.1266 C   0  0  1  0  0  0  0  0  0  0  0  0
   10.9558    1.6765   34.0329 C   0  0  0  0  0  0  0  0  0  0  0  0
   12.2820    1.0569   33.5382 C   0  0  1  0  0  0  0  0  0  0  0  0
   13.5002    2.0687   33.7077 C   0  0  1  0  0  0  0  0  0  0  0  0
   14.8453    1.4623   33.2228 C   0  0  1  0  0  0  0  0  0  0  0  0
   15.0941    0.1820   34.0700 C   0  0  1  0  0  0  0  0  0  0  0  0
   13.8483   -0.7694   33.9095 C   0  0  2  0  0  0  0  0  0  0  0  0
   16.5211   -0.9854   32.2089 C   0  0  0  0  0  0  0  0  0  0  0  0
    9.4699    3.6164   33.5313 N   0  0  0  0  0  0  0  0  0  0  0  0
   16.3657   -0.5038   33.6259 N   0  0  0  0  0  0  0  0  0  0  0  0
   12.0341    4.4019   34.6334 O   0  0  0  0  0  0  0  0  0  0  0  0
   13.1991    3.2764   32.9363 O   0  0  0  0  0  0  0  0  0  0  0  0
   12.5824   -0.1309   34.3190 O   0  0  0  0  0  0  0  0  0  0  0  0
   14.7159    1.1602   31.8299 O   0  0  0  0  0  0  0  0  0  0  0  0
   14.0105   -1.9186   34.7172 O   0  0  0  0  0  0  0  0  0  0  0  0
   14.2765   -1.5417   36.0552 C   0  0  2  0  0  0  0  0  0  0  0  0
   14.3043   -2.7413   37.0016 C   0  0  1  0  0  0  0  0  0  0  0  0
   12.9130   -3.4280   37.0781 C   0  0  2  0  0  0  0  0  0  0  0  0
   11.8833   -2.3519   37.5336 C   0  0  1  0  0  0  0  0  0  0  0  0
   11.8933   -1.1924   36.4840 C   0  0  1  0  0  0  0  0  0  0  0  0
   10.9622   -0.0594   36.8540 C   0  0  0  0  0  0  0  0  0  0  0  0
   10.5257   -3.0111   37.6141 N   0  0  0  0  0  0  0  0  0  0  0  0
   13.2379   -0.6037   36.4788 O   0  0  0  0  0  0  0  0  0  0  0  0
   15.3023   -3.6579   36.5102 O   0  0  0  0  0  0  0  0  0  0  0  0
   12.9855   -4.4738   38.0641 O   0  0  0  0  0  0  0  0  0  0  0  0
    9.6324   -0.4516   36.8331 O   0  0  0  0  0  0  0  0  0  0  0  0
   12.8015    5.5999   34.7542 C   0  0  1  0  0  0  0  0  0  0  0  0
   11.9283    6.7292   35.4091 C   0  0  1  0  0  0  0  0  0  0  0  0
   12.7972    8.0313   35.5434 C   0  0  2  0  0  0  0  0  0  0  0  0
   14.0119    7.7413   36.4380 C   0  0  1  0  0  0  0  0  0  0  0  0
   14.8954    6.6171   35.7718 C   0  0  0  0  0  0  0  0  0  0  0  0
   14.0194    5.3115   35.6214 C   0  0  2  0  0  0  0  0  0  0  0  0
   14.7967    8.9578   36.5695 N   0  0  0  0  0  0  0  0  0  0  0  0
   14.8110    4.2316   34.9756 N   0  0  0  0  0  0  0  0  0  0  0  0
   10.7747    7.0071   34.5644 O   0  0  0  0  0  0  0  0  0  0  0  0
   12.0265    9.0374   36.1451 O   0  0  0  0  0  0  0  0  0  0  0  0
  1  2  1  0  0  0  0
  1 12  1  1  0  0  0
  1 13  1  0  0  0  0
  2  3  1  0  0  0  0
  2 10  1  1  0  0  0
  4  3  1  1  0  0  0
  4  5  1  0  0  0  0
  4 14  1  0  0  0  0
  5  6  1  0  0  0  0
  5 13  1  6  0  0  0
  6  7  1  0  0  0  0
  6 15  1  6  0  0  0
  7  8  1  0  0  0  0
  7 11  1  6  0  0  0
  8 14  1  0  0  0  0
  8 16  1  1  0  0  0
  9 11  1  0  0  0  0
 17 16  1  6  0  0  0
 17 18  1  0  0  0  0
 17 24  1  0  0  0  0
 18 19  1  0  0  0  0
 18 25  1  6  0  0  0
 19 20  1  0  0  0  0
 19 26  1  1  0  0  0
 20 21  1  0  0  0  0
 20 23  1  6  0  0  0
 21 22  1  1  0  0  0
 21 24  1  0  0  0  0
 22 27  1  0  0  0  0
 28 12  1  1  0  0  0
 28 29  1  0  0  0  0
 28 33  1  0  0  0  0
 29 30  1  0  0  0  0
 29 36  1  6  0  0  0
 30 31  1  0  0  0  0
 30 37  1  1  0  0  0
 31 32  1  0  0  0  0
 31 34  1  6  0  0  0
 32 33  1  0  0  0  0
 33 35  1  6  0  0  0
M  END
>  <CHROM.1>
-160.23310324,-59.45670020,53.58033314,173.54428594,-65.76409261,121.87769422
13.04283071,1.78266984,35.10571827,-1.63614804,-0.58331825,3.00599005

>  <Name>
2oe5_lig

>  <RI>
0

>  <Rbt.Current_Directory>
/home/afrankz/demos/rdock_decoys_rna/rnas/2oe5

>  <Rbt.Executable>
rbdock ($Id: //depot/dev/client3/rdock/2013.1/src/exe/rbdock.cxx#4 $)

>  <Rbt.Library>
libRbt.so (2013.1, Build901 2013/11/27)

>  <Rbt.Parameter_File>
/export/apps/rDock/src/rDock_2013.1_src/data/scripts/dock_solv.prm

>  <Rbt.Receptor>
prm/blind_docking_40.prm

>  <SCORE>
23.559

>  <SCORE.INTER>
4.21963

>  <SCORE.INTER.CONST>
1

>  <SCORE.INTER.POLAR>
0

>  <SCORE.INTER.ROT>
6

>  <SCORE.INTER.SOLV>
12.3656

>  <SCORE.INTER.VDW>
-8.90878

>  <SCORE.INTER.norm>
0.114044

>  <SCORE.INTRA>
4.77045

>  <SCORE.INTRA.DIHEDRAL>
-6.66358

>  <SCORE.INTRA.DIHEDRAL.0>
16.2083

>  <SCORE.INTRA.POLAR>
0

>  <SCORE.INTRA.POLAR.0>
0

>  <SCORE.INTRA.REPUL>
0

>  <SCORE.INTRA.REPUL.0>
0

>  <SCORE.INTRA.SOLV>
2.61678

>  <SCORE.INTRA.SOLV.lig_0>
-89.8095

>  <SCORE.INTRA.VDW>
6.79385

>  <SCORE.INTRA.VDW.0>
-3.19502

>  <SCORE.INTRA.norm>
0.128931

>  <SCORE.RESTR>
14.5689

>  <SCORE.RESTR.CAVITY>
14.5689

>  <SCORE.RESTR.norm>
0.393755

>  <SCORE.SYSTEM>
0

>  <SCORE.SYSTEM.CONST>
0

>  <SCORE.SYSTEM.DIHEDRAL>
0

>  <SCORE.SYSTEM.SOLV>
0

>  <SCORE.SYSTEM.norm>
0

>  <SCORE.heavy>
37

>  <SCORE.norm>
0.636731

>  <RMSD>
19.830

$$$$
2oe5_lig
 OpenBabel11021811463D
libRbt.so/2013.1/901 2013/11/27
 37 40  0  0  0  0  0  0  0  0999 V2000
   11.0871    3.5318   34.1762 C   0  0  1  0  0  0  0  0  0  0  0  0
   10.1934    2.3388   33.7693 C   0  0  1  0  0  0  0  0  0  0  0  0
   10.8889    0.9962   34.2059 C   0  0  0  0  0  0  0  0  0  0  0  0
   12.2495    0.9847   33.4738 C   0  0  1  0  0  0  0  0  0  0  0  0
   13.1550    2.2232   33.9013 C   0  0  1  0  0  0  0  0  0  0  0  0
   14.5313    2.2266   33.1817 C   0  0  1  0  0  0  0  0  0  0  0  0
   15.2397    0.8940   33.5570 C   0  0  1  0  0  0  0  0  0  0  0  0
   14.2926   -0.3009   33.1588 C   0  0  2  0  0  0  0  0  0  0  0  0
   16.9864   -0.4885   32.1784 C   0  0  0  0  0  0  0  0  0  0  0  0
    8.8726    2.4475   34.4304 N   0  0  0  0  0  0  0  0  0  0  0  0
   16.5737    0.7910   32.8539 N   0  0  0  0  0  0  0  0  0  0  0  0
   11.2531    3.6177   35.6009 O   0  0  0  0  0  0  0  0  0  0  0  0
   12.4276    3.4519   33.5767 O   0  0  0  0  0  0  0  0  0  0  0  0
   12.9721   -0.2290   33.8137 O   0  0  0  0  0  0  0  0  0  0  0  0
   14.2924    2.3226   31.7739 O   0  0  0  0  0  0  0  0  0  0  0  0
   14.8770   -1.5297   33.5433 O   0  0  0  0  0  0  0  0  0  0  0  0
   15.4402   -1.4192   34.8370 C   0  0  2  0  0  0  0  0  0  0  0  0
   16.1683   -2.6931   35.2641 C   0  0  1  0  0  0  0  0  0  0  0  0
   15.1830   -3.8877   35.3881 C   0  0  2  0  0  0  0  0  0  0  0  0
   14.0779   -3.4803   36.4072 C   0  0  1  0  0  0  0  0  0  0  0  0
   13.3616   -2.2004   35.8639 C   0  0  1  0  0  0  0  0  0  0  0  0
   12.2969   -1.6814   36.8043 C   0  0  0  0  0  0  0  0  0  0  0  0
   13.1150   -4.6378   36.5373 N   0  0  0  0  0  0  0  0  0  0  0  0
   14.3610   -1.1287   35.7798 O   0  0  0  0  0  0  0  0  0  0  0  0
   17.1819   -2.9649   34.2760 O   0  0  0  0  0  0  0  0  0  0  0  0
   15.9143   -5.0181   35.8963 O   0  0  0  0  0  0  0  0  0  0  0  0
   11.5131   -0.7026   36.2125 O   0  0  0  0  0  0  0  0  0  0  0  0
   11.8084    4.8536   36.0514 C   0  0  1  0  0  0  0  0  0  0  0  0
   13.2890    4.9893   35.5451 C   0  0  1  0  0  0  0  0  0  0  0  0
   13.8731    6.3608   36.0414 C   0  0  2  0  0  0  0  0  0  0  0  0
   13.0297    7.5095   35.4677 C   0  0  1  0  0  0  0  0  0  0  0  0
   11.5464    7.3799   35.9885 C   0  0  0  0  0  0  0  0  0  0  0  0
   10.9620    5.9949   35.5040 C   0  0  2  0  0  0  0  0  0  0  0  0
   13.5912    8.7722   35.9185 N   0  0  0  0  0  0  0  0  0  0  0  0
    9.5690    5.8237   35.9942 N   0  0  0  0  0  0  0  0  0  0  0  0
   14.0924    3.9016   36.0863 O   0  0  0  0  0  0  0  0  0  0  0  0
   15.1897    6.4945   35.5757 O   0  0  0  0  0  0  0  0  0  0  0  0
  1  2  1  0  0  0  0
  1 12  1  1  0  0  0
  1 13  1  0  0  0  0
  2  3  1  0  0  0  0
  2 10  1  1  0  0  0
  4  3  1  1  0  0  0
  4  5  1  0  0  0  0
  4 14  1  0  0  0  0
  5  6  1  0  0  0  0
  5 13  1  6  0  0  0
  6  7  1  0  0  0  0
  6 15  1  6  0  0  0
  7  8  1  0  0  0  0
  7 11  1  6  0  0  0
  8 14  1  0  0  0  0
  8 16  1  1  0  0  0
  9 11  1  0  0  0  0
 17 16  1  6  0  0  0
 17 18  1  0  0  0  0
 17 24  1  0  0  0  0
 18 19  1  0  0  0  0
 18 25  1  6  0  0  0
 19 20  1  0  0  0  0
 19 26  1  1  0  0  0
 20 21  1  0  0  0  0
 20 23  1  6  0  0  0
 21 22  1  1  0  0  0
 21 24  1  0  0  0  0
 22 27  1  0  0  0  0
 28 12  1  6  0  0  0
 28 29  1  0  0  0  0
 28 33  1  0  0  0  0
 29 30  1  0  0  0  0
 29 36  1  1  0  0  0
 30 31  1  0  0  0  0
 30 37  1  6  0  0  0
 31 32  1  0  0  0  0
 31 34  1  1  0  0  0
 32 33  1  0  0  0  0
 33 35  1  1  0  0  0
M  END
>  <CHROM.1>
-166.62722654,-134.75273427,42.78233283,-176.15799613,-169.20116959,-66.32174434
13.42274730,1.46130884,34.82008292,1.89837427,0.32026424,-0.06406056

>  <Name>
2oe5_lig

>  <RI>
0

>  <Rbt.Current_Directory>
/home/afrankz/demos/rdock_decoys_rna/rnas/2oe5

>  <Rbt.Executable>
rbdock ($Id: //depot/dev/client3/rdock/2013.1/src/exe/rbdock.cxx#4 $)

>  <Rbt.Library>
libRbt.so (2013.1, Build901 2013/11/27)

>  <Rbt.Parameter_File>
/export/apps/rDock/src/rDock_2013.1_src/data/scripts/dock_solv.prm

>  <Rbt.Receptor>
prm/blind_docking_40.prm

>  <SCORE>
18.5255

>  <SCORE.INTER>
1.398

>  <SCORE.INTER.CONST>
1

>  <SCORE.INTER.POLAR>
0

>  <SCORE.INTER.ROT>
6

>  <SCORE.INTER.SOLV>
17.9312

>  <SCORE.INTER.VDW>
-12.6451

>  <SCORE.INTER.norm>
0.0377837

>  <SCORE.INTRA>
2.86698

>  <SCORE.INTRA.DIHEDRAL>
-12.2228

>  <SCORE.INTRA.DIHEDRAL.0>
16.2083

>  <SCORE.INTRA.POLAR>
0

>  <SCORE.INTRA.POLAR.0>
0

>  <SCORE.INTRA.REPUL>
0.0197337

>  <SCORE.INTRA.REPUL.0>
0

>  <SCORE.INTRA.SOLV>
0.945039

>  <SCORE.INTRA.SOLV.lig_0>
-89.8095

>  <SCORE.INTRA.VDW>
8.40722

>  <SCORE.INTRA.VDW.0>
-3.19502

>  <SCORE.INTRA.norm>
0.0774861

>  <SCORE.RESTR>
14.2605

>  <SCORE.RESTR.CAVITY>
14.2605

>  <SCORE.RESTR.norm>
0.385419

>  <SCORE.SYSTEM>
0

>  <SCORE.SYSTEM.CONST>
0

>  <SCORE.SYSTEM.DIHEDRAL>
0

>  <SCORE.SYSTEM.SOLV>
0

>  <SCORE.SYSTEM.norm>
0

>  <SCORE.heavy>
37

>  <SCORE.norm>
0.500689

>  <RMSD>
19.847

$$$$
2oe5_lig
 OpenBabel11021811463D
libRbt.so/2013.1/901 2013/11/27
 37 40  0  0  0  0  0  0  0  0999 V2000
    9.0645    2.8532   35.7358 C   0  0  1  0  0  0  0  0  0  0  0  0
    8.9395    1.9939   37.0139 C   0  0  1  0  0  0  0  0  0  0  0  0
   10.3589    1.4397   37.4080 C   0  0  0  0  0  0  0  0  0  0  0  0
   10.8264    0.6122   36.1898 C   0  0  1  0  0  0  0  0  0  0  0  0
   10.9448    1.5122   34.8812 C   0  0  1  0  0  0  0  0  0  0  0  0
   11.4208    0.7005   33.6456 C   0  0  1  0  0  0  0  0  0  0  0  0
   12.8095    0.1011   34.0075 C   0  0  1  0  0  0  0  0  0  0  0  0
   12.6566   -0.7430   35.3294 C   0  0  2  0  0  0  0  0  0  0  0  0
   14.7583   -0.6421   32.4224 C   0  0  0  0  0  0  0  0  0  0  0  0
    8.4047    2.8144   38.1248 N   0  0  0  0  0  0  0  0  0  0  0  0
   13.3266   -0.7518   32.8719 N   0  0  0  0  0  0  0  0  0  0  0  0
    9.8959    4.0068   35.9428 O   0  0  0  0  0  0  0  0  0  0  0  0
    9.6292    2.0949   34.6093 O   0  0  0  0  0  0  0  0  0  0  0  0
   12.1389    0.0512   36.4604 O   0  0  0  0  0  0  0  0  0  0  0  0
   10.4520   -0.3213   33.3895 O   0  0  0  0  0  0  0  0  0  0  0  0
   13.9144   -1.2530   35.7254 O   0  0  0  0  0  0  0  0  0  0  0  0
   14.0645   -2.5864   35.2754 C   0  0  2  0  0  0  0  0  0  0  0  0
   14.0481   -3.5927   36.4255 C   0  0  1  0  0  0  0  0  0  0  0  0
   15.2605   -3.3813   37.3733 C   0  0  2  0  0  0  0  0  0  0  0  0
   16.5540   -3.5015   36.5141 C   0  0  1  0  0  0  0  0  0  0  0  0
   16.5014   -2.4072   35.3979 C   0  0  1  0  0  0  0  0  0  0  0  0
   17.6906   -2.4642   34.4652 C   0  0  0  0  0  0  0  0  0  0  0  0
   17.7405   -3.3001   37.4283 N   0  0  0  0  0  0  0  0  0  0  0  0
   15.3326   -2.6833   34.5540 O   0  0  0  0  0  0  0  0  0  0  0  0
   12.8057   -3.4191   37.1354 O   0  0  0  0  0  0  0  0  0  0  0  0
   15.2403   -4.4258   38.3630 O   0  0  0  0  0  0  0  0  0  0  0  0
   17.5126   -1.6645   33.3466 O   0  0  0  0  0  0  0  0  0  0  0  0
   11.0047    4.0966   35.0477 C   0  0  1  0  0  0  0  0  0  0  0  0
   10.5542    4.7796   33.7070 C   0  0  1  0  0  0  0  0  0  0  0  0
   11.7925    4.8791   32.7451 C   0  0  2  0  0  0  0  0  0  0  0  0
   12.8851    5.7300   33.4099 C   0  0  1  0  0  0  0  0  0  0  0  0
   13.3465    5.0354   34.7489 C   0  0  0  0  0  0  0  0  0  0  0  0
   12.0999    4.9201   35.7118 C   0  0  2  0  0  0  0  0  0  0  0  0
   14.0166    5.8298   32.5029 N   0  0  0  0  0  0  0  0  0  0  0  0
   12.4888    4.2490   36.9800 N   0  0  0  0  0  0  0  0  0  0  0  0
    9.5176    3.9763   33.0733 O   0  0  0  0  0  0  0  0  0  0  0  0
   11.3987    5.5055   31.5532 O   0  0  0  0  0  0  0  0  0  0  0  0
  1  2  1  0  0  0  0
  1 12  1  1  0  0  0
  1 13  1  0  0  0  0
  2  3  1  0  0  0  0
  2 10  1  1  0  0  0
  4  3  1  1  0  0  0
  4  5  1  0  0  0  0
  4 14  1  0  0  0  0
  5  6  1  0  0  0  0
  5 13  1  6  0  0  0
  6  7  1  0  0  0  0
  6 15  1  1  0  0  0
  7  8  1  0  0  0  0
  7 11  1  6  0  0  0
  8 14  1  0  0  0  0
  8 16  1  1  0  0  0
  9 11  1  0  0  0  0
 17 16  1  1  0  0  0
 17 18  1  0  0  0  0
 17 24  1  0  0  0  0
 18 19  1  0  0  0  0
 18 25  1  1  0  0  0
 19 20  1  0  0  0  0
 19 26  1  1  0  0  0
 20 21  1  0  0  0  0
 20 23  1  1  0  0  0
 21 22  1  6  0  0  0
 21 24  1  0  0  0  0
 22 27  1  0  0  0  0
 28 12  1  1  0  0  0
 28 29  1  0  0  0  0
 28 33  1  0  0  0  0
 29 30  1  0  0  0  0
 29 36  1  6  0  0  0
 30 31  1  0  0  0  0
 30 37  1  6  0  0  0
 31 32  1  0  0  0  0
 31 34  1  6  0  0  0
 32 33  1  0  0  0  0
 33 35  1  1  0  0  0
M  END
>  <CHROM.1>
123.18884910,135.42631384,-97.13870086,-110.75188538,168.79924309,84.72508543
12.74547773,0.77830271,35.10598381,2.26342872,0.53088129,-0.60418931

>  <Name>
2oe5_lig

>  <RI>
0

>  <Rbt.Current_Directory>
/home/afrankz/demos/rdock_decoys_rna/rnas/2oe5

>  <Rbt.Executable>
rbdock ($Id: //depot/dev/client3/rdock/2013.1/src/exe/rbdock.cxx#4 $)

>  <Rbt.Library>
libRbt.so (2013.1, Build901 2013/11/27)

>  <Rbt.Parameter_File>
/export/apps/rDock/src/rDock_2013.1_src/data/scripts/dock_solv.prm

>  <Rbt.Receptor>
prm/blind_docking_40.prm

>  <SCORE>
28.5158

>  <SCORE.INTER>
5.24433

>  <SCORE.INTER.CONST>
1

>  <SCORE.INTER.POLAR>
-0.660833

>  <SCORE.INTER.ROT>
6

>  <SCORE.INTER.SOLV>
23.5655

>  <SCORE.INTER.VDW>
-9.75618

>  <SCORE.INTER.norm>
0.141739

>  <SCORE.INTRA>
9.0443

>  <SCORE.INTRA.DIHEDRAL>
6.68141

>  <SCORE.INTRA.DIHEDRAL.0>
16.2083

>  <SCORE.INTRA.POLAR>
0

>  <SCORE.INTRA.POLAR.0>
0

>  <SCORE.INTRA.REPUL>
0

>  <SCORE.INTRA.REPUL.0>
0

>  <SCORE.INTRA.SOLV>
-0.000269629

>  <SCORE.INTRA.SOLV.lig_0>
-89.8095

>  <SCORE.INTRA.VDW>
5.70373

>  <SCORE.INTRA.VDW.0>
-3.19502

>  <SCORE.INTRA.norm>
0.244441

>  <SCORE.RESTR>
14.2272

>  <SCORE.RESTR.CAVITY>
14.2272

>  <SCORE.RESTR.norm>
0.384518

>  <SCORE.SYSTEM>
0

>  <SCORE.SYSTEM.CONST>
0

>  <SCORE.SYSTEM.DIHEDRAL>
0

>  <SCORE.SYSTEM.SOLV>
0

>  <SCORE.SYSTEM.norm>
0

>  <SCORE.heavy>
37

>  <SCORE.norm>
0.770697

>  <RMSD>
19.950

$$$$
2oe5_lig
 OpenBabel11021811463D
libRbt.so/2013.1/901 2013/11/27
 37 40  0  0  0  0  0  0  0  0999 V2000
   12.4426    3.7766   33.0590 C   0  0  1  0  0  0  0  0  0  0  0  0
   11.1626    2.9112   33.0697 C   0  0  1  0  0  0  0  0  0  0  0  0
   11.3856    1.6655   34.0055 C   0  0  0  0  0  0  0  0  0  0  0  0
   12.5948    0.9147   33.4041 C   0  0  1  0  0  0  0  0  0  0  0  0
   13.9031    1.8227   33.3965 C   0  0  1  0  0  0  0  0  0  0  0  0
   15.1331    1.0838   32.8021 C   0  0  1  0  0  0  0  0  0  0  0  0
   15.3666   -0.1799   33.6781 C   0  0  1  0  0  0  0  0  0  0  0  0
   14.0367   -1.0251   33.6946 C   0  0  2  0  0  0  0  0  0  0  0  0
   17.4223   -1.7567   34.0655 C   0  0  0  0  0  0  0  0  0  0  0  0
   10.0185    3.7064   33.5717 N   0  0  0  0  0  0  0  0  0  0  0  0
   16.5217   -0.9899   33.1357 N   0  0  0  0  0  0  0  0  0  0  0  0
   12.7431    4.3080   34.3599 O   0  0  0  0  0  0  0  0  0  0  0  0
   13.6202    3.0217   32.6048 O   0  0  0  0  0  0  0  0  0  0  0  0
   12.8796   -0.2640   34.2042 O   0  0  0  0  0  0  0  0  0  0  0  0
   14.8287    0.7412   31.4464 O   0  0  0  0  0  0  0  0  0  0  0  0
   14.1908   -2.1523   34.5341 O   0  0  0  0  0  0  0  0  0  0  0  0
   14.4631   -1.7401   35.8603 C   0  0  2  0  0  0  0  0  0  0  0  0
   14.4730   -2.9113   36.8419 C   0  0  1  0  0  0  0  0  0  0  0  0
   13.0715   -3.5742   36.9387 C   0  0  2  0  0  0  0  0  0  0  0  0
   12.0585   -2.4695   37.3621 C   0  0  1  0  0  0  0  0  0  0  0  0
   12.0857   -1.3419   36.2786 C   0  0  1  0  0  0  0  0  0  0  0  0
   11.1721   -0.1844   36.6149 C   0  0  0  0  0  0  0  0  0  0  0  0
   10.6911   -3.1053   37.4621 N   0  0  0  0  0  0  0  0  0  0  0  0
   13.4391   -0.7742   36.2560 O   0  0  0  0  0  0  0  0  0  0  0  0
   15.4567   -3.8572   36.3779 O   0  0  0  0  0  0  0  0  0  0  0  0
   13.1284   -4.5913   37.9552 O   0  0  0  0  0  0  0  0  0  0  0  0
   11.5934    0.4987   37.7456 O   0  0  0  0  0  0  0  0  0  0  0  0
   12.4700    5.7025   34.4991 C   0  0  1  0  0  0  0  0  0  0  0  0
   11.6971    5.9635   35.8413 C   0  0  1  0  0  0  0  0  0  0  0  0
   11.4203    7.5040   35.9782 C   0  0  2  0  0  0  0  0  0  0  0  0
   12.7572    8.2601   36.0033 C   0  0  1  0  0  0  0  0  0  0  0  0
   13.5257    8.0086   34.6489 C   0  0  0  0  0  0  0  0  0  0  0  0
   13.7916    6.4588   34.5013 C   0  0  2  0  0  0  0  0  0  0  0  0
   12.4880    9.6812   36.1490 N   0  0  0  0  0  0  0  0  0  0  0  0
   14.4965    6.1764   33.2233 N   0  0  0  0  0  0  0  0  0  0  0  0
   10.4287    5.2478   35.8223 O   0  0  0  0  0  0  0  0  0  0  0  0
   10.7462    7.7438   37.1850 O   0  0  0  0  0  0  0  0  0  0  0  0
  1  2  1  0  0  0  0
  1 12  1  1  0  0  0
  1 13  1  0  0  0  0
  2  3  1  0  0  0  0
  2 10  1  1  0  0  0
  4  3  1  1  0  0  0
  4  5  1  0  0  0  0
  4 14  1  0  0  0  0
  5  6  1  0  0  0  0
  5 13  1  6  0  0  0
  6  7  1  0  0  0  0
  6 15  1  6  0  0  0
  7  8  1  0  0  0  0
  7 11  1  6  0  0  0
  8 14  1  0  0  0  0
  8 16  1  1  0  0  0
  9 11  1  0  0  0  0
 17 16  1  6  0  0  0
 17 18  1  0  0  0  0
 17 24  1  0  0  0  0
 18 19  1  0  0  0  0
 18 25  1  6  0  0  0
 19 20  1  0  0  0  0
 19 26  1  1  0  0  0
 20 21  1  0  0  0  0
 20 23  1  6  0  0  0
 21 22  1  1  0  0  0
 21 24  1  0  0  0  0
 22 27  1  0  0  0  0
 28 12  1  1  0  0  0
 28 29  1  0  0  0  0
 28 33  1  0  0  0  0
 29 30  1  0  0  0  0
 29 36  1  6  0  0  0
 30 31  1  0  0  0  0
 30 37  1  1  0  0  0
 31 32  1  0  0  0  0
 31 34  1  6  0  0  0
 32 33  1  0  0  0  0
 33 35  1  6  0  0  0
M  END
>  <CHROM.1>
-106.10532181,146.75287223,61.06167734,173.14584263,65.85549352,133.72478652
13.07734663,1.69264306,35.00352191,-1.82778884,-0.81385240,2.87080847

>  <Name>
2oe5_lig

>  <RI>
0

>  <Rbt.Current_Directory>
/home/afrankz/demos/rdock_decoys_rna/rnas/2oe5

>  <Rbt.Executable>
rbdock ($Id: //depot/dev/client3/rdock/2013.1/src/exe/rbdock.cxx#4 $)

>  <Rbt.Library>
libRbt.so (2013.1, Build901 2013/11/27)

>  <Rbt.Parameter_File>
/export/apps/rDock/src/rDock_2013.1_src/data/scripts/dock_solv.prm

>  <Rbt.Receptor>
prm/blind_docking_40.prm

>  <SCORE>
23.0616

>  <SCORE.INTER>
3.33266

>  <SCORE.INTER.CONST>
1

>  <SCORE.INTER.POLAR>
0

>  <SCORE.INTER.ROT>
6

>  <SCORE.INTER.SOLV>
11.7728

>  <SCORE.INTER.VDW>
-9.30249

>  <SCORE.INTER.norm>
0.0900718

>  <SCORE.INTRA>
7.4112

>  <SCORE.INTRA.DIHEDRAL>
-2.54113

>  <SCORE.INTRA.DIHEDRAL.0>
16.2083

>  <SCORE.INTRA.POLAR>
0

>  <SCORE.INTRA.POLAR.0>
0

>  <SCORE.INTRA.REPUL>
0

>  <SCORE.INTRA.REPUL.0>
0

>  <SCORE.INTRA.SOLV>
1.50585

>  <SCORE.INTRA.SOLV.lig_0>
-89.8095

>  <SCORE.INTRA.VDW>
7.92884

>  <SCORE.INTRA.VDW.0>
-3.19502

>  <SCORE.INTRA.norm>
0.200303

>  <SCORE.RESTR>
12.3178

>  <SCORE.RESTR.CAVITY>
12.3178

>  <SCORE.RESTR.norm>
0.332913

>  <SCORE.SYSTEM>
0

>  <SCORE.SYSTEM.CONST>
0

>  <SCORE.SYSTEM.DIHEDRAL>
0

>  <SCORE.SYSTEM.SOLV>
0

>  <SCORE.SYSTEM.norm>
0

>  <SCORE.heavy>
37

>  <SCORE.norm>
0.623287

>  <RMSD>
19.964

$$$$
2oe5_lig
 OpenBabel11021811463D
libRbt.so/2013.1/901 2013/11/27
 37 40  0  0  0  0  0  0  0  0999 V2000
   11.1976    4.7207   35.4712 C   0  0  1  0  0  0  0  0  0  0  0  0
   12.5421    4.6135   36.2251 C   0  0  1  0  0  0  0  0  0  0  0  0
   12.9698    3.1014   36.3119 C   0  0  0  0  0  0  0  0  0  0  0  0
   11.8194    2.3945   37.0632 C   0  0  1  0  0  0  0  0  0  0  0  0
   10.4413    2.5192   36.2748 C   0  0  1  0  0  0  0  0  0  0  0  0
    9.2723    1.8085   37.0099 C   0  0  1  0  0  0  0  0  0  0  0  0
    9.6718    0.3122   37.1513 C   0  0  1  0  0  0  0  0  0  0  0  0
   11.0588    0.2368   37.8953 C   0  0  2  0  0  0  0  0  0  0  0  0
    7.8418   -1.5603   37.2398 C   0  0  0  0  0  0  0  0  0  0  0  0
   13.5866    5.3809   35.5085 N   0  0  0  0  0  0  0  0  0  0  0  0
    8.6054   -0.4481   37.9059 N   0  0  0  0  0  0  0  0  0  0  0  0
   11.3044    4.2615   34.1138 O   0  0  0  0  0  0  0  0  0  0  0  0
   10.1324    3.9423   36.1210 O   0  0  0  0  0  0  0  0  0  0  0  0
   12.1253    0.9806   37.1972 O   0  0  0  0  0  0  0  0  0  0  0  0
    9.1069    2.4365   38.2853 O   0  0  0  0  0  0  0  0  0  0  0  0
   11.4860   -1.1080   37.9865 O   0  0  0  0  0  0  0  0  0  0  0  0
   11.1769   -1.8008   36.7917 C   0  0  2  0  0  0  0  0  0  0  0  0
   11.1278   -3.3147   36.9946 C   0  0  1  0  0  0  0  0  0  0  0  0
   12.5204   -3.8722   37.3983 C   0  0  2  0  0  0  0  0  0  0  0  0
   13.5289   -3.4676   36.2824 C   0  0  1  0  0  0  0  0  0  0  0  0
   13.5436   -1.9069   36.1811 C   0  0  1  0  0  0  0  0  0  0  0  0
   14.4558   -1.3996   35.0866 C   0  0  0  0  0  0  0  0  0  0  0  0
   14.8875   -4.0082   36.6646 N   0  0  0  0  0  0  0  0  0  0  0  0
   12.1961   -1.4697   35.7970 O   0  0  0  0  0  0  0  0  0  0  0  0
   10.1511   -3.5830   38.0201 O   0  0  0  0  0  0  0  0  0  0  0  0
   12.4245   -5.3065   37.4644 O   0  0  0  0  0  0  0  0  0  0  0  0
   14.5893   -2.3163   34.0548 O   0  0  0  0  0  0  0  0  0  0  0  0
   12.6068    3.8007   33.7532 C   0  0  1  0  0  0  0  0  0  0  0  0
   12.5503    2.2744   33.3868 C   0  0  1  0  0  0  0  0  0  0  0  0
   13.9904    1.7945   32.9812 C   0  0  2  0  0  0  0  0  0  0  0  0
   14.4677    2.5955   31.7605 C   0  0  1  0  0  0  0  0  0  0  0  0
   14.5376    4.1264   32.1343 C   0  0  0  0  0  0  0  0  0  0  0  0
   13.0941    4.6077   32.5574 C   0  0  2  0  0  0  0  0  0  0  0  0
   15.7922    2.1294   31.3842 N   0  0  0  0  0  0  0  0  0  0  0  0
   13.1214    6.0441   32.9396 N   0  0  0  0  0  0  0  0  0  0  0  0
   12.0974    1.5109   34.5415 O   0  0  0  0  0  0  0  0  0  0  0  0
   13.9410    0.4358   32.6353 O   0  0  0  0  0  0  0  0  0  0  0  0
  1  2  1  0  0  0  0
  1 12  1  6  0  0  0
  1 13  1  0  0  0  0
  2  3  1  0  0  0  0
  2 10  1  6  0  0  0
  4  3  1  6  0  0  0
  4  5  1  0  0  0  0
  4 14  1  0  0  0  0
  5  6  1  0  0  0  0
  5 13  1  1  0  0  0
  6  7  1  0  0  0  0
  6 15  1  1  0  0  0
  7  8  1  0  0  0  0
  7 11  1  1  0  0  0
  8 14  1  0  0  0  0
  8 16  1  6  0  0  0
  9 11  1  0  0  0  0
 17 16  1  1  0  0  0
 17 18  1  0  0  0  0
 17 24  1  0  0  0  0
 18 19  1  0  0  0  0
 18 25  1  1  0  0  0
 19 20  1  0  0  0  0
 19 26  1  6  0  0  0
 20 21  1  0  0  0  0
 20 23  1  1  0  0  0
 21 22  1  6  0  0  0
 21 24  1  0  0  0  0
 22 27  1  0  0  0  0
 28 12  1  6  0  0  0
 28 29  1  0  0  0  0
 28 33  1  0  0  0  0
 29 30  1  0  0  0  0
 29 36  1  1  0  0  0
 30 31  1  0  0  0  0
 30 37  1  6  0  0  0
 31 32  1  0  0  0  0
 31 34  1  1  0  0  0
 32 33  1  0  0  0  0
 33 35  1  1  0  0  0
M  END
>  <CHROM.1>
0.40897311,116.77352985,39.00556526,-158.88774241,27.85682316,116.96789411
12.14088216,0.77737918,35.60385393,1.33478364,0.70023369,-0.31169702

>  <Name>
2oe5_lig

>  <RI>
0

>  <Rbt.Current_Directory>
/home/afrankz/demos/rdock_decoys_rna/rnas/2oe5

>  <Rbt.Executable>
rbdock ($Id: //depot/dev/client3/rdock/2013.1/src/exe/rbdock.cxx#4 $)

>  <Rbt.Library>
libRbt.so (2013.1, Build901 2013/11/27)

>  <Rbt.Parameter_File>
/export/apps/rDock/src/rDock_2013.1_src/data/scripts/dock_solv.prm

>  <Rbt.Receptor>
prm/blind_docking_40.prm

>  <SCORE>
37.6664

>  <SCORE.INTER>
5.93264

>  <SCORE.INTER.CONST>
1

>  <SCORE.INTER.POLAR>
0

>  <SCORE.INTER.ROT>
6

>  <SCORE.INTER.SOLV>
13.5153

>  <SCORE.INTER.VDW>
-8.15001

>  <SCORE.INTER.norm>
0.160341

>  <SCORE.INTRA>
23.3236

>  <SCORE.INTRA.DIHEDRAL>
6.20493

>  <SCORE.INTRA.DIHEDRAL.0>
16.2083

>  <SCORE.INTRA.POLAR>
0

>  <SCORE.INTRA.POLAR.0>
0

>  <SCORE.INTRA.REPUL>
0.497901

>  <SCORE.INTRA.REPUL.0>
0

>  <SCORE.INTRA.SOLV>
6.92338

>  <SCORE.INTRA.SOLV.lig_0>
-89.8095

>  <SCORE.INTRA.VDW>
14.27

>  <SCORE.INTRA.VDW.0>
-3.19502

>  <SCORE.INTRA.norm>
0.630369

>  <SCORE.RESTR>
8.41012

>  <SCORE.RESTR.CAVITY>
8.41012

>  <SCORE.RESTR.norm>
0.2273

>  <SCORE.SYSTEM>
0

>  <SCORE.SYSTEM.CONST>
0

>  <SCORE.SYSTEM.DIHEDRAL>
0

>  <SCORE.SYSTEM.SOLV>
0

>  <SCORE.SYSTEM.norm>
0

>  <SCORE.heavy>
37

>  <SCORE.norm>
1.01801

>  <RMSD>
19.974

$$$$
2oe5_lig
 OpenBabel11021811463D
libRbt.so/2013.1/901 2013/11/27
 37 40  0  0  0  0  0  0  0  0999 V2000
   12.5839    3.8284   33.0050 C   0  0  1  0  0  0  0  0  0  0  0  0
   11.2847    2.9921   32.9998 C   0  0  1  0  0  0  0  0  0  0  0  0
   11.4693    1.7400   33.9355 C   0  0  0  0  0  0  0  0  0  0  0  0
   12.6678    0.9632   33.3459 C   0  0  1  0  0  0  0  0  0  0  0  0
   13.9962    1.8416   33.3546 C   0  0  1  0  0  0  0  0  0  0  0  0
   15.2158    1.0762   32.7723 C   0  0  1  0  0  0  0  0  0  0  0  0
   15.4111   -0.1940   33.6481 C   0  0  1  0  0  0  0  0  0  0  0  0
   14.0624   -1.0090   33.6483 C   0  0  2  0  0  0  0  0  0  0  0  0
   17.4745   -1.7546   34.0597 C   0  0  0  0  0  0  0  0  0  0  0  0
   10.1533    3.8119   33.4908 N   0  0  0  0  0  0  0  0  0  0  0  0
   16.5535   -1.0289   33.1168 N   0  0  0  0  0  0  0  0  0  0  0  0
   12.8818    4.3506   34.3102 O   0  0  0  0  0  0  0  0  0  0  0  0
   13.7491    3.0480   32.5622 O   0  0  0  0  0  0  0  0  0  0  0  0
   12.9172   -0.2230   34.1467 O   0  0  0  0  0  0  0  0  0  0  0  0
   14.9187    0.7429   31.4126 O   0  0  0  0  0  0  0  0  0  0  0  0
   14.1818   -2.1410   34.4872 O   0  0  0  0  0  0  0  0  0  0  0  0
   14.4226   -1.7365   35.8219 C   0  0  2  0  0  0  0  0  0  0  0  0
   14.4044   -2.9129   36.7973 C   0  0  1  0  0  0  0  0  0  0  0  0
   12.9987   -3.5714   36.8559 C   0  0  2  0  0  0  0  0  0  0  0  0
   11.9792   -2.4654   37.2600 C   0  0  1  0  0  0  0  0  0  0  0  0
   12.0370   -1.3323   36.1834 C   0  0  1  0  0  0  0  0  0  0  0  0
   11.1192   -0.1734   36.5031 C   0  0  0  0  0  0  0  0  0  0  0  0
   10.6076   -3.0970   37.3227 N   0  0  0  0  0  0  0  0  0  0  0  0
   13.3924   -0.7692   36.1973 O   0  0  0  0  0  0  0  0  0  0  0  0
   15.3961   -3.8598   36.3527 O   0  0  0  0  0  0  0  0  0  0  0  0
   13.0271   -4.5940   37.8681 O   0  0  0  0  0  0  0  0  0  0  0  0
   11.5152    0.5029   37.6470 O   0  0  0  0  0  0  0  0  0  0  0  0
   12.5699    5.7346   34.4714 C   0  0  1  0  0  0  0  0  0  0  0  0
   11.7813    5.9512   35.8123 C   0  0  1  0  0  0  0  0  0  0  0  0
   11.4617    7.4810   35.9736 C   0  0  2  0  0  0  0  0  0  0  0  0
   12.7773    8.2726   36.0212 C   0  0  1  0  0  0  0  0  0  0  0  0
   13.5614    8.0655   34.6682 C   0  0  0  0  0  0  0  0  0  0  0  0
   13.8704    6.5263   34.4960 C   0  0  2  0  0  0  0  0  0  0  0  0
   12.4685    9.6830   36.1894 N   0  0  0  0  0  0  0  0  0  0  0  0
   14.5913    6.2854   33.2184 N   0  0  0  0  0  0  0  0  0  0  0  0
   10.5330    5.2017   35.7719 O   0  0  0  0  0  0  0  0  0  0  0  0
   10.7732    7.6815   37.1795 O   0  0  0  0  0  0  0  0  0  0  0  0
  1  2  1  0  0  0  0
  1 12  1  1  0  0  0
  1 13  1  0  0  0  0
  2  3  1  0  0  0  0
  2 10  1  1  0  0  0
  4  3  1  1  0  0  0
  4  5  1  0  0  0  0
  4 14  1  0  0  0  0
  5  6  1  0  0  0  0
  5 13  1  6  0  0  0
  6  7  1  0  0  0  0
  6 15  1  6  0  0  0
  7  8  1  0  0  0  0
  7 11  1  6  0  0  0
  8 14  1  0  0  0  0
  8 16  1  1  0  0  0
  9 11  1  0  0  0  0
 17 16  1  6  0  0  0
 17 18  1  0  0  0  0
 17 24  1  0  0  0  0
 18 19  1  0  0  0  0
 18 25  1  6  0  0  0
 19 20  1  0  0  0  0
 19 26  1  1  0  0  0
 20 21  1  0  0  0  0
 20 23  1  6  0  0  0
 21 22  1  1  0  0  0
 21 24  1  0  0  0  0
 22 27  1  0  0  0  0
 28 12  1  1  0  0  0
 28 29  1  0  0  0  0
 28 33  1  0  0  0  0
 29 30  1  0  0  0  0
 29 36  1  6  0  0  0
 30 31  1  0  0  0  0
 30 37  1  1  0  0  0
 31 32  1  0  0  0  0
 31 34  1  6  0  0  0
 32 33  1  0  0  0  0
 33 35  1  6  0  0  0
M  END
>  <CHROM.1>
-102.85026073,143.24668546,62.20376048,173.58960995,65.89642810,132.73959454
13.10670849,1.70921398,34.95818009,-1.80718545,-0.80140857,2.89322416

>  <Name>
2oe5_lig

>  <RI>
0

>  <Rbt.Current_Directory>
/home/afrankz/demos/rdock_decoys_rna/rnas/2oe5

>  <Rbt.Executable>
rbdock ($Id: //depot/dev/client3/rdock/2013.1/src/exe/rbdock.cxx#4 $)

>  <Rbt.Library>
libRbt.so (2013.1, Build901 2013/11/27)

>  <Rbt.Parameter_File>
/export/apps/rDock/src/rDock_2013.1_src/data/scripts/dock_solv.prm

>  <Rbt.Receptor>
prm/blind_docking_40.prm

>  <SCORE>
23.8906

>  <SCORE.INTER>
4.28968

>  <SCORE.INTER.CONST>
1

>  <SCORE.INTER.POLAR>
0

>  <SCORE.INTER.ROT>
6

>  <SCORE.INTER.SOLV>
12.2178

>  <SCORE.INTER.VDW>
-8.81281

>  <SCORE.INTER.norm>
0.115937

>  <SCORE.INTRA>
7.39359

>  <SCORE.INTRA.DIHEDRAL>
-2.7642

>  <SCORE.INTRA.DIHEDRAL.0>
16.2083

>  <SCORE.INTRA.POLAR>
0

>  <SCORE.INTRA.POLAR.0>
0

>  <SCORE.INTRA.REPUL>
0

>  <SCORE.INTRA.REPUL.0>
0

>  <SCORE.INTRA.SOLV>
1.49788

>  <SCORE.INTRA.SOLV.lig_0>
-89.8095

>  <SCORE.INTRA.VDW>
8.02675

>  <SCORE.INTRA.VDW.0>
-3.19502

>  <SCORE.INTRA.norm>
0.199827

>  <SCORE.RESTR>
12.2073

>  <SCORE.RESTR.CAVITY>
12.2073

>  <SCORE.RESTR.norm>
0.329927

>  <SCORE.SYSTEM>
0

>  <SCORE.SYSTEM.CONST>
0

>  <SCORE.SYSTEM.DIHEDRAL>
0

>  <SCORE.SYSTEM.SOLV>
0

>  <SCORE.SYSTEM.norm>
0

>  <SCORE.heavy>
37

>  <SCORE.norm>
0.645691

>  <RMSD>
19.986

$$$$
2oe5_lig
 OpenBabel11021811463D
libRbt.so/2013.1/901 2013/11/27
 37 40  0  0  0  0  0  0  0  0999 V2000
   12.4174    3.7587   33.0595 C   0  0  1  0  0  0  0  0  0  0  0  0
   11.1407    2.8885   33.0717 C   0  0  1  0  0  0  0  0  0  0  0  0
   11.3731    1.6383   33.9991 C   0  0  0  0  0  0  0  0  0  0  0  0
   12.5819    0.8955   33.3872 C   0  0  1  0  0  0  0  0  0  0  0  0
   13.8868    1.8084   33.3782 C   0  0  1  0  0  0  0  0  0  0  0  0
   15.1164    1.0776   32.7731 C   0  0  1  0  0  0  0  0  0  0  0  0
   15.3591   -0.1903   33.6405 C   0  0  1  0  0  0  0  0  0  0  0  0
   14.0325   -1.0405   33.6590 C   0  0  2  0  0  0  0  0  0  0  0  0
   17.4031   -1.7877   34.0052 C   0  0  0  0  0  0  0  0  0  0  0  0
    9.9962    3.6766   33.5842 N   0  0  0  0  0  0  0  0  0  0  0  0
   16.5143   -0.9929   33.0875 N   0  0  0  0  0  0  0  0  0  0  0  0
   12.7226    4.2838   34.3618 O   0  0  0  0  0  0  0  0  0  0  0  0
   13.5953    3.0108   32.5948 O   0  0  0  0  0  0  0  0  0  0  0  0
   12.8752   -0.2867   34.1790 O   0  0  0  0  0  0  0  0  0  0  0  0
   14.8063    0.7416   31.4170 O   0  0  0  0  0  0  0  0  0  0  0  0
   14.1950   -2.1720   34.4912 O   0  0  0  0  0  0  0  0  0  0  0  0
   14.5485   -1.7684   35.8009 C   0  0  2  0  0  0  0  0  0  0  0  0
   14.5414   -2.9338   36.7894 C   0  0  1  0  0  0  0  0  0  0  0  0
   13.1127   -3.5212   36.9539 C   0  0  2  0  0  0  0  0  0  0  0  0
   12.1795   -2.3625   37.4146 C   0  0  1  0  0  0  0  0  0  0  0  0
   12.2168   -1.2431   36.3229 C   0  0  1  0  0  0  0  0  0  0  0  0
   11.3815   -0.0373   36.6917 C   0  0  0  0  0  0  0  0  0  0  0  0
   10.7865   -2.9246   37.5806 N   0  0  0  0  0  0  0  0  0  0  0  0
   13.5958   -0.7479   36.2353 O   0  0  0  0  0  0  0  0  0  0  0  0
   15.4519   -3.9326   36.2884 O   0  0  0  0  0  0  0  0  0  0  0  0
   13.1622   -4.5350   37.9741 O   0  0  0  0  0  0  0  0  0  0  0  0
   10.0401   -0.3582   36.8340 O   0  0  0  0  0  0  0  0  0  0  0  0
   12.4568    5.6791   34.5067 C   0  0  1  0  0  0  0  0  0  0  0  0
   11.6998    5.9407   35.8578 C   0  0  1  0  0  0  0  0  0  0  0  0
   11.4308    7.4820   36.0006 C   0  0  2  0  0  0  0  0  0  0  0  0
   12.7710    8.2326   36.0124 C   0  0  1  0  0  0  0  0  0  0  0  0
   13.5236    7.9806   34.6492 C   0  0  0  0  0  0  0  0  0  0  0  0
   13.7815    6.4300   34.4958 C   0  0  2  0  0  0  0  0  0  0  0  0
   12.5093    9.6544   36.1639 N   0  0  0  0  0  0  0  0  0  0  0  0
   14.4712    6.1472   33.2096 N   0  0  0  0  0  0  0  0  0  0  0  0
   10.4284    5.2302   35.8513 O   0  0  0  0  0  0  0  0  0  0  0  0
   10.7710    7.7222   37.2152 O   0  0  0  0  0  0  0  0  0  0  0  0
  1  2  1  0  0  0  0
  1 12  1  1  0  0  0
  1 13  1  0  0  0  0
  2  3  1  0  0  0  0
  2 10  1  1  0  0  0
  4  3  1  1  0  0  0
  4  5  1  0  0  0  0
  4 14  1  0  0  0  0
  5  6  1  0  0  0  0
  5 13  1  6  0  0  0
  6  7  1  0  0  0  0
  6 15  1  6  0  0  0
  7  8  1  0  0  0  0
  7 11  1  6  0  0  0
  8 14  1  0  0  0  0
  8 16  1  1  0  0  0
  9 11  1  0  0  0  0
 17 16  1  6  0  0  0
 17 18  1  0  0  0  0
 17 24  1  0  0  0  0
 18 19  1  0  0  0  0
 18 25  1  6  0  0  0
 19 20  1  0  0  0  0
 19 26  1  1  0  0  0
 20 21  1  0  0  0  0
 20 23  1  6  0  0  0
 21 22  1  1  0  0  0
 21 24  1  0  0  0  0
 22 27  1  0  0  0  0
 28 12  1  1  0  0  0
 28 29  1  0  0  0  0
 28 33  1  0  0  0  0
 29 30  1  0  0  0  0
 29 36  1  6  0  0  0
 30 31  1  0  0  0  0
 30 37  1  1  0  0  0
 31 32  1  0  0  0  0
 31 34  1  6  0  0  0
 32 33  1  0  0  0  0
 33 35  1  6  0  0  0
M  END
>  <CHROM.1>
-106.65951784,148.19681904,57.70364259,171.80388003,-61.67907125,134.27328271
13.04919757,1.66663415,34.97181874,-1.81868194,-0.77095915,2.88999169

>  <Name>
2oe5_lig

>  <RI>
0

>  <Rbt.Current_Directory>
/home/afrankz/demos/rdock_decoys_rna/rnas/2oe5

>  <Rbt.Executable>
rbdock ($Id: //depot/dev/client3/rdock/2013.1/src/exe/rbdock.cxx#4 $)

>  <Rbt.Library>
libRbt.so (2013.1, Build901 2013/11/27)

>  <Rbt.Parameter_File>
/export/apps/rDock/src/rDock_2013.1_src/data/scripts/dock_solv.prm

>  <Rbt.Receptor>
prm/blind_docking_40.prm

>  <SCORE>
23.8601

>  <SCORE.INTER>
4.55198

>  <SCORE.INTER.CONST>
1

>  <SCORE.INTER.POLAR>
0

>  <SCORE.INTER.ROT>
6

>  <SCORE.INTER.SOLV>
11.539

>  <SCORE.INTER.VDW>
-8.41169

>  <SCORE.INTER.norm>
0.123027

>  <SCORE.INTRA>
7.47358

>  <SCORE.INTRA.DIHEDRAL>
-2.57613

>  <SCORE.INTRA.DIHEDRAL.0>
16.2083

>  <SCORE.INTRA.POLAR>
0

>  <SCORE.INTRA.POLAR.0>
0

>  <SCORE.INTRA.REPUL>
0

>  <SCORE.INTRA.REPUL.0>
0

>  <SCORE.INTRA.SOLV>
2.04494

>  <SCORE.INTRA.SOLV.lig_0>
-89.8095

>  <SCORE.INTRA.VDW>
7.73917

>  <SCORE.INTRA.VDW.0>
-3.19502

>  <SCORE.INTRA.norm>
0.201989

>  <SCORE.RESTR>
11.8345

>  <SCORE.RESTR.CAVITY>
11.8345

>  <SCORE.RESTR.norm>
0.319851

>  <SCORE.SYSTEM>
0

>  <SCORE.SYSTEM.CONST>
0

>  <SCORE.SYSTEM.DIHEDRAL>
0

>  <SCORE.SYSTEM.SOLV>
0

>  <SCORE.SYSTEM.norm>
0

>  <SCORE.heavy>
37

>  <SCORE.norm>
0.644866

>  <RMSD>
19.986

$$$$
2oe5_lig
 OpenBabel11021811463D
libRbt.so/2013.1/901 2013/11/27
 37 40  0  0  0  0  0  0  0  0999 V2000
   12.0484    3.5846   33.3789 C   0  0  1  0  0  0  0  0  0  0  0  0
   10.8533    2.6052   33.3822 C   0  0  1  0  0  0  0  0  0  0  0  0
   11.2484    1.3064   34.1787 C   0  0  0  0  0  0  0  0  0  0  0  0
   12.4753    0.7303   33.4368 C   0  0  1  0  0  0  0  0  0  0  0  0
   13.6949    1.7544   33.4390 C   0  0  1  0  0  0  0  0  0  0  0  0
   14.9419    1.1914   32.7039 C   0  0  1  0  0  0  0  0  0  0  0  0
   15.3449   -0.1188   33.4385 C   0  0  1  0  0  0  0  0  0  0  0  0
   14.0990   -1.0834   33.4526 C   0  0  2  0  0  0  0  0  0  0  0  0
   17.7967    0.0108   32.5249 C   0  0  0  0  0  0  0  0  0  0  0  0
    9.6804    3.2404   34.0258 N   0  0  0  0  0  0  0  0  0  0  0  0
   16.5273   -0.7641   32.7528 N   0  0  0  0  0  0  0  0  0  0  0  0
   12.3887    4.0220   34.7047 O   0  0  0  0  0  0  0  0  0  0  0  0
   13.2542    2.9881   32.7847 O   0  0  0  0  0  0  0  0  0  0  0  0
   12.9167   -0.4839   34.1012 O   0  0  0  0  0  0  0  0  0  0  0  0
   14.5773    0.9458   31.3420 O   0  0  0  0  0  0  0  0  0  0  0  0
   14.4086   -2.2625   34.1689 O   0  0  0  0  0  0  0  0  0  0  0  0
   14.8601   -1.9389   35.4706 C   0  0  2  0  0  0  0  0  0  0  0  0
   15.0317   -3.1769   36.3501 C   0  0  1  0  0  0  0  0  0  0  0  0
   13.6707   -3.8850   36.5938 C   0  0  2  0  0  0  0  0  0  0  0  0
   12.7086   -2.8432   37.2378 C   0  0  1  0  0  0  0  0  0  0  0  0
   12.5601   -1.6403   36.2492 C   0  0  1  0  0  0  0  0  0  0  0  0
   11.6830   -0.5367   36.7971 C   0  0  0  0  0  0  0  0  0  0  0  0
   11.3814   -3.5236   37.4818 N   0  0  0  0  0  0  0  0  0  0  0  0
   13.8858   -1.0338   36.0784 O   0  0  0  0  0  0  0  0  0  0  0  0
   15.9560   -4.0583   35.6821 O   0  0  0  0  0  0  0  0  0  0  0  0
   13.8909   -4.9704   37.5127 O   0  0  0  0  0  0  0  0  0  0  0  0
   10.3357   -0.8530   36.7120 O   0  0  0  0  0  0  0  0  0  0  0  0
   13.0136    5.3048   34.7548 C   0  0  1  0  0  0  0  0  0  0  0  0
   11.9597    6.4246   34.4349 C   0  0  1  0  0  0  0  0  0  0  0  0
   12.6670    7.8255   34.5091 C   0  0  2  0  0  0  0  0  0  0  0  0
   13.2250    8.0385   35.9244 C   0  0  1  0  0  0  0  0  0  0  0  0
   14.2936    6.9216   36.2388 C   0  0  0  0  0  0  0  0  0  0  0  0
   13.5887    5.5111   36.1496 C   0  0  2  0  0  0  0  0  0  0  0  0
   13.8597    9.3449   35.9851 N   0  0  0  0  0  0  0  0  0  0  0  0
   14.5697    4.4270   36.4184 N   0  0  0  0  0  0  0  0  0  0  0  0
   11.4274    6.2262   33.0937 O   0  0  0  0  0  0  0  0  0  0  0  0
   11.7248    8.8302   34.2422 O   0  0  0  0  0  0  0  0  0  0  0  0
  1  2  1  0  0  0  0
  1 12  1  1  0  0  0
  1 13  1  0  0  0  0
  2  3  1  0  0  0  0
  2 10  1  1  0  0  0
  4  3  1  1  0  0  0
  4  5  1  0  0  0  0
  4 14  1  0  0  0  0
  5  6  1  0  0  0  0
  5 13  1  6  0  0  0
  6  7  1  0  0  0  0
  6 15  1  6  0  0  0
  7  8  1  0  0  0  0
  7 11  1  6  0  0  0
  8 14  1  0  0  0  0
  8 16  1  1  0  0  0
  9 11  1  0  0  0  0
 17 16  1  6  0  0  0
 17 18  1  0  0  0  0
 17 24  1  0  0  0  0
 18 19  1  0  0  0  0
 18 25  1  6  0  0  0
 19 20  1  0  0  0  0
 19 26  1  1  0  0  0
 20 21  1  0  0  0  0
 20 23  1  6  0  0  0
 21 22  1  1  0  0  0
 21 24  1  0  0  0  0
 22 27  1  0  0  0  0
 28 12  1  1  0  0  0
 28 29  1  0  0  0  0
 28 33  1  0  0  0  0
 29 30  1  0  0  0  0
 29 36  1  6  0  0  0
 30 31  1  0  0  0  0
 30 37  1  1  0  0  0
 31 32  1  0  0  0  0
 31 34  1  6  0  0  0
 32 33  1  0  0  0  0
 33 35  1  6  0  0  0
M  END
>  <CHROM.1>
-153.13456814,54.91320908,55.30947735,172.38590395,-77.19115369,71.73658388
13.31365727,1.53317096,34.79145372,1.74626877,0.66783642,-0.21499313

>  <Name>
2oe5_lig

>  <RI>
0

>  <Rbt.Current_Directory>
/home/afrankz/demos/rdock_decoys_rna/rnas/2oe5

>  <Rbt.Executable>
rbdock ($Id: //depot/dev/client3/rdock/2013.1/src/exe/rbdock.cxx#4 $)

>  <Rbt.Library>
libRbt.so (2013.1, Build901 2013/11/27)

>  <Rbt.Parameter_File>
/export/apps/rDock/src/rDock_2013.1_src/data/scripts/dock_solv.prm

>  <Rbt.Receptor>
prm/blind_docking_40.prm

>  <SCORE>
37.1436

>  <SCORE.INTER>
22.1179

>  <SCORE.INTER.CONST>
1

>  <SCORE.INTER.POLAR>
0

>  <SCORE.INTER.ROT>
6

>  <SCORE.INTER.SOLV>
14.9427

>  <SCORE.INTER.VDW>
2.16437

>  <SCORE.INTER.norm>
0.597781

>  <SCORE.INTRA>
2.24614

>  <SCORE.INTRA.DIHEDRAL>
-11.0636

>  <SCORE.INTRA.DIHEDRAL.0>
16.2083

>  <SCORE.INTRA.POLAR>
0

>  <SCORE.INTRA.POLAR.0>
0

>  <SCORE.INTRA.REPUL>
0

>  <SCORE.INTRA.REPUL.0>
0

>  <SCORE.INTRA.SOLV>
0.00725301

>  <SCORE.INTRA.SOLV.lig_0>
-89.8095

>  <SCORE.INTRA.VDW>
7.77434

>  <SCORE.INTRA.VDW.0>
-3.19502

>  <SCORE.INTRA.norm>
0.0607066

>  <SCORE.RESTR>
12.7795

>  <SCORE.RESTR.CAVITY>
12.7795

>  <SCORE.RESTR.norm>
0.345393

>  <SCORE.SYSTEM>
0

>  <SCORE.SYSTEM.CONST>
0

>  <SCORE.SYSTEM.DIHEDRAL>
0

>  <SCORE.SYSTEM.SOLV>
0

>  <SCORE.SYSTEM.norm>
0

>  <SCORE.heavy>
37

>  <SCORE.norm>
1.00388

>  <RMSD>
19.986

$$$$
2oe5_lig
 OpenBabel11021811463D
libRbt.so/2013.1/901 2013/11/27
 37 40  0  0  0  0  0  0  0  0999 V2000
   11.9976    3.6549   33.2057 C   0  0  1  0  0  0  0  0  0  0  0  0
   10.9569    2.5290   33.3969 C   0  0  1  0  0  0  0  0  0  0  0  0
   11.6298    1.3223   34.1508 C   0  0  0  0  0  0  0  0  0  0  0  0
   12.8071    0.8845   33.2509 C   0  0  1  0  0  0  0  0  0  0  0  0
   13.8667    2.0582   33.0610 C   0  0  1  0  0  0  0  0  0  0  0  0
   15.0631    1.6363   32.1648 C   0  0  1  0  0  0  0  0  0  0  0  0
   15.7366    0.4170   32.8566 C   0  0  1  0  0  0  0  0  0  0  0  0
   14.6455   -0.7005   33.0654 C   0  0  2  0  0  0  0  0  0  0  0  0
   18.0838   -0.7315   32.6716 C   0  0  0  0  0  0  0  0  0  0  0  0
    9.8108    3.0288   34.1906 N   0  0  0  0  0  0  0  0  0  0  0  0
   16.8874   -0.0930   32.0199 N   0  0  0  0  0  0  0  0  0  0  0  0
   12.4578    4.1804   34.4614 O   0  0  0  0  0  0  0  0  0  0  0  0
   13.1776    3.1996   32.4554 O   0  0  0  0  0  0  0  0  0  0  0  0
   13.4957   -0.2371   33.8662 O   0  0  0  0  0  0  0  0  0  0  0  0
   14.5482    1.2963   30.8735 O   0  0  0  0  0  0  0  0  0  0  0  0
   15.2072   -1.8026   33.7502 O   0  0  0  0  0  0  0  0  0  0  0  0
   15.6141   -1.4149   35.0491 C   0  0  2  0  0  0  0  0  0  0  0  0
   16.3340   -2.5397   35.7920 C   0  0  1  0  0  0  0  0  0  0  0  0
   15.3849   -3.7435   36.0433 C   0  0  2  0  0  0  0  0  0  0  0  0
   14.1563   -3.2136   36.8405 C   0  0  1  0  0  0  0  0  0  0  0  0
   13.4612   -2.1045   35.9844 C   0  0  1  0  0  0  0  0  0  0  0  0
   12.2776   -1.4779   36.6872 C   0  0  0  0  0  0  0  0  0  0  0  0
   13.2273   -4.3786   37.0929 N   0  0  0  0  0  0  0  0  0  0  0  0
   14.4242   -1.0126   35.7976 O   0  0  0  0  0  0  0  0  0  0  0  0
   17.4634   -2.9361   34.9888 O   0  0  0  0  0  0  0  0  0  0  0  0
   16.0936   -4.7120   36.8375 O   0  0  0  0  0  0  0  0  0  0  0  0
   12.6477   -0.8435   37.8634 O   0  0  0  0  0  0  0  0  0  0  0  0
   12.3828    5.6026   34.5629 C   0  0  1  0  0  0  0  0  0  0  0  0
   11.6126    6.0044   35.8715 C   0  0  1  0  0  0  0  0  0  0  0  0
   11.5547    7.5715   35.9674 C   0  0  2  0  0  0  0  0  0  0  0  0
   12.9846    8.1300   36.0245 C   0  0  1  0  0  0  0  0  0  0  0  0
   13.7522    7.7380   34.7034 C   0  0  0  0  0  0  0  0  0  0  0  0
   13.7983    6.1629   34.5965 C   0  0  2  0  0  0  0  0  0  0  0  0
   12.9170    9.5781   36.1320 N   0  0  0  0  0  0  0  0  0  0  0  0
   14.4962    5.7513   33.3501 N   0  0  0  0  0  0  0  0  0  0  0  0
   10.2561    5.4761   35.8220 O   0  0  0  0  0  0  0  0  0  0  0  0
   10.8836    7.9348   37.1446 O   0  0  0  0  0  0  0  0  0  0  0  0
  1  2  1  0  0  0  0
  1 12  1  1  0  0  0
  1 13  1  0  0  0  0
  2  3  1  0  0  0  0
  2 10  1  1  0  0  0
  4  3  1  1  0  0  0
  4  5  1  0  0  0  0
  4 14  1  0  0  0  0
  5  6  1  0  0  0  0
  5 13  1  6  0  0  0
  6  7  1  0  0  0  0
  6 15  1  6  0  0  0
  7  8  1  0  0  0  0
  7 11  1  6  0  0  0
  8 14  1  0  0  0  0
  8 16  1  1  0  0  0
  9 11  1  0  0  0  0
 17 16  1  6  0  0  0
 17 18  1  0  0  0  0
 17 24  1  0  0  0  0
 18 19  1  0  0  0  0
 18 25  1  6  0  0  0
 19 20  1  0  0  0  0
 19 26  1  1  0  0  0
 20 21  1  0  0  0  0
 20 23  1  6  0  0  0
 21 22  1  1  0  0  0
 21 24  1  0  0  0  0
 22 27  1  0  0  0  0
 28 12  1  1  0  0  0
 28 29  1  0  0  0  0
 28 33  1  0  0  0  0
 29 30  1  0  0  0  0
 29 36  1  6  0  0  0
 30 31  1  0  0  0  0
 30 37  1  1  0  0  0
 31 32  1  0  0  0  0
 31 34  1  6  0  0  0
 32 33  1  0  0  0  0
 33 35  1  6  0  0  0
M  END
>  <CHROM.1>
-128.65419973,149.11661511,63.77812464,-175.25882891,61.82354869,127.76009425
13.68778973,1.64221571,34.67345938,-2.06941478,-0.83725348,2.75004132

>  <Name>
2oe5_lig

>  <RI>
0

>  <Rbt.Current_Directory>
/home/afrankz/demos/rdock_decoys_rna/rnas/2oe5

>  <Rbt.Executable>
rbdock ($Id: //depot/dev/client3/rdock/2013.1/src/exe/rbdock.cxx#4 $)

>  <Rbt.Library>
libRbt.so (2013.1, Build901 2013/11/27)

>  <Rbt.Parameter_File>
/export/apps/rDock/src/rDock_2013.1_src/data/scripts/dock_solv.prm

>  <Rbt.Receptor>
prm/blind_docking_40.prm

>  <SCORE>
25.0019

>  <SCORE.INTER>
7.75368

>  <SCORE.INTER.CONST>
1

>  <SCORE.INTER.POLAR>
0

>  <SCORE.INTER.ROT>
6

>  <SCORE.INTER.SOLV>
15.3265

>  <SCORE.INTER.VDW>
-7.53972

>  <SCORE.INTER.norm>
0.209559

>  <SCORE.INTRA>
2.60432

>  <SCORE.INTRA.DIHEDRAL>
-1.63825

>  <SCORE.INTRA.DIHEDRAL.0>
16.2083

>  <SCORE.INTRA.POLAR>
0

>  <SCORE.INTRA.POLAR.0>
0

>  <SCORE.INTRA.REPUL>
0

>  <SCORE.INTRA.REPUL.0>
0

>  <SCORE.INTRA.SOLV>
1.48474

>  <SCORE.INTRA.SOLV.lig_0>
-89.8095

>  <SCORE.INTRA.VDW>
2.68107

>  <SCORE.INTRA.VDW.0>
-3.19502

>  <SCORE.INTRA.norm>
0.070387

>  <SCORE.RESTR>
14.6439

>  <SCORE.RESTR.CAVITY>
14.6439

>  <SCORE.RESTR.norm>
0.39578

>  <SCORE.SYSTEM>
0

>  <SCORE.SYSTEM.CONST>
0

>  <SCORE.SYSTEM.DIHEDRAL>
0

>  <SCORE.SYSTEM.SOLV>
0

>  <SCORE.SYSTEM.norm>
0

>  <SCORE.heavy>
37

>  <SCORE.norm>
0.675726

>  <RMSD>
19.999

$$$$
2oe5_lig
 OpenBabel11021811463D
libRbt.so/2013.1/901 2013/11/27
 37 40  0  0  0  0  0  0  0  0999 V2000
   12.4398    3.8124   33.0197 C   0  0  1  0  0  0  0  0  0  0  0  0
   11.1515    2.9626   33.0943 C   0  0  1  0  0  0  0  0  0  0  0  0
   11.4038    1.7175   34.0234 C   0  0  0  0  0  0  0  0  0  0  0  0
   12.5741    0.9501   33.3682 C   0  0  1  0  0  0  0  0  0  0  0  0
   13.8913    1.8423   33.2951 C   0  0  1  0  0  0  0  0  0  0  0  0
   15.0828    1.0866   32.6460 C   0  0  1  0  0  0  0  0  0  0  0  0
   15.3425   -0.1769   33.5147 C   0  0  1  0  0  0  0  0  0  0  0  0
   14.0050   -1.0059   33.5975 C   0  0  2  0  0  0  0  0  0  0  0  0
   17.8504   -0.4378   32.8040 C   0  0  0  0  0  0  0  0  0  0  0  0
   10.0420    3.7732   33.6470 N   0  0  0  0  0  0  0  0  0  0  0  0
   16.4608   -1.0026   32.9213 N   0  0  0  0  0  0  0  0  0  0  0  0
   12.8079    4.3445   34.3027 O   0  0  0  0  0  0  0  0  0  0  0  0
   13.5854    3.0419   32.5131 O   0  0  0  0  0  0  0  0  0  0  0  0
   12.8825   -0.2292   34.1585 O   0  0  0  0  0  0  0  0  0  0  0  0
   14.7103    0.7431   31.3075 O   0  0  0  0  0  0  0  0  0  0  0  0
   14.1853   -2.1322   34.4332 O   0  0  0  0  0  0  0  0  0  0  0  0
   14.5092   -1.7185   35.7473 C   0  0  2  0  0  0  0  0  0  0  0  0
   14.5392   -2.8861   36.7328 C   0  0  1  0  0  0  0  0  0  0  0  0
   13.1337   -3.5309   36.8816 C   0  0  2  0  0  0  0  0  0  0  0  0
   12.1501   -2.4119   37.3358 C   0  0  1  0  0  0  0  0  0  0  0  0
   12.1533   -1.2888   36.2473 C   0  0  1  0  0  0  0  0  0  0  0  0
   11.2666   -0.1186   36.6107 C   0  0  0  0  0  0  0  0  0  0  0  0
   10.7793   -3.0300   37.4864 N   0  0  0  0  0  0  0  0  0  0  0  0
   13.5120   -0.7383   36.1748 O   0  0  0  0  0  0  0  0  0  0  0  0
   15.4940   -3.8460   36.2384 O   0  0  0  0  0  0  0  0  0  0  0  0
   13.2137   -4.5448   37.8997 O   0  0  0  0  0  0  0  0  0  0  0  0
   11.9947    0.9482   37.1151 O   0  0  0  0  0  0  0  0  0  0  0  0
   12.5004    5.7286   34.4718 C   0  0  1  0  0  0  0  0  0  0  0  0
   11.7289    5.9426   35.8231 C   0  0  1  0  0  0  0  0  0  0  0  0
   11.4139    7.4724   35.9928 C   0  0  2  0  0  0  0  0  0  0  0  0
   12.7314    8.2616   36.0264 C   0  0  1  0  0  0  0  0  0  0  0  0
   13.4983    8.0572   34.6631 C   0  0  0  0  0  0  0  0  0  0  0  0
   13.8025    6.5179   34.4826 C   0  0  2  0  0  0  0  0  0  0  0  0
   12.4272    9.6721   36.2025 N   0  0  0  0  0  0  0  0  0  0  0  0
   14.5071    6.2796   33.1954 N   0  0  0  0  0  0  0  0  0  0  0  0
   10.4789    5.1954   35.7960 O   0  0  0  0  0  0  0  0  0  0  0  0
   10.7409    7.6705   37.2077 O   0  0  0  0  0  0  0  0  0  0  0  0
  1  2  1  0  0  0  0
  1 12  1  1  0  0  0
  1 13  1  0  0  0  0
  2  3  1  0  0  0  0
  2 10  1  1  0  0  0
  4  3  1  1  0  0  0
  4  5  1  0  0  0  0
  4 14  1  0  0  0  0
  5  6  1  0  0  0  0
  5 13  1  6  0  0  0
  6  7  1  0  0  0  0
  6 15  1  6  0  0  0
  7  8  1  0  0  0  0
  7 11  1  6  0  0  0
  8 14  1  0  0  0  0
  8 16  1  1  0  0  0
  9 11  1  0  0  0  0
 17 16  1  6  0  0  0
 17 18  1  0  0  0  0
 17 24  1  0  0  0  0
 18 19  1  0  0  0  0
 18 25  1  6  0  0  0
 19 20  1  0  0  0  0
 19 26  1  1  0  0  0
 20 21  1  0  0  0  0
 20 23  1  6  0  0  0
 21 22  1  1  0  0  0
 21 24  1  0  0  0  0
 22 27  1  0  0  0  0
 28 12  1  1  0  0  0
 28 29  1  0  0  0  0
 28 33  1  0  0  0  0
 29 30  1  0  0  0  0
 29 36  1  6  0  0  0
 30 31  1  0  0  0  0
 30 37  1  1  0  0  0
 31 32  1  0  0  0  0
 31 34  1  6  0  0  0
 32 33  1  0  0  0  0
 33 35  1  6  0  0  0
M  END
>  <CHROM.1>
-103.30250562,62.59566241,61.76592969,172.66359663,100.46271619,130.18521552
13.11423792,1.76705168,34.90157178,-1.83709270,-0.82832270,2.87850106

>  <Name>
2oe5_lig

>  <RI>
0

>  <Rbt.Current_Directory>
/home/afrankz/demos/rdock_decoys_rna/rnas/2oe5

>  <Rbt.Executable>
rbdock ($Id: //depot/dev/client3/rdock/2013.1/src/exe/rbdock.cxx#4 $)

>  <Rbt.Library>
libRbt.so (2013.1, Build901 2013/11/27)

>  <Rbt.Parameter_File>
/export/apps/rDock/src/rDock_2013.1_src/data/scripts/dock_solv.prm

>  <Rbt.Receptor>
prm/blind_docking_40.prm

>  <SCORE>
28.2498

>  <SCORE.INTER>
5.13452

>  <SCORE.INTER.CONST>
1

>  <SCORE.INTER.POLAR>
0

>  <SCORE.INTER.ROT>
6

>  <SCORE.INTER.SOLV>
12.3174

>  <SCORE.INTER.VDW>
-8.28277

>  <SCORE.INTER.norm>
0.138771

>  <SCORE.INTRA>
10.8549

>  <SCORE.INTRA.DIHEDRAL>
0.677985

>  <SCORE.INTRA.DIHEDRAL.0>
16.2083

>  <SCORE.INTRA.POLAR>
0

>  <SCORE.INTRA.POLAR.0>
0

>  <SCORE.INTRA.REPUL>
0

>  <SCORE.INTRA.REPUL.0>
0

>  <SCORE.INTRA.SOLV>
1.44343

>  <SCORE.INTRA.SOLV.lig_0>
-89.8095

>  <SCORE.INTRA.VDW>
9.79416

>  <SCORE.INTRA.VDW.0>
-3.19502

>  <SCORE.INTRA.norm>
0.293375

>  <SCORE.RESTR>
12.2605

>  <SCORE.RESTR.CAVITY>
12.2605

>  <SCORE.RESTR.norm>
0.331364

>  <SCORE.SYSTEM>
0

>  <SCORE.SYSTEM.CONST>
0

>  <SCORE.SYSTEM.DIHEDRAL>
0

>  <SCORE.SYSTEM.SOLV>
0

>  <SCORE.SYSTEM.norm>
0

>  <SCORE.heavy>
37

>  <SCORE.norm>
0.763509

>  <RMSD>
20.034

$$$$
2oe5_lig
 OpenBabel11021811463D
libRbt.so/2013.1/901 2013/11/27
 37 40  0  0  0  0  0  0  0  0999 V2000
   14.3162   -2.9322   35.9106 C   0  0  1  0  0  0  0  0  0  0  0  0
   14.7440   -1.9130   36.9901 C   0  0  1  0  0  0  0  0  0  0  0  0
   14.2023   -0.4871   36.6020 C   0  0  0  0  0  0  0  0  0  0  0  0
   14.8257   -0.1754   35.2229 C   0  0  1  0  0  0  0  0  0  0  0  0
   14.3782   -1.2381   34.1244 C   0  0  1  0  0  0  0  0  0  0  0  0
   14.9884   -0.9387   32.7279 C   0  0  1  0  0  0  0  0  0  0  0  0
   14.5072    0.4831   32.3210 C   0  0  1  0  0  0  0  0  0  0  0  0
   14.9305    1.4935   33.4538 C   0  0  2  0  0  0  0  0  0  0  0  0
   14.8913    2.2622   30.4368 C   0  0  0  0  0  0  0  0  0  0  0  0
   14.1921   -2.3084   38.3064 N   0  0  0  0  0  0  0  0  0  0  0  0
   15.1002    0.8778   30.9879 N   0  0  0  0  0  0  0  0  0  0  0  0
   12.8873   -3.0608   35.8289 O   0  0  0  0  0  0  0  0  0  0  0  0
   14.8062   -2.5645   34.5737 O   0  0  0  0  0  0  0  0  0  0  0  0
   14.3833    1.1344   34.7765 O   0  0  0  0  0  0  0  0  0  0  0  0
   16.4132   -1.0032   32.8465 O   0  0  0  0  0  0  0  0  0  0  0  0
   14.4538    2.7893   33.1485 O   0  0  0  0  0  0  0  0  0  0  0  0
   13.0387    2.7986   33.1354 C   0  0  2  0  0  0  0  0  0  0  0  0
   12.4723    4.0699   32.5040 C   0  0  1  0  0  0  0  0  0  0  0  0
   12.8449    5.3254   33.3395 C   0  0  2  0  0  0  0  0  0  0  0  0
   12.3064    5.1041   34.7840 C   0  0  1  0  0  0  0  0  0  0  0  0
   12.9741    3.8127   35.3608 C   0  0  1  0  0  0  0  0  0  0  0  0
   12.4825    3.4694   36.7493 C   0  0  0  0  0  0  0  0  0  0  0  0
   12.6615    6.3223   35.6050 N   0  0  0  0  0  0  0  0  0  0  0  0
   12.5699    2.6830   34.5155 O   0  0  0  0  0  0  0  0  0  0  0  0
   13.0065    4.1655   31.1686 O   0  0  0  0  0  0  0  0  0  0  0  0
   12.1907    6.4636   32.7501 O   0  0  0  0  0  0  0  0  0  0  0  0
   12.5635    2.1095   37.0078 O   0  0  0  0  0  0  0  0  0  0  0  0
   12.1701   -2.1660   36.6795 C   0  0  1  0  0  0  0  0  0  0  0  0
   11.2666   -1.2162   35.8144 C   0  0  1  0  0  0  0  0  0  0  0  0
   10.4787   -0.2515   36.7719 C   0  0  2  0  0  0  0  0  0  0  0  0
    9.5927   -1.0818   37.7129 C   0  0  1  0  0  0  0  0  0  0  0  0
   10.5025   -2.0247   38.5911 C   0  0  0  0  0  0  0  0  0  0  0  0
   11.3075   -2.9853   37.6300 C   0  0  2  0  0  0  0  0  0  0  0  0
    8.8556   -0.1775   38.5800 N   0  0  0  0  0  0  0  0  0  0  0  0
   12.1961   -3.8779   38.4197 N   0  0  0  0  0  0  0  0  0  0  0  0
   12.1026   -0.4272   34.9199 O   0  0  0  0  0  0  0  0  0  0  0  0
    9.6562    0.5865   36.0041 O   0  0  0  0  0  0  0  0  0  0  0  0
  1  2  1  0  0  0  0
  1 12  1  6  0  0  0
  1 13  1  0  0  0  0
  2  3  1  0  0  0  0
  2 10  1  1  0  0  0
  4  3  1  1  0  0  0
  4  5  1  0  0  0  0
  4 14  1  0  0  0  0
  5  6  1  0  0  0  0
  5 13  1  1  0  0  0
  6  7  1  0  0  0  0
  6 15  1  1  0  0  0
  7  8  1  0  0  0  0
  7 11  1  6  0  0  0
  8 14  1  0  0  0  0
  8 16  1  6  0  0  0
  9 11  1  0  0  0  0
 17 16  1  1  0  0  0
 17 18  1  0  0  0  0
 17 24  1  0  0  0  0
 18 19  1  0  0  0  0
 18 25  1  6  0  0  0
 19 20  1  0  0  0  0
 19 26  1  6  0  0  0
 20 21  1  0  0  0  0
 20 23  1  1  0  0  0
 21 22  1  1  0  0  0
 21 24  1  0  0  0  0
 22 27  1  0  0  0  0
 28 12  1  6  0  0  0
 28 29  1  0  0  0  0
 28 33  1  0  0  0  0
 29 30  1  0  0  0  0
 29 36  1  6  0  0  0
 30 31  1  0  0  0  0
 30 37  1  6  0  0  0
 31 32  1  0  0  0  0
 31 34  1  1  0  0  0
 32 33  1  0  0  0  0
 33 35  1  1  0  0  0
M  END
>  <CHROM.1>
4.20779295,-174.15719338,63.83170782,-166.81201227,152.51678483,118.54971620
13.01802478,0.70887843,34.99870023,-1.79392025,0.78535005,-0.44171185

>  <Name>
2oe5_lig

>  <RI>
0

>  <Rbt.Current_Directory>
/home/afrankz/demos/rdock_decoys_rna/rnas/2oe5

>  <Rbt.Executable>
rbdock ($Id: //depot/dev/client3/rdock/2013.1/src/exe/rbdock.cxx#4 $)

>  <Rbt.Library>
libRbt.so (2013.1, Build901 2013/11/27)

>  <Rbt.Parameter_File>
/export/apps/rDock/src/rDock_2013.1_src/data/scripts/dock_solv.prm

>  <Rbt.Receptor>
prm/blind_docking_40.prm

>  <SCORE>
35.6229

>  <SCORE.INTER>
3.01414

>  <SCORE.INTER.CONST>
1

>  <SCORE.INTER.POLAR>
0

>  <SCORE.INTER.ROT>
6

>  <SCORE.INTER.SOLV>
11.2441

>  <SCORE.INTER.VDW>
-9.33861

>  <SCORE.INTER.norm>
0.0814632

>  <SCORE.INTRA>
20.8051

>  <SCORE.INTRA.DIHEDRAL>
1.31676

>  <SCORE.INTRA.DIHEDRAL.0>
16.2083

>  <SCORE.INTRA.POLAR>
0

>  <SCORE.INTRA.POLAR.0>
0

>  <SCORE.INTRA.REPUL>
0.465513

>  <SCORE.INTRA.REPUL.0>
0

>  <SCORE.INTRA.SOLV>
6.74766

>  <SCORE.INTRA.SOLV.lig_0>
-89.8095

>  <SCORE.INTRA.VDW>
14.4454

>  <SCORE.INTRA.VDW.0>
-3.19502

>  <SCORE.INTRA.norm>
0.562301

>  <SCORE.RESTR>
11.8037

>  <SCORE.RESTR.CAVITY>
11.8037

>  <SCORE.RESTR.norm>
0.319018

>  <SCORE.SYSTEM>
0

>  <SCORE.SYSTEM.CONST>
0

>  <SCORE.SYSTEM.DIHEDRAL>
0

>  <SCORE.SYSTEM.SOLV>
0

>  <SCORE.SYSTEM.norm>
0

>  <SCORE.heavy>
37

>  <SCORE.norm>
0.962782

>  <RMSD>
20.035

$$$$
2oe5_lig
 OpenBabel11021811463D
libRbt.so/2013.1/901 2013/11/27
 37 40  0  0  0  0  0  0  0  0999 V2000
   12.4322    3.8166   33.0218 C   0  0  1  0  0  0  0  0  0  0  0  0
   11.1422    2.9687   33.0886 C   0  0  1  0  0  0  0  0  0  0  0  0
   11.3854    1.7258   34.0232 C   0  0  0  0  0  0  0  0  0  0  0  0
   12.5598    0.9551   33.3795 C   0  0  1  0  0  0  0  0  0  0  0  0
   13.8787    1.8452   33.3144 C   0  0  1  0  0  0  0  0  0  0  0  0
   15.0744    1.0861   32.6769 C   0  0  1  0  0  0  0  0  0  0  0  0
   15.3255   -0.1753   33.5513 C   0  0  1  0  0  0  0  0  0  0  0  0
   13.9862   -1.0022   33.6258 C   0  0  2  0  0  0  0  0  0  0  0  0
   17.7399   -0.3573   32.5512 C   0  0  0  0  0  0  0  0  0  0  0  0
   10.0295    3.7823   33.6301 N   0  0  0  0  0  0  0  0  0  0  0  0
   16.4473   -1.0042   32.9691 N   0  0  0  0  0  0  0  0  0  0  0  0
   12.7908    4.3518   34.3062 O   0  0  0  0  0  0  0  0  0  0  0  0
   13.5807    3.0430   32.5265 O   0  0  0  0  0  0  0  0  0  0  0  0
   12.8604   -0.2224   34.1757 O   0  0  0  0  0  0  0  0  0  0  0  0
   14.7121    0.7393   31.3365 O   0  0  0  0  0  0  0  0  0  0  0  0
   14.1583   -2.1263   34.4661 O   0  0  0  0  0  0  0  0  0  0  0  0
   14.4579   -1.7090   35.7849 C   0  0  2  0  0  0  0  0  0  0  0  0
   14.4996   -2.8780   36.7684 C   0  0  1  0  0  0  0  0  0  0  0  0
   13.1058   -3.5514   36.8988 C   0  0  2  0  0  0  0  0  0  0  0  0
   12.0943   -2.4535   37.3433 C   0  0  1  0  0  0  0  0  0  0  0  0
   12.0879   -1.3282   36.2571 C   0  0  1  0  0  0  0  0  0  0  0  0
   11.1734   -0.1770   36.6120 C   0  0  0  0  0  0  0  0  0  0  0  0
   10.7345   -3.0996   37.4760 N   0  0  0  0  0  0  0  0  0  0  0  0
   13.4360   -0.7502   36.2021 O   0  0  0  0  0  0  0  0  0  0  0  0
   15.4796   -3.8174   36.2837 O   0  0  0  0  0  0  0  0  0  0  0  0
   13.1940   -4.5658   37.9158 O   0  0  0  0  0  0  0  0  0  0  0  0
   11.6130    0.5092   37.7339 O   0  0  0  0  0  0  0  0  0  0  0  0
   12.4874    5.7377   34.4676 C   0  0  1  0  0  0  0  0  0  0  0  0
   11.7322    5.9640   35.8260 C   0  0  1  0  0  0  0  0  0  0  0  0
   11.4215    7.4956   35.9868 C   0  0  2  0  0  0  0  0  0  0  0  0
   12.7405    8.2830   35.9984 C   0  0  1  0  0  0  0  0  0  0  0  0
   13.4909    8.0662   34.6280 C   0  0  0  0  0  0  0  0  0  0  0  0
   13.7907    6.5251   34.4565 C   0  0  2  0  0  0  0  0  0  0  0  0
   12.4404    9.6954   36.1665 N   0  0  0  0  0  0  0  0  0  0  0  0
   14.4797    6.2751   33.1631 N   0  0  0  0  0  0  0  0  0  0  0  0
   10.4809    5.2185   35.8198 O   0  0  0  0  0  0  0  0  0  0  0  0
   10.7632    7.7047   37.2080 O   0  0  0  0  0  0  0  0  0  0  0  0
  1  2  1  0  0  0  0
  1 12  1  1  0  0  0
  1 13  1  0  0  0  0
  2  3  1  0  0  0  0
  2 10  1  1  0  0  0
  4  3  1  1  0  0  0
  4  5  1  0  0  0  0
  4 14  1  0  0  0  0
  5  6  1  0  0  0  0
  5 13  1  6  0  0  0
  6  7  1  0  0  0  0
  6 15  1  6  0  0  0
  7  8  1  0  0  0  0
  7 11  1  6  0  0  0
  8 14  1  0  0  0  0
  8 16  1  1  0  0  0
  9 11  1  0  0  0  0
 17 16  1  6  0  0  0
 17 18  1  0  0  0  0
 17 24  1  0  0  0  0
 18 19  1  0  0  0  0
 18 25  1  6  0  0  0
 19 20  1  0  0  0  0
 19 26  1  1  0  0  0
 20 21  1  0  0  0  0
 20 23  1  6  0  0  0
 21 22  1  1  0  0  0
 21 24  1  0  0  0  0
 22 27  1  0  0  0  0
 28 12  1  1  0  0  0
 28 29  1  0  0  0  0
 28 33  1  0  0  0  0
 29 30  1  0  0  0  0
 29 36  1  6  0  0  0
 30 31  1  0  0  0  0
 30 37  1  1  0  0  0
 31 32  1  0  0  0  0
 31 34  1  6  0  0  0
 32 33  1  0  0  0  0
 33 35  1  6  0  0  0
M  END
>  <CHROM.1>
-103.47271066,47.68456978,62.40464539,173.58620002,65.66427919,131.41643704
13.08096943,1.75639108,34.92157654,-1.82315038,-0.83538318,2.87877392

>  <Name>
2oe5_lig

>  <RI>
0

>  <Rbt.Current_Directory>
/home/afrankz/demos/rdock_decoys_rna/rnas/2oe5

>  <Rbt.Executable>
rbdock ($Id: //depot/dev/client3/rdock/2013.1/src/exe/rbdock.cxx#4 $)

>  <Rbt.Library>
libRbt.so (2013.1, Build901 2013/11/27)

>  <Rbt.Parameter_File>
/export/apps/rDock/src/rDock_2013.1_src/data/scripts/dock_solv.prm

>  <Rbt.Receptor>
prm/blind_docking_40.prm

>  <SCORE>
26.3293

>  <SCORE.INTER>
5.58368

>  <SCORE.INTER.CONST>
1

>  <SCORE.INTER.POLAR>
0

>  <SCORE.INTER.ROT>
6

>  <SCORE.INTER.SOLV>
12.243

>  <SCORE.INTER.VDW>
-7.95854

>  <SCORE.INTER.norm>
0.15091

>  <SCORE.INTRA>
8.3458

>  <SCORE.INTRA.DIHEDRAL>
-3.21925

>  <SCORE.INTRA.DIHEDRAL.0>
16.2083

>  <SCORE.INTRA.POLAR>
0

>  <SCORE.INTRA.POLAR.0>
0

>  <SCORE.INTRA.REPUL>
0

>  <SCORE.INTRA.REPUL.0>
0

>  <SCORE.INTRA.SOLV>
1.44868

>  <SCORE.INTRA.SOLV.lig_0>
-89.8095

>  <SCORE.INTRA.VDW>
9.23108

>  <SCORE.INTRA.VDW.0>
-3.19502

>  <SCORE.INTRA.norm>
0.225562

>  <SCORE.RESTR>
12.3998

>  <SCORE.RESTR.CAVITY>
12.3998

>  <SCORE.RESTR.norm>
0.335131

>  <SCORE.SYSTEM>
0

>  <SCORE.SYSTEM.CONST>
0

>  <SCORE.SYSTEM.DIHEDRAL>
0

>  <SCORE.SYSTEM.SOLV>
0

>  <SCORE.SYSTEM.norm>
0

>  <SCORE.heavy>
37

>  <SCORE.norm>
0.711603

>  <RMSD>
20.040

$$$$
2oe5_lig
 OpenBabel11021811463D
libRbt.so/2013.1/901 2013/11/27
 37 40  0  0  0  0  0  0  0  0999 V2000
   12.4142    3.7671   33.0304 C   0  0  1  0  0  0  0  0  0  0  0  0
   11.1352    2.9025   33.0943 C   0  0  1  0  0  0  0  0  0  0  0  0
   11.3981    1.6535   34.0152 C   0  0  0  0  0  0  0  0  0  0  0  0
   12.5791    0.9040   33.3588 C   0  0  1  0  0  0  0  0  0  0  0  0
   13.8865    1.8112   33.2969 C   0  0  1  0  0  0  0  0  0  0  0  0
   15.0886    1.0735   32.6465 C   0  0  1  0  0  0  0  0  0  0  0  0
   15.3594   -0.1933   33.5071 C   0  0  1  0  0  0  0  0  0  0  0  0
   14.0308   -1.0377   33.5791 C   0  0  2  0  0  0  0  0  0  0  0  0
   17.7714   -0.3351   32.4947 C   0  0  0  0  0  0  0  0  0  0  0  0
   10.0148    3.6967   33.6488 N   0  0  0  0  0  0  0  0  0  0  0  0
   16.4888   -1.0023   32.9118 N   0  0  0  0  0  0  0  0  0  0  0  0
   12.7719    4.2939   34.3186 O   0  0  0  0  0  0  0  0  0  0  0  0
   13.5701    3.0130   32.5224 O   0  0  0  0  0  0  0  0  0  0  0  0
   12.8978   -0.2776   34.1417 O   0  0  0  0  0  0  0  0  0  0  0  0
   14.7247    0.7357   31.3043 O   0  0  0  0  0  0  0  0  0  0  0  0
   14.2207   -2.1679   34.4073 O   0  0  0  0  0  0  0  0  0  0  0  0
   14.6151   -1.7622   35.7045 C   0  0  2  0  0  0  0  0  0  0  0  0
   14.6338   -2.9250   36.6960 C   0  0  1  0  0  0  0  0  0  0  0  0
   13.2088   -3.5069   36.9053 C   0  0  2  0  0  0  0  0  0  0  0  0
   12.2939   -2.3437   37.3909 C   0  0  1  0  0  0  0  0  0  0  0  0
   12.3021   -1.2272   36.2955 C   0  0  1  0  0  0  0  0  0  0  0  0
   11.4826   -0.0175   36.6862 C   0  0  0  0  0  0  0  0  0  0  0  0
   10.9046   -2.9004   37.6004 N   0  0  0  0  0  0  0  0  0  0  0  0
   13.6795   -0.7372   36.1649 O   0  0  0  0  0  0  0  0  0  0  0  0
   15.5252   -3.9283   36.1702 O   0  0  0  0  0  0  0  0  0  0  0  0
   13.2855   -4.5182   37.9262 O   0  0  0  0  0  0  0  0  0  0  0  0
   10.1417   -0.3295   36.8515 O   0  0  0  0  0  0  0  0  0  0  0  0
   12.4946    5.6854   34.4788 C   0  0  1  0  0  0  0  0  0  0  0  0
   11.7276    5.9247   35.8284 C   0  0  1  0  0  0  0  0  0  0  0  0
   11.4460    7.4621   35.9882 C   0  0  2  0  0  0  0  0  0  0  0  0
   12.7804    8.2226   36.0173 C   0  0  1  0  0  0  0  0  0  0  0  0
   13.5429    7.9928   34.6557 C   0  0  0  0  0  0  0  0  0  0  0  0
   13.8136    6.4462   34.4850 C   0  0  2  0  0  0  0  0  0  0  0  0
   12.5069    9.6405   36.1844 N   0  0  0  0  0  0  0  0  0  0  0  0
   14.5131    6.1844   33.1997 N   0  0  0  0  0  0  0  0  0  0  0  0
   10.4617    5.2047   35.8056 O   0  0  0  0  0  0  0  0  0  0  0  0
   10.7772    7.6825   37.2017 O   0  0  0  0  0  0  0  0  0  0  0  0
  1  2  1  0  0  0  0
  1 12  1  1  0  0  0
  1 13  1  0  0  0  0
  2  3  1  0  0  0  0
  2 10  1  1  0  0  0
  4  3  1  1  0  0  0
  4  5  1  0  0  0  0
  4 14  1  0  0  0  0
  5  6  1  0  0  0  0
  5 13  1  6  0  0  0
  6  7  1  0  0  0  0
  6 15  1  6  0  0  0
  7  8  1  0  0  0  0
  7 11  1  6  0  0  0
  8 14  1  0  0  0  0
  8 16  1  1  0  0  0
  9 11  1  0  0  0  0
 17 16  1  6  0  0  0
 17 18  1  0  0  0  0
 17 24  1  0  0  0  0
 18 19  1  0  0  0  0
 18 25  1  6  0  0  0
 19 20  1  0  0  0  0
 19 26  1  1  0  0  0
 20 21  1  0  0  0  0
 20 23  1  6  0  0  0
 21 22  1  1  0  0  0
 21 24  1  0  0  0  0
 22 27  1  0  0  0  0
 28 12  1  1  0  0  0
 28 29  1  0  0  0  0
 28 33  1  0  0  0  0
 29 30  1  0  0  0  0
 29 36  1  6  0  0  0
 30 31  1  0  0  0  0
 30 37  1  1  0  0  0
 31 32  1  0  0  0  0
 31 34  1  6  0  0  0
 32 33  1  0  0  0  0
 33 35  1  6  0  0  0
M  END
>  <CHROM.1>
-105.54230331,47.68586855,58.21197674,171.52790821,-62.53348058,131.22540881
13.09355553,1.71328195,34.88728077,-1.82382493,-0.79533385,2.89272675

>  <Name>
2oe5_lig

>  <RI>
0

>  <Rbt.Current_Directory>
/home/afrankz/demos/rdock_decoys_rna/rnas/2oe5

>  <Rbt.Executable>
rbdock ($Id: //depot/dev/client3/rdock/2013.1/src/exe/rbdock.cxx#4 $)

>  <Rbt.Library>
libRbt.so (2013.1, Build901 2013/11/27)

>  <Rbt.Parameter_File>
/export/apps/rDock/src/rDock_2013.1_src/data/scripts/dock_solv.prm

>  <Rbt.Receptor>
prm/blind_docking_40.prm

>  <SCORE>
26.1305

>  <SCORE.INTER>
5.25306

>  <SCORE.INTER.CONST>
1

>  <SCORE.INTER.POLAR>
0

>  <SCORE.INTER.ROT>
6

>  <SCORE.INTER.SOLV>
12.0007

>  <SCORE.INTER.VDW>
-8.09819

>  <SCORE.INTER.norm>
0.141975

>  <SCORE.INTRA>
8.82022

>  <SCORE.INTRA.DIHEDRAL>
-2.8698

>  <SCORE.INTRA.DIHEDRAL.0>
16.2083

>  <SCORE.INTRA.POLAR>
0

>  <SCORE.INTRA.POLAR.0>
0

>  <SCORE.INTRA.REPUL>
0

>  <SCORE.INTRA.REPUL.0>
0

>  <SCORE.INTRA.SOLV>
2.00922

>  <SCORE.INTRA.SOLV.lig_0>
-89.8095

>  <SCORE.INTRA.VDW>
9.2505

>  <SCORE.INTRA.VDW.0>
-3.19502

>  <SCORE.INTRA.norm>
0.238384

>  <SCORE.RESTR>
12.0573

>  <SCORE.RESTR.CAVITY>
12.0573

>  <SCORE.RESTR.norm>
0.325872

>  <SCORE.SYSTEM>
0

>  <SCORE.SYSTEM.CONST>
0

>  <SCORE.SYSTEM.DIHEDRAL>
0

>  <SCORE.SYSTEM.SOLV>
0

>  <SCORE.SYSTEM.norm>
0

>  <SCORE.heavy>
37

>  <SCORE.norm>
0.706231

>  <RMSD>
20.045

$$$$
2oe5_lig
 OpenBabel11021811463D
libRbt.so/2013.1/901 2013/11/27
 37 40  0  0  0  0  0  0  0  0999 V2000
   11.6670   -2.2124   37.2051 C   0  0  1  0  0  0  0  0  0  0  0  0
   10.1693   -1.8924   37.0003 C   0  0  1  0  0  0  0  0  0  0  0  0
    9.9623   -1.2685   35.5702 C   0  0  0  0  0  0  0  0  0  0  0  0
   10.8407    0.0025   35.5485 C   0  0  1  0  0  0  0  0  0  0  0  0
   12.3795   -0.3455   35.7659 C   0  0  1  0  0  0  0  0  0  0  0  0
   13.2816    0.9186   35.7403 C   0  0  1  0  0  0  0  0  0  0  0  0
   13.0780    1.5898   34.3523 C   0  0  1  0  0  0  0  0  0  0  0  0
   11.5403    1.8755   34.1598 C   0  0  2  0  0  0  0  0  0  0  0  0
   14.5352    3.2671   32.9645 C   0  0  0  0  0  0  0  0  0  0  0  0
    9.3665   -3.1313   37.1185 N   0  0  0  0  0  0  0  0  0  0  0  0
   13.8857    2.8640   34.2605 N   0  0  0  0  0  0  0  0  0  0  0  0
   12.1387   -3.1979   36.2717 O   0  0  0  0  0  0  0  0  0  0  0  0
   12.5152   -1.0200   37.0586 O   0  0  0  0  0  0  0  0  0  0  0  0
   10.7138    0.6568   34.2577 O   0  0  0  0  0  0  0  0  0  0  0  0
   12.8699    1.7757   36.8100 O   0  0  0  0  0  0  0  0  0  0  0  0
   11.3081    2.4294   32.8798 O   0  0  0  0  0  0  0  0  0  0  0  0
   10.4324    3.5369   32.9783 C   0  0  2  0  0  0  0  0  0  0  0  0
   10.8577    4.6953   32.0769 C   0  0  1  0  0  0  0  0  0  0  0  0
   12.2338    5.2693   32.5127 C   0  0  2  0  0  0  0  0  0  0  0  0
   12.1089    5.7072   34.0021 C   0  0  1  0  0  0  0  0  0  0  0  0
   11.7175    4.4514   34.8483 C   0  0  1  0  0  0  0  0  0  0  0  0
   11.5168    4.7714   36.3128 C   0  0  0  0  0  0  0  0  0  0  0  0
   13.4428    6.2703   34.4353 N   0  0  0  0  0  0  0  0  0  0  0  0
   10.4122    3.9786   34.3719 O   0  0  0  0  0  0  0  0  0  0  0  0
   10.9152    4.1950   30.7263 O   0  0  0  0  0  0  0  0  0  0  0  0
   12.5170    6.4187   31.6943 O   0  0  0  0  0  0  0  0  0  0  0  0
   11.2410    3.6362   37.0598 O   0  0  0  0  0  0  0  0  0  0  0  0
   13.4466   -3.6946   36.5569 C   0  0  1  0  0  0  0  0  0  0  0  0
   14.5047   -2.9566   35.6609 C   0  0  1  0  0  0  0  0  0  0  0  0
   15.9351   -3.5098   36.0019 C   0  0  2  0  0  0  0  0  0  0  0  0
   16.2438   -3.2417   37.4827 C   0  0  1  0  0  0  0  0  0  0  0  0
   15.1889   -3.9951   38.3814 C   0  0  0  0  0  0  0  0  0  0  0  0
   13.7483   -3.4518   38.0296 C   0  0  2  0  0  0  0  0  0  0  0  0
   17.5761   -3.7409   37.7804 N   0  0  0  0  0  0  0  0  0  0  0  0
   12.7202   -4.1542   38.8417 N   0  0  0  0  0  0  0  0  0  0  0  0
   14.2155   -3.2076   34.2556 O   0  0  0  0  0  0  0  0  0  0  0  0
   16.8855   -2.8400   35.2168 O   0  0  0  0  0  0  0  0  0  0  0  0
  1  2  1  0  0  0  0
  1 12  1  6  0  0  0
  1 13  1  0  0  0  0
  2  3  1  0  0  0  0
  2 10  1  6  0  0  0
  4  3  1  6  0  0  0
  4  5  1  0  0  0  0
  4 14  1  0  0  0  0
  5  6  1  0  0  0  0
  5 13  1  1  0  0  0
  6  7  1  0  0  0  0
  6 15  1  1  0  0  0
  7  8  1  0  0  0  0
  7 11  1  1  0  0  0
  8 14  1  0  0  0  0
  8 16  1  6  0  0  0
  9 11  1  0  0  0  0
 17 16  1  1  0  0  0
 17 18  1  0  0  0  0
 17 24  1  0  0  0  0
 18 19  1  0  0  0  0
 18 25  1  6  0  0  0
 19 20  1  0  0  0  0
 19 26  1  6  0  0  0
 20 21  1  0  0  0  0
 20 23  1  1  0  0  0
 21 22  1  1  0  0  0
 21 24  1  0  0  0  0
 22 27  1  0  0  0  0
 28 12  1  6  0  0  0
 28 29  1  0  0  0  0
 28 33  1  0  0  0  0
 29 30  1  0  0  0  0
 29 36  1  6  0  0  0
 30 31  1  0  0  0  0
 30 37  1  6  0  0  0
 31 32  1  0  0  0  0
 31 34  1  1  0  0  0
 32 33  1  0  0  0  0
 33 35  1  1  0  0  0
M  END
>  <CHROM.1>
-170.00615814,143.74117176,-134.58747507,138.88541127,-176.78011426,-98.73302445
12.64393399,0.58855394,35.26908706,1.30832612,-0.14610568,2.66767444

>  <Name>
2oe5_lig

>  <RI>
0

>  <Rbt.Current_Directory>
/home/afrankz/demos/rdock_decoys_rna/rnas/2oe5

>  <Rbt.Executable>
rbdock ($Id: //depot/dev/client3/rdock/2013.1/src/exe/rbdock.cxx#4 $)

>  <Rbt.Library>
libRbt.so (2013.1, Build901 2013/11/27)

>  <Rbt.Parameter_File>
/export/apps/rDock/src/rDock_2013.1_src/data/scripts/dock_solv.prm

>  <Rbt.Receptor>
prm/blind_docking_40.prm

>  <SCORE>
27.1451

>  <SCORE.INTER>
1.54472

>  <SCORE.INTER.CONST>
1

>  <SCORE.INTER.POLAR>
-0.837415

>  <SCORE.INTER.ROT>
6

>  <SCORE.INTER.SOLV>
17.9588

>  <SCORE.INTER.VDW>
-9.76508

>  <SCORE.INTER.norm>
0.0417493

>  <SCORE.INTRA>
13.095

>  <SCORE.INTRA.DIHEDRAL>
2.10351

>  <SCORE.INTRA.DIHEDRAL.0>
16.2083

>  <SCORE.INTRA.POLAR>
0

>  <SCORE.INTRA.POLAR.0>
0

>  <SCORE.INTRA.REPUL>
0

>  <SCORE.INTRA.REPUL.0>
0

>  <SCORE.INTRA.SOLV>
4.15082

>  <SCORE.INTRA.SOLV.lig_0>
-89.8095

>  <SCORE.INTRA.VDW>
9.9678

>  <SCORE.INTRA.VDW.0>
-3.19502

>  <SCORE.INTRA.norm>
0.353918

>  <SCORE.RESTR>
12.5054

>  <SCORE.RESTR.CAVITY>
12.5054

>  <SCORE.RESTR.norm>
0.337984

>  <SCORE.SYSTEM>
0

>  <SCORE.SYSTEM.CONST>
0

>  <SCORE.SYSTEM.DIHEDRAL>
0

>  <SCORE.SYSTEM.SOLV>
0

>  <SCORE.SYSTEM.norm>
0

>  <SCORE.heavy>
37

>  <SCORE.norm>
0.733651

>  <RMSD>
20.071

$$$$
2oe5_lig
 OpenBabel11021811463D
libRbt.so/2013.1/901 2013/11/27
 37 40  0  0  0  0  0  0  0  0999 V2000
    9.0977    2.6963   35.7941 C   0  0  1  0  0  0  0  0  0  0  0  0
    9.0241    1.8470   37.0827 C   0  0  1  0  0  0  0  0  0  0  0  0
   10.4718    1.3682   37.4726 C   0  0  0  0  0  0  0  0  0  0  0  0
   10.9713    0.5505   36.2604 C   0  0  1  0  0  0  0  0  0  0  0  0
   11.0362    1.4398   34.9409 C   0  0  1  0  0  0  0  0  0  0  0  0
   11.5433    0.6382   33.7111 C   0  0  1  0  0  0  0  0  0  0  0  0
   12.9623    0.1124   34.0695 C   0  0  1  0  0  0  0  0  0  0  0  0
   12.8604   -0.7227   35.4020 C   0  0  2  0  0  0  0  0  0  0  0  0
   14.3705   -0.1052   31.8712 C   0  0  0  0  0  0  0  0  0  0  0  0
    8.4571    2.6531   38.1883 N   0  0  0  0  0  0  0  0  0  0  0  0
   13.5131   -0.7272   32.9398 N   0  0  0  0  0  0  0  0  0  0  0  0
    9.8725    3.8919   35.9818 O   0  0  0  0  0  0  0  0  0  0  0  0
    9.6916    1.9537   34.6722 O   0  0  0  0  0  0  0  0  0  0  0  0
   12.3118    0.0582   36.5277 O   0  0  0  0  0  0  0  0  0  0  0  0
   10.6244   -0.4331   33.4738 O   0  0  0  0  0  0  0  0  0  0  0  0
   14.1446   -1.1654   35.7945 O   0  0  0  0  0  0  0  0  0  0  0  0
   14.5192   -2.3049   35.0433 C   0  0  2  0  0  0  0  0  0  0  0  0
   15.3142   -3.3119   35.8735 C   0  0  1  0  0  0  0  0  0  0  0  0
   16.6691   -2.7107   36.3380 C   0  0  2  0  0  0  0  0  0  0  0  0
   17.4462   -2.2656   35.0637 C   0  0  1  0  0  0  0  0  0  0  0  0
   16.5779   -1.2065   34.3083 C   0  0  1  0  0  0  0  0  0  0  0  0
   17.2152   -0.7388   33.0189 C   0  0  0  0  0  0  0  0  0  0  0  0
   18.7683   -1.6814   35.5049 N   0  0  0  0  0  0  0  0  0  0  0  0
   15.3246   -1.8571   33.9081 O   0  0  0  0  0  0  0  0  0  0  0  0
   14.5007   -3.6784   37.0056 O   0  0  0  0  0  0  0  0  0  0  0  0
   17.4065   -3.7439   37.0160 O   0  0  0  0  0  0  0  0  0  0  0  0
   17.1920   -1.7218   32.0413 O   0  0  0  0  0  0  0  0  0  0  0  0
   10.9702    4.0251   35.0785 C   0  0  1  0  0  0  0  0  0  0  0  0
   10.4813    4.6802   33.7374 C   0  0  1  0  0  0  0  0  0  0  0  0
   11.7075    4.8283   32.7664 C   0  0  2  0  0  0  0  0  0  0  0  0
   12.7662    5.7299   33.4190 C   0  0  1  0  0  0  0  0  0  0  0  0
   13.2666    5.0638   34.7584 C   0  0  0  0  0  0  0  0  0  0  0  0
   12.0328    4.8995   35.7305 C   0  0  2  0  0  0  0  0  0  0  0  0
   13.8862    5.8741   32.5035 N   0  0  0  0  0  0  0  0  0  0  0  0
   12.4592    4.2532   36.9995 N   0  0  0  0  0  0  0  0  0  0  0  0
    9.4765    3.8287   33.1152 O   0  0  0  0  0  0  0  0  0  0  0  0
   11.2787    5.4302   31.5738 O   0  0  0  0  0  0  0  0  0  0  0  0
  1  2  1  0  0  0  0
  1 12  1  1  0  0  0
  1 13  1  0  0  0  0
  2  3  1  0  0  0  0
  2 10  1  1  0  0  0
  4  3  1  1  0  0  0
  4  5  1  0  0  0  0
  4 14  1  0  0  0  0
  5  6  1  0  0  0  0
  5 13  1  6  0  0  0
  6  7  1  0  0  0  0
  6 15  1  1  0  0  0
  7  8  1  0  0  0  0
  7 11  1  6  0  0  0
  8 14  1  0  0  0  0
  8 16  1  1  0  0  0
  9 11  1  0  0  0  0
 17 16  1  1  0  0  0
 17 18  1  0  0  0  0
 17 24  1  0  0  0  0
 18 19  1  0  0  0  0
 18 25  1  1  0  0  0
 19 20  1  0  0  0  0
 19 26  1  6  0  0  0
 20 21  1  0  0  0  0
 20 23  1  1  0  0  0
 21 22  1  6  0  0  0
 21 24  1  0  0  0  0
 22 27  1  0  0  0  0
 28 12  1  1  0  0  0
 28 29  1  0  0  0  0
 28 33  1  0  0  0  0
 29 30  1  0  0  0  0
 29 36  1  6  0  0  0
 30 31  1  0  0  0  0
 30 37  1  6  0  0  0
 31 32  1  0  0  0  0
 31 34  1  6  0  0  0
 32 33  1  0  0  0  0
 33 35  1  1  0  0  0
M  END
>  <CHROM.1>
123.12191031,92.79625624,-79.72965128,-143.56597695,71.20294196,85.22272191
12.98670380,0.97420931,34.81921875,2.46821975,0.54334110,-0.62781814

>  <Name>
2oe5_lig

>  <RI>
0

>  <Rbt.Current_Directory>
/home/afrankz/demos/rdock_decoys_rna/rnas/2oe5

>  <Rbt.Executable>
rbdock ($Id: //depot/dev/client3/rdock/2013.1/src/exe/rbdock.cxx#4 $)

>  <Rbt.Library>
libRbt.so (2013.1, Build901 2013/11/27)

>  <Rbt.Parameter_File>
/export/apps/rDock/src/rDock_2013.1_src/data/scripts/dock_solv.prm

>  <Rbt.Receptor>
prm/blind_docking_40.prm

>  <SCORE>
28.2607

>  <SCORE.INTER>
3.21883

>  <SCORE.INTER.CONST>
1

>  <SCORE.INTER.POLAR>
-0.233946

>  <SCORE.INTER.ROT>
6

>  <SCORE.INTER.SOLV>
23.2114

>  <SCORE.INTER.VDW>
-12.4114

>  <SCORE.INTER.norm>
0.0869955

>  <SCORE.INTRA>
10.2342

>  <SCORE.INTRA.DIHEDRAL>
1.30069

>  <SCORE.INTRA.DIHEDRAL.0>
16.2083

>  <SCORE.INTRA.POLAR>
0

>  <SCORE.INTRA.POLAR.0>
0

>  <SCORE.INTRA.REPUL>
0

>  <SCORE.INTRA.REPUL.0>
0

>  <SCORE.INTRA.SOLV>
1.57323

>  <SCORE.INTRA.SOLV.lig_0>
-89.8095

>  <SCORE.INTRA.VDW>
8.79725

>  <SCORE.INTRA.VDW.0>
-3.19502

>  <SCORE.INTRA.norm>
0.2766

>  <SCORE.RESTR>
14.8076

>  <SCORE.RESTR.CAVITY>
14.8076

>  <SCORE.RESTR.norm>
0.400206

>  <SCORE.SYSTEM>
0

>  <SCORE.SYSTEM.CONST>
0

>  <SCORE.SYSTEM.DIHEDRAL>
0

>  <SCORE.SYSTEM.SOLV>
0

>  <SCORE.SYSTEM.norm>
0

>  <SCORE.heavy>
37

>  <SCORE.norm>
0.763802

>  <RMSD>
20.095

$$$$
2oe5_lig
 OpenBabel11021811463D
libRbt.so/2013.1/901 2013/11/27
 37 40  0  0  0  0  0  0  0  0999 V2000
    9.8871   -1.8104   37.0900 C   0  0  1  0  0  0  0  0  0  0  0  0
    8.7566   -1.5545   36.0683 C   0  0  1  0  0  0  0  0  0  0  0  0
    9.3626   -0.8822   34.7807 C   0  0  0  0  0  0  0  0  0  0  0  0
   10.0141    0.4293   35.2735 C   0  0  1  0  0  0  0  0  0  0  0  0
   11.1729    0.1470   36.3288 C   0  0  1  0  0  0  0  0  0  0  0  0
   11.8465    1.4530   36.8319 C   0  0  1  0  0  0  0  0  0  0  0  0
   12.4283    2.1710   35.5810 C   0  0  1  0  0  0  0  0  0  0  0  0
   11.2602    2.3902   34.5463 C   0  0  2  0  0  0  0  0  0  0  0  0
   14.1563    3.5283   37.0074 C   0  0  0  0  0  0  0  0  0  0  0  0
    8.1099   -2.8345   35.6982 N   0  0  0  0  0  0  0  0  0  0  0  0
   13.0617    3.4853   35.9759 N   0  0  0  0  0  0  0  0  0  0  0  0
   10.8678   -2.7323   36.5870 O   0  0  0  0  0  0  0  0  0  0  0  0
   10.5900   -0.5735   37.4626 O   0  0  0  0  0  0  0  0  0  0  0  0
   10.6045    1.1301   34.1461 O   0  0  0  0  0  0  0  0  0  0  0  0
   10.8453    2.2439   37.4802 O   0  0  0  0  0  0  0  0  0  0  0  0
   11.7645    2.9852   33.3669 O   0  0  0  0  0  0  0  0  0  0  0  0
   10.9489    4.0762   32.9830 C   0  0  2  0  0  0  0  0  0  0  0  0
   11.6088    4.9465   31.9141 C   0  0  1  0  0  0  0  0  0  0  0  0
   12.8994    5.6196   32.4568 C   0  0  2  0  0  0  0  0  0  0  0  0
   12.5034    6.4460   33.7162 C   0  0  1  0  0  0  0  0  0  0  0  0
   11.8824    5.4670   34.7661 C   0  0  1  0  0  0  0  0  0  0  0  0
   11.4108    6.1730   36.0178 C   0  0  0  0  0  0  0  0  0  0  0  0
   13.7526    7.1077   34.2506 N   0  0  0  0  0  0  0  0  0  0  0  0
   10.6747    4.8804   34.1730 O   0  0  0  0  0  0  0  0  0  0  0  0
   11.9077    4.0978   30.7881 O   0  0  0  0  0  0  0  0  0  0  0  0
   13.4032    6.5036   31.4390 O   0  0  0  0  0  0  0  0  0  0  0  0
   10.5759    5.3726   36.7827 O   0  0  0  0  0  0  0  0  0  0  0  0
   12.1146   -2.6965   37.2819 C   0  0  1  0  0  0  0  0  0  0  0  0
   12.3138   -4.0288   38.0895 C   0  0  1  0  0  0  0  0  0  0  0  0
   13.6962   -3.9712   38.8338 C   0  0  2  0  0  0  0  0  0  0  0  0
   14.8237   -3.8269   37.8005 C   0  0  1  0  0  0  0  0  0  0  0  0
   14.6304   -2.4815   37.0001 C   0  0  0  0  0  0  0  0  0  0  0  0
   13.2342   -2.5303   36.2633 C   0  0  2  0  0  0  0  0  0  0  0  0
   16.0976   -3.7938   38.5000 N   0  0  0  0  0  0  0  0  0  0  0  0
   13.0032   -1.2678   35.5131 N   0  0  0  0  0  0  0  0  0  0  0  0
   11.2462   -4.1702   39.0703 O   0  0  0  0  0  0  0  0  0  0  0  0
   13.8866   -5.1674   39.5418 O   0  0  0  0  0  0  0  0  0  0  0  0
  1  2  1  0  0  0  0
  1 12  1  6  0  0  0
  1 13  1  0  0  0  0
  2  3  1  0  0  0  0
  2 10  1  6  0  0  0
  4  3  1  6  0  0  0
  4  5  1  0  0  0  0
  4 14  1  0  0  0  0
  5  6  1  0  0  0  0
  5 13  1  1  0  0  0
  6  7  1  0  0  0  0
  6 15  1  6  0  0  0
  7  8  1  0  0  0  0
  7 11  1  1  0  0  0
  8 14  1  0  0  0  0
  8 16  1  6  0  0  0
  9 11  1  0  0  0  0
 17 16  1  1  0  0  0
 17 18  1  0  0  0  0
 17 24  1  0  0  0  0
 18 19  1  0  0  0  0
 18 25  1  6  0  0  0
 19 20  1  0  0  0  0
 19 26  1  6  0  0  0
 20 21  1  0  0  0  0
 20 23  1  1  0  0  0
 21 22  1  1  0  0  0
 21 24  1  0  0  0  0
 22 27  1  0  0  0  0
 28 12  1  6  0  0  0
 28 29  1  0  0  0  0
 28 33  1  0  0  0  0
 29 30  1  0  0  0  0
 29 36  1  1  0  0  0
 30 31  1  0  0  0  0
 30 37  1  6  0  0  0
 31 32  1  0  0  0  0
 31 34  1  1  0  0  0
 32 33  1  0  0  0  0
 33 35  1  1  0  0  0
M  END
>  <CHROM.1>
161.72118465,56.69448191,-132.38276433,167.00015999,164.95889475,111.29577293
11.91673868,1.00872374,35.71106043,1.52409563,0.33139772,2.70334638

>  <Name>
2oe5_lig

>  <RI>
0

>  <Rbt.Current_Directory>
/home/afrankz/demos/rdock_decoys_rna/rnas/2oe5

>  <Rbt.Executable>
rbdock ($Id: //depot/dev/client3/rdock/2013.1/src/exe/rbdock.cxx#4 $)

>  <Rbt.Library>
libRbt.so (2013.1, Build901 2013/11/27)

>  <Rbt.Parameter_File>
/export/apps/rDock/src/rDock_2013.1_src/data/scripts/dock_solv.prm

>  <Rbt.Receptor>
prm/blind_docking_40.prm

>  <SCORE>
28.7492

>  <SCORE.INTER>
6.82822

>  <SCORE.INTER.CONST>
1

>  <SCORE.INTER.POLAR>
0

>  <SCORE.INTER.ROT>
6

>  <SCORE.INTER.SOLV>
13.3758

>  <SCORE.INTER.VDW>
-7.50646

>  <SCORE.INTER.norm>
0.184546

>  <SCORE.INTRA>
6.90613

>  <SCORE.INTRA.DIHEDRAL>
0.24071

>  <SCORE.INTRA.DIHEDRAL.0>
16.2083

>  <SCORE.INTRA.POLAR>
0

>  <SCORE.INTRA.POLAR.0>
0

>  <SCORE.INTRA.REPUL>
0

>  <SCORE.INTRA.REPUL.0>
0

>  <SCORE.INTRA.SOLV>
4.91854

>  <SCORE.INTRA.SOLV.lig_0>
-89.8095

>  <SCORE.INTRA.VDW>
4.32651

>  <SCORE.INTRA.VDW.0>
-3.19502

>  <SCORE.INTRA.norm>
0.186652

>  <SCORE.RESTR>
15.0148

>  <SCORE.RESTR.CAVITY>
15.0148

>  <SCORE.RESTR.norm>
0.405806

>  <SCORE.SYSTEM>
0

>  <SCORE.SYSTEM.CONST>
0

>  <SCORE.SYSTEM.DIHEDRAL>
0

>  <SCORE.SYSTEM.SOLV>
0

>  <SCORE.SYSTEM.norm>
0

>  <SCORE.heavy>
37

>  <SCORE.norm>
0.777005

>  <RMSD>
20.112

$$$$
2oe5_lig
 OpenBabel11021811463D
libRbt.so/2013.1/901 2013/11/27
 37 40  0  0  0  0  0  0  0  0999 V2000
   10.6829    4.3288   34.4351 C   0  0  1  0  0  0  0  0  0  0  0  0
    9.7764    3.1170   34.1232 C   0  0  1  0  0  0  0  0  0  0  0  0
   10.5429    1.7895   34.4802 C   0  0  0  0  0  0  0  0  0  0  0  0
   11.8175    1.8070   33.6070 C   0  0  1  0  0  0  0  0  0  0  0  0
   12.7369    3.0645   33.9382 C   0  0  1  0  0  0  0  0  0  0  0  0
   14.0282    3.0973   33.0759 C   0  0  1  0  0  0  0  0  0  0  0  0
   14.8007    1.7800   33.3705 C   0  0  1  0  0  0  0  0  0  0  0  0
   13.8421    0.5652   33.0730 C   0  0  2  0  0  0  0  0  0  0  0  0
   15.9742    1.3656   31.0653 C   0  0  0  0  0  0  0  0  0  0  0  0
    8.5317    3.1975   34.9218 N   0  0  0  0  0  0  0  0  0  0  0  0
   16.0539    1.7055   32.5288 N   0  0  0  0  0  0  0  0  0  0  0  0
   10.9983    4.4183   35.8342 O   0  0  0  0  0  0  0  0  0  0  0  0
   11.9532    4.2775   33.6958 O   0  0  0  0  0  0  0  0  0  0  0  0
   12.5978    0.6090   33.8652 O   0  0  0  0  0  0  0  0  0  0  0  0
   13.6385    3.1881   31.7018 O   0  0  0  0  0  0  0  0  0  0  0  0
   14.4901   -0.6508   33.3902 O   0  0  0  0  0  0  0  0  0  0  0  0
   15.0490   -0.5823   34.6887 C   0  0  2  0  0  0  0  0  0  0  0  0
   16.5307   -0.9565   34.7035 C   0  0  1  0  0  0  0  0  0  0  0  0
   16.7392   -2.4383   34.2865 C   0  0  2  0  0  0  0  0  0  0  0  0
   15.9067   -3.3217   35.2623 C   0  0  1  0  0  0  0  0  0  0  0  0
   14.4058   -2.8985   35.1430 C   0  0  1  0  0  0  0  0  0  0  0  0
   13.5055   -3.6601   36.0901 C   0  0  0  0  0  0  0  0  0  0  0  0
   16.1053   -4.7667   34.8666 N   0  0  0  0  0  0  0  0  0  0  0  0
   14.3020   -1.4934   35.5545 O   0  0  0  0  0  0  0  0  0  0  0  0
   17.2113   -0.0676   33.7957 O   0  0  0  0  0  0  0  0  0  0  0  0
   18.1372   -2.7490   34.4285 O   0  0  0  0  0  0  0  0  0  0  0  0
   13.5102   -3.1132   37.3643 O   0  0  0  0  0  0  0  0  0  0  0  0
   11.5003    5.6918   36.2401 C   0  0  1  0  0  0  0  0  0  0  0  0
   12.8689    5.9785   35.5249 C   0  0  1  0  0  0  0  0  0  0  0  0
   13.3938    7.3888   35.9765 C   0  0  2  0  0  0  0  0  0  0  0  0
   12.3724    8.4636   35.5746 C   0  0  1  0  0  0  0  0  0  0  0  0
   11.0028    8.1824   36.3048 C   0  0  0  0  0  0  0  0  0  0  0  0
   10.4805    6.7584   35.8645 C   0  0  2  0  0  0  0  0  0  0  0  0
   12.8782    9.7644   35.9809 N   0  0  0  0  0  0  0  0  0  0  0  0
    9.1990    6.4452   36.5496 N   0  0  0  0  0  0  0  0  0  0  0  0
   13.8405    4.9613   35.9026 O   0  0  0  0  0  0  0  0  0  0  0  0
   14.6073    7.6570   35.3256 O   0  0  0  0  0  0  0  0  0  0  0  0
  1  2  1  0  0  0  0
  1 12  1  1  0  0  0
  1 13  1  0  0  0  0
  2  3  1  0  0  0  0
  2 10  1  1  0  0  0
  4  3  1  1  0  0  0
  4  5  1  0  0  0  0
  4 14  1  0  0  0  0
  5  6  1  0  0  0  0
  5 13  1  6  0  0  0
  6  7  1  0  0  0  0
  6 15  1  6  0  0  0
  7  8  1  0  0  0  0
  7 11  1  6  0  0  0
  8 14  1  0  0  0  0
  8 16  1  1  0  0  0
  9 11  1  0  0  0  0
 17 16  1  6  0  0  0
 17 18  1  0  0  0  0
 17 24  1  0  0  0  0
 18 19  1  0  0  0  0
 18 25  1  6  0  0  0
 19 20  1  0  0  0  0
 19 26  1  1  0  0  0
 20 21  1  0  0  0  0
 20 23  1  6  0  0  0
 21 22  1  1  0  0  0
 21 24  1  0  0  0  0
 22 27  1  0  0  0  0
 28 12  1  6  0  0  0
 28 29  1  0  0  0  0
 28 33  1  0  0  0  0
 29 30  1  0  0  0  0
 29 36  1  1  0  0  0
 30 31  1  0  0  0  0
 30 37  1  6  0  0  0
 31 32  1  0  0  0  0
 31 34  1  1  0  0  0
 32 33  1  0  0  0  0
 33 35  1  1  0  0  0
M  END
>  <CHROM.1>
-163.20463934,-75.91469759,49.84429711,-127.28971613,82.48821990,-63.71978868
13.44211454,2.20294496,34.65521410,2.01112037,0.34867899,-0.06099348

>  <Name>
2oe5_lig

>  <RI>
0

>  <Rbt.Current_Directory>
/home/afrankz/demos/rdock_decoys_rna/rnas/2oe5

>  <Rbt.Executable>
rbdock ($Id: //depot/dev/client3/rdock/2013.1/src/exe/rbdock.cxx#4 $)

>  <Rbt.Library>
libRbt.so (2013.1, Build901 2013/11/27)

>  <Rbt.Parameter_File>
/export/apps/rDock/src/rDock_2013.1_src/data/scripts/dock_solv.prm

>  <Rbt.Receptor>
prm/blind_docking_40.prm

>  <SCORE>
27.7135

>  <SCORE.INTER>
4.50345

>  <SCORE.INTER.CONST>
1

>  <SCORE.INTER.POLAR>
0

>  <SCORE.INTER.ROT>
6

>  <SCORE.INTER.SOLV>
16.1598

>  <SCORE.INTER.VDW>
-9.98429

>  <SCORE.INTER.norm>
0.121715

>  <SCORE.INTRA>
2.93023

>  <SCORE.INTRA.DIHEDRAL>
-5.53227

>  <SCORE.INTRA.DIHEDRAL.0>
16.2083

>  <SCORE.INTRA.POLAR>
0

>  <SCORE.INTRA.POLAR.0>
0

>  <SCORE.INTRA.REPUL>
0.000963571

>  <SCORE.INTRA.REPUL.0>
0

>  <SCORE.INTRA.SOLV>
1.1881

>  <SCORE.INTRA.SOLV.lig_0>
-89.8095

>  <SCORE.INTRA.VDW>
5.09749

>  <SCORE.INTRA.VDW.0>
-3.19502

>  <SCORE.INTRA.norm>
0.0791954

>  <SCORE.RESTR>
20.2798

>  <SCORE.RESTR.CAVITY>
20.2798

>  <SCORE.RESTR.norm>
0.548102

>  <SCORE.SYSTEM>
0

>  <SCORE.SYSTEM.CONST>
0

>  <SCORE.SYSTEM.DIHEDRAL>
0

>  <SCORE.SYSTEM.SOLV>
0

>  <SCORE.SYSTEM.norm>
0

>  <SCORE.heavy>
37

>  <SCORE.norm>
0.749012

>  <RMSD>
20.129

$$$$
2oe5_lig
 OpenBabel11021811463D
libRbt.so/2013.1/901 2013/11/27
 37 40  0  0  0  0  0  0  0  0999 V2000
   14.2940   -1.1472   34.1544 C   0  0  1  0  0  0  0  0  0  0  0  0
   14.2117   -0.4727   32.7667 C   0  0  1  0  0  0  0  0  0  0  0  0
   13.9902    1.0743   32.9535 C   0  0  0  0  0  0  0  0  0  0  0  0
   12.6706    1.2045   33.7468 C   0  0  1  0  0  0  0  0  0  0  0  0
   12.7719    0.4999   35.1715 C   0  0  1  0  0  0  0  0  0  0  0  0
   11.4573    0.6257   35.9889 C   0  0  1  0  0  0  0  0  0  0  0  0
   11.1794    2.1457   36.1648 C   0  0  1  0  0  0  0  0  0  0  0  0
   11.1316    2.8101   34.7367 C   0  0  2  0  0  0  0  0  0  0  0  0
    9.5450    1.5256   38.1159 C   0  0  0  0  0  0  0  0  0  0  0  0
   15.4676   -0.7038   32.0166 N   0  0  0  0  0  0  0  0  0  0  0  0
    9.8824    2.3605   36.9106 N   0  0  0  0  0  0  0  0  0  0  0  0
   15.4181   -0.6759   34.9154 O   0  0  0  0  0  0  0  0  0  0  0  0
   13.0846   -0.9147   34.9581 O   0  0  0  0  0  0  0  0  0  0  0  0
   12.3759    2.6097   33.9689 O   0  0  0  0  0  0  0  0  0  0  0  0
   10.4160   -0.0225   35.2515 O   0  0  0  0  0  0  0  0  0  0  0  0
   10.9432    4.2061   34.8591 O   0  0  0  0  0  0  0  0  0  0  0  0
   12.1231    4.8175   35.3458 C   0  0  2  0  0  0  0  0  0  0  0  0
   11.9158    6.2937   35.6825 C   0  0  1  0  0  0  0  0  0  0  0  0
   11.5680    7.1157   34.4111 C   0  0  2  0  0  0  0  0  0  0  0  0
   12.7246    6.9096   33.3885 C   0  0  1  0  0  0  0  0  0  0  0  0
   12.8293    5.3814   33.0723 C   0  0  1  0  0  0  0  0  0  0  0  0
   13.9609    5.0559   32.1231 C   0  0  0  0  0  0  0  0  0  0  0  0
   12.3971    7.7082   32.1480 N   0  0  0  0  0  0  0  0  0  0  0  0
   13.1591    4.6863   34.3223 O   0  0  0  0  0  0  0  0  0  0  0  0
   10.8509    6.3718   36.6508 O   0  0  0  0  0  0  0  0  0  0  0  0
   11.4955    8.5039   34.7835 O   0  0  0  0  0  0  0  0  0  0  0  0
   13.7855    3.8258   31.5077 O   0  0  0  0  0  0  0  0  0  0  0  0
   15.7472   -1.4926   36.0394 C   0  0  1  0  0  0  0  0  0  0  0  0
   14.4794   -1.6892   36.9455 C   0  0  1  0  0  0  0  0  0  0  0  0
   14.8627   -2.6008   38.1664 C   0  0  2  0  0  0  0  0  0  0  0  0
   15.3385   -3.9672   37.6505 C   0  0  1  0  0  0  0  0  0  0  0  0
   16.6201   -3.7696   36.7524 C   0  0  0  0  0  0  0  0  0  0  0  0
   16.2415   -2.8407   35.5324 C   0  0  2  0  0  0  0  0  0  0  0  0
   15.6718   -4.8067   38.7895 N   0  0  0  0  0  0  0  0  0  0  0  0
   17.4312   -2.6112   34.6710 N   0  0  0  0  0  0  0  0  0  0  0  0
   14.0242   -0.3957   37.4366 O   0  0  0  0  0  0  0  0  0  0  0  0
   13.7282   -2.7941   38.9689 O   0  0  0  0  0  0  0  0  0  0  0  0
  1  2  1  0  0  0  0
  1 12  1  1  0  0  0
  1 13  1  0  0  0  0
  2  3  1  0  0  0  0
  2 10  1  1  0  0  0
  4  3  1  1  0  0  0
  4  5  1  0  0  0  0
  4 14  1  0  0  0  0
  5  6  1  0  0  0  0
  5 13  1  6  0  0  0
  6  7  1  0  0  0  0
  6 15  1  6  0  0  0
  7  8  1  0  0  0  0
  7 11  1  6  0  0  0
  8 14  1  0  0  0  0
  8 16  1  1  0  0  0
  9 11  1  0  0  0  0
 17 16  1  6  0  0  0
 17 18  1  0  0  0  0
 17 24  1  0  0  0  0
 18 19  1  0  0  0  0
 18 25  1  1  0  0  0
 19 20  1  0  0  0  0
 19 26  1  1  0  0  0
 20 21  1  0  0  0  0
 20 23  1  6  0  0  0
 21 22  1  6  0  0  0
 21 24  1  0  0  0  0
 22 27  1  0  0  0  0
 28 12  1  6  0  0  0
 28 29  1  0  0  0  0
 28 33  1  0  0  0  0
 29 30  1  0  0  0  0
 29 36  1  1  0  0  0
 30 31  1  0  0  0  0
 30 37  1  1  0  0  0
 31 32  1  0  0  0  0
 31 34  1  1  0  0  0
 32 33  1  0  0  0  0
 33 35  1  6  0  0  0
M  END
>  <CHROM.1>
-164.62240359,43.14534676,71.98957835,-171.98743479,-159.94066351,-53.86179145
13.20560472,1.51941525,35.17053414,-1.06100026,0.79787624,-0.65478701

>  <Name>
2oe5_lig

>  <RI>
0

>  <Rbt.Current_Directory>
/home/afrankz/demos/rdock_decoys_rna/rnas/2oe5

>  <Rbt.Executable>
rbdock ($Id: //depot/dev/client3/rdock/2013.1/src/exe/rbdock.cxx#4 $)

>  <Rbt.Library>
libRbt.so (2013.1, Build901 2013/11/27)

>  <Rbt.Parameter_File>
/export/apps/rDock/src/rDock_2013.1_src/data/scripts/dock_solv.prm

>  <Rbt.Receptor>
prm/blind_docking_40.prm

>  <SCORE>
28.8554

>  <SCORE.INTER>
6.95491

>  <SCORE.INTER.CONST>
1

>  <SCORE.INTER.POLAR>
0

>  <SCORE.INTER.ROT>
6

>  <SCORE.INTER.SOLV>
17.6876

>  <SCORE.INTER.VDW>
-8.85926

>  <SCORE.INTER.norm>
0.18797

>  <SCORE.INTRA>
1.29986

>  <SCORE.INTRA.DIHEDRAL>
-12.3209

>  <SCORE.INTRA.DIHEDRAL.0>
16.2083

>  <SCORE.INTRA.POLAR>
0

>  <SCORE.INTRA.POLAR.0>
0

>  <SCORE.INTRA.REPUL>
0

>  <SCORE.INTRA.REPUL.0>
0

>  <SCORE.INTRA.SOLV>
0.00793739

>  <SCORE.INTRA.SOLV.lig_0>
-89.8095

>  <SCORE.INTRA.VDW>
7.45635

>  <SCORE.INTRA.VDW.0>
-3.19502

>  <SCORE.INTRA.norm>
0.0351314

>  <SCORE.RESTR>
20.6006

>  <SCORE.RESTR.CAVITY>
20.6006

>  <SCORE.RESTR.norm>
0.556773

>  <SCORE.SYSTEM>
0

>  <SCORE.SYSTEM.CONST>
0

>  <SCORE.SYSTEM.DIHEDRAL>
0

>  <SCORE.SYSTEM.SOLV>
0

>  <SCORE.SYSTEM.norm>
0

>  <SCORE.heavy>
37

>  <SCORE.norm>
0.779875

>  <RMSD>
20.149

$$$$
2oe5_lig
 OpenBabel11021811463D
libRbt.so/2013.1/901 2013/11/27
 37 40  0  0  0  0  0  0  0  0999 V2000
    8.7083   -1.3513   35.6968 C   0  0  1  0  0  0  0  0  0  0  0  0
    8.4947   -1.1699   34.1773 C   0  0  1  0  0  0  0  0  0  0  0  0
    9.7235   -0.3975   33.5686 C   0  0  0  0  0  0  0  0  0  0  0  0
    9.7689    0.9526   34.3186 C   0  0  1  0  0  0  0  0  0  0  0  0
    9.9846    0.7465   35.8830 C   0  0  1  0  0  0  0  0  0  0  0  0
   10.0405    2.0928   36.6554 C   0  0  1  0  0  0  0  0  0  0  0  0
   11.2228    2.9070   36.0572 C   0  0  1  0  0  0  0  0  0  0  0  0
   10.9928    3.0488   34.5048 C   0  0  2  0  0  0  0  0  0  0  0  0
   10.5309    5.4300   36.1927 C   0  0  0  0  0  0  0  0  0  0  0  0
    8.3702   -2.4924   33.5224 N   0  0  0  0  0  0  0  0  0  0  0  0
   11.3179    4.2616   36.7211 N   0  0  0  0  0  0  0  0  0  0  0  0
    9.8633   -2.1561   35.9850 O   0  0  0  0  0  0  0  0  0  0  0  0
    8.8777   -0.0663   36.3916 O   0  0  0  0  0  0  0  0  0  0  0  0
   10.8792    1.7462   33.8204 O   0  0  0  0  0  0  0  0  0  0  0  0
    8.7883    2.7603   36.4690 O   0  0  0  0  0  0  0  0  0  0  0  0
   12.0820    3.7307   33.9150 O   0  0  0  0  0  0  0  0  0  0  0  0
   13.3019    3.2724   34.4671 C   0  0  2  0  0  0  0  0  0  0  0  0
   14.2367    4.4214   34.8436 C   0  0  1  0  0  0  0  0  0  0  0  0
   14.6748    5.2229   33.5872 C   0  0  2  0  0  0  0  0  0  0  0  0
   15.3511    4.2216   32.6044 C   0  0  1  0  0  0  0  0  0  0  0  0
   14.3079    3.1138   32.2427 C   0  0  1  0  0  0  0  0  0  0  0  0
   14.8753    2.0511   31.3283 C   0  0  0  0  0  0  0  0  0  0  0  0
   15.7840    4.9926   31.3788 N   0  0  0  0  0  0  0  0  0  0  0  0
   13.9525    2.4108   33.4812 O   0  0  0  0  0  0  0  0  0  0  0  0
   13.5302    5.2684   35.7717 O   0  0  0  0  0  0  0  0  0  0  0  0
   15.6333    6.2131   34.0018 O   0  0  0  0  0  0  0  0  0  0  0  0
   15.0000    2.5013   30.0228 O   0  0  0  0  0  0  0  0  0  0  0  0
   10.5114   -1.8297   37.2146 C   0  0  1  0  0  0  0  0  0  0  0  0
    9.8377   -2.6135   38.3973 C   0  0  1  0  0  0  0  0  0  0  0  0
   10.5755   -2.2486   39.7356 C   0  0  2  0  0  0  0  0  0  0  0  0
   12.0528   -2.6561   39.6286 C   0  0  1  0  0  0  0  0  0  0  0  0
   12.7314   -1.8575   38.4497 C   0  0  0  0  0  0  0  0  0  0  0  0
   11.9816   -2.2107   37.1053 C   0  0  2  0  0  0  0  0  0  0  0  0
   12.7192   -2.3307   40.8788 N   0  0  0  0  0  0  0  0  0  0  0  0
   12.5784   -1.4594   35.9698 N   0  0  0  0  0  0  0  0  0  0  0  0
    8.4363   -2.2306   38.5021 O   0  0  0  0  0  0  0  0  0  0  0  0
    9.9887   -2.9609   40.7923 O   0  0  0  0  0  0  0  0  0  0  0  0
  1  2  1  0  0  0  0
  1 12  1  6  0  0  0
  1 13  1  0  0  0  0
  2  3  1  0  0  0  0
  2 10  1  6  0  0  0
  4  3  1  6  0  0  0
  4  5  1  0  0  0  0
  4 14  1  0  0  0  0
  5  6  1  0  0  0  0
  5 13  1  1  0  0  0
  6  7  1  0  0  0  0
  6 15  1  6  0  0  0
  7  8  1  0  0  0  0
  7 11  1  1  0  0  0
  8 14  1  0  0  0  0
  8 16  1  6  0  0  0
  9 11  1  0  0  0  0
 17 16  1  6  0  0  0
 17 18  1  0  0  0  0
 17 24  1  0  0  0  0
 18 19  1  0  0  0  0
 18 25  1  1  0  0  0
 19 20  1  0  0  0  0
 19 26  1  1  0  0  0
 20 21  1  0  0  0  0
 20 23  1  6  0  0  0
 21 22  1  6  0  0  0
 21 24  1  0  0  0  0
 22 27  1  0  0  0  0
 28 12  1  6  0  0  0
 28 29  1  0  0  0  0
 28 33  1  0  0  0  0
 29 30  1  0  0  0  0
 29 36  1  1  0  0  0
 30 31  1  0  0  0  0
 30 37  1  1  0  0  0
 31 32  1  0  0  0  0
 31 34  1  1  0  0  0
 32 33  1  0  0  0  0
 33 35  1  6  0  0  0
M  END
>  <CHROM.1>
149.58757058,-87.64385504,41.81943313,-133.70433486,-75.27073281,86.43526707
11.66495758,1.14998187,35.51019672,2.37220278,0.88184513,1.79714741

>  <Name>
2oe5_lig

>  <RI>
0

>  <Rbt.Current_Directory>
/home/afrankz/demos/rdock_decoys_rna/rnas/2oe5

>  <Rbt.Executable>
rbdock ($Id: //depot/dev/client3/rdock/2013.1/src/exe/rbdock.cxx#4 $)

>  <Rbt.Library>
libRbt.so (2013.1, Build901 2013/11/27)

>  <Rbt.Parameter_File>
/export/apps/rDock/src/rDock_2013.1_src/data/scripts/dock_solv.prm

>  <Rbt.Receptor>
prm/blind_docking_40.prm

>  <SCORE>
31.6734

>  <SCORE.INTER>
3.00948

>  <SCORE.INTER.CONST>
1

>  <SCORE.INTER.POLAR>
0

>  <SCORE.INTER.ROT>
6

>  <SCORE.INTER.SOLV>
15.3527

>  <SCORE.INTER.VDW>
-10.7113

>  <SCORE.INTER.norm>
0.0813372

>  <SCORE.INTRA>
5.6383

>  <SCORE.INTRA.DIHEDRAL>
-0.412464

>  <SCORE.INTRA.DIHEDRAL.0>
16.2083

>  <SCORE.INTRA.POLAR>
0

>  <SCORE.INTRA.POLAR.0>
0

>  <SCORE.INTRA.REPUL>
0

>  <SCORE.INTRA.REPUL.0>
0

>  <SCORE.INTRA.SOLV>
1.38818

>  <SCORE.INTRA.SOLV.lig_0>
-89.8095

>  <SCORE.INTRA.VDW>
5.15045

>  <SCORE.INTRA.VDW.0>
-3.19502

>  <SCORE.INTRA.norm>
0.152387

>  <SCORE.RESTR>
23.0257

>  <SCORE.RESTR.CAVITY>
23.0257

>  <SCORE.RESTR.norm>
0.622315

>  <SCORE.SYSTEM>
0

>  <SCORE.SYSTEM.CONST>
0

>  <SCORE.SYSTEM.DIHEDRAL>
0

>  <SCORE.SYSTEM.SOLV>
0

>  <SCORE.SYSTEM.norm>
0

>  <SCORE.heavy>
37

>  <SCORE.norm>
0.856039

>  <RMSD>
20.180

$$$$
2oe5_lig
 OpenBabel11021811463D
libRbt.so/2013.1/901 2013/11/27
 37 40  0  0  0  0  0  0  0  0999 V2000
   11.9265    4.5596   33.1130 C   0  0  1  0  0  0  0  0  0  0  0  0
   10.5707    4.0063   32.6201 C   0  0  1  0  0  0  0  0  0  0  0  0
   10.0586    2.9120   33.6288 C   0  0  0  0  0  0  0  0  0  0  0  0
   11.1602    1.8288   33.6494 C   0  0  1  0  0  0  0  0  0  0  0  0
   12.5510    2.4175   34.1549 C   0  0  1  0  0  0  0  0  0  0  0  0
   13.6712    1.3423   34.1901 C   0  0  1  0  0  0  0  0  0  0  0  0
   13.1877    0.2186   35.1504 C   0  0  1  0  0  0  0  0  0  0  0  0
   11.7911   -0.3035   34.6402 C   0  0  2  0  0  0  0  0  0  0  0  0
   14.7247   -1.5217   33.9373 C   0  0  0  0  0  0  0  0  0  0  0  0
    9.5777    5.1019   32.5354 N   0  0  0  0  0  0  0  0  0  0  0  0
   14.2024   -0.9003   35.2042 N   0  0  0  0  0  0  0  0  0  0  0  0
   11.8079    5.2185   34.3845 O   0  0  0  0  0  0  0  0  0  0  0  0
   12.9401    3.5034   33.2528 O   0  0  0  0  0  0  0  0  0  0  0  0
   10.7748    0.7634   34.5588 O   0  0  0  0  0  0  0  0  0  0  0  0
   13.8585    0.8571   32.8568 O   0  0  0  0  0  0  0  0  0  0  0  0
   11.2889   -1.2846   35.5259 O   0  0  0  0  0  0  0  0  0  0  0  0
   11.6094   -0.9462   36.8622 C   0  0  2  0  0  0  0  0  0  0  0  0
   10.9794   -1.9057   37.8711 C   0  0  1  0  0  0  0  0  0  0  0  0
    9.4286   -1.8257   37.8288 C   0  0  2  0  0  0  0  0  0  0  0  0
    9.0277   -0.3462   38.1049 C   0  0  1  0  0  0  0  0  0  0  0  0
    9.6783    0.5495   37.0001 C   0  0  1  0  0  0  0  0  0  0  0  0
    9.3970    2.0222   37.1993 C   0  0  0  0  0  0  0  0  0  0  0  0
    7.5194   -0.2581   38.0687 N   0  0  0  0  0  0  0  0  0  0  0  0
   11.1355    0.4140   37.1135 O   0  0  0  0  0  0  0  0  0  0  0  0
   11.4334   -3.2348   37.5469 O   0  0  0  0  0  0  0  0  0  0  0  0
    8.9099   -2.6688   38.8733 O   0  0  0  0  0  0  0  0  0  0  0  0
   10.5583    2.7797   37.1853 O   0  0  0  0  0  0  0  0  0  0  0  0
   12.7683    6.2532   34.5987 C   0  0  1  0  0  0  0  0  0  0  0  0
   12.0914    7.4660   35.3320 C   0  0  1  0  0  0  0  0  0  0  0  0
   13.1694    8.5843   35.5680 C   0  0  2  0  0  0  0  0  0  0  0  0
   14.2994    8.0236   36.4446 C   0  0  1  0  0  0  0  0  0  0  0  0
   14.9875    6.8149   35.7005 C   0  0  0  0  0  0  0  0  0  0  0  0
   13.9023    5.6955   35.4482 C   0  0  2  0  0  0  0  0  0  0  0  0
   15.2799    9.0727   36.6709 N   0  0  0  0  0  0  0  0  0  0  0  0
   14.5072    4.5447   34.7272 N   0  0  0  0  0  0  0  0  0  0  0  0
   11.0185    8.0006   34.5046 O   0  0  0  0  0  0  0  0  0  0  0  0
   12.5731    9.6622   36.2395 O   0  0  0  0  0  0  0  0  0  0  0  0
  1  2  1  0  0  0  0
  1 12  1  1  0  0  0
  1 13  1  0  0  0  0
  2  3  1  0  0  0  0
  2 10  1  1  0  0  0
  4  3  1  1  0  0  0
  4  5  1  0  0  0  0
  4 14  1  0  0  0  0
  5  6  1  0  0  0  0
  5 13  1  6  0  0  0
  6  7  1  0  0  0  0
  6 15  1  6  0  0  0
  7  8  1  0  0  0  0
  7 11  1  6  0  0  0
  8 14  1  0  0  0  0
  8 16  1  1  0  0  0
  9 11  1  0  0  0  0
 17 16  1  6  0  0  0
 17 18  1  0  0  0  0
 17 24  1  0  0  0  0
 18 19  1  0  0  0  0
 18 25  1  6  0  0  0
 19 20  1  0  0  0  0
 19 26  1  1  0  0  0
 20 21  1  0  0  0  0
 20 23  1  6  0  0  0
 21 22  1  1  0  0  0
 21 24  1  0  0  0  0
 22 27  1  0  0  0  0
 28 12  1  1  0  0  0
 28 29  1  0  0  0  0
 28 33  1  0  0  0  0
 29 30  1  0  0  0  0
 29 36  1  6  0  0  0
 30 31  1  0  0  0  0
 30 37  1  1  0  0  0
 31 32  1  0  0  0  0
 31 34  1  6  0  0  0
 32 33  1  0  0  0  0
 33 35  1  6  0  0  0
M  END
>  <CHROM.1>
-151.61547198,-51.12324239,37.08524334,174.72273561,127.74924823,140.65857482
11.83727323,2.60446558,35.47224536,-1.22903124,-0.67763901,-3.11941833

>  <Name>
2oe5_lig

>  <RI>
0

>  <Rbt.Current_Directory>
/home/afrankz/demos/rdock_decoys_rna/rnas/2oe5

>  <Rbt.Executable>
rbdock ($Id: //depot/dev/client3/rdock/2013.1/src/exe/rbdock.cxx#4 $)

>  <Rbt.Library>
libRbt.so (2013.1, Build901 2013/11/27)

>  <Rbt.Parameter_File>
/export/apps/rDock/src/rDock_2013.1_src/data/scripts/dock_solv.prm

>  <Rbt.Receptor>
prm/blind_docking_40.prm

>  <SCORE>
26.8697

>  <SCORE.INTER>
2.39802

>  <SCORE.INTER.CONST>
1

>  <SCORE.INTER.POLAR>
0

>  <SCORE.INTER.ROT>
6

>  <SCORE.INTER.SOLV>
10.3021

>  <SCORE.INTER.VDW>
-9.43536

>  <SCORE.INTER.norm>
0.0648113

>  <SCORE.INTRA>
9.28403

>  <SCORE.INTRA.DIHEDRAL>
-0.0519194

>  <SCORE.INTRA.DIHEDRAL.0>
16.2083

>  <SCORE.INTRA.POLAR>
0

>  <SCORE.INTRA.POLAR.0>
0

>  <SCORE.INTRA.REPUL>
0.144125

>  <SCORE.INTRA.REPUL.0>
0

>  <SCORE.INTRA.SOLV>
2.54501

>  <SCORE.INTRA.SOLV.lig_0>
-89.8095

>  <SCORE.INTRA.VDW>
7.31686

>  <SCORE.INTRA.VDW.0>
-3.19502

>  <SCORE.INTRA.norm>
0.25092

>  <SCORE.RESTR>
15.1877

>  <SCORE.RESTR.CAVITY>
15.1877

>  <SCORE.RESTR.norm>
0.410477

>  <SCORE.SYSTEM>
0

>  <SCORE.SYSTEM.CONST>
0

>  <SCORE.SYSTEM.DIHEDRAL>
0

>  <SCORE.SYSTEM.SOLV>
0

>  <SCORE.SYSTEM.norm>
0

>  <SCORE.heavy>
37

>  <SCORE.norm>
0.726208

>  <RMSD>
20.233

$$$$
2oe5_lig
 OpenBabel11021811463D
libRbt.so/2013.1/901 2013/11/27
 37 40  0  0  0  0  0  0  0  0999 V2000
   13.0394    4.3110   33.0294 C   0  0  1  0  0  0  0  0  0  0  0  0
   11.5175    4.1779   32.7983 C   0  0  1  0  0  0  0  0  0  0  0  0
   10.9070    3.2271   33.8940 C   0  0  0  0  0  0  0  0  0  0  0  0
   11.6451    1.8805   33.7227 C   0  0  1  0  0  0  0  0  0  0  0  0
   13.2121    2.0374   33.9594 C   0  0  1  0  0  0  0  0  0  0  0  0
   13.9726    0.6927   33.7990 C   0  0  1  0  0  0  0  0  0  0  0  0
   13.3721   -0.2921   34.8422 C   0  0  1  0  0  0  0  0  0  0  0  0
   11.8175   -0.3833   34.6012 C   0  0  2  0  0  0  0  0  0  0  0  0
   15.5178   -1.7950   34.8289 C   0  0  0  0  0  0  0  0  0  0  0  0
   10.8740    5.5089   32.8866 N   0  0  0  0  0  0  0  0  0  0  0  0
   14.0241   -1.6502   34.7197 N   0  0  0  0  0  0  0  0  0  0  0  0
   13.3396    4.9221   34.2948 O   0  0  0  0  0  0  0  0  0  0  0  0
   13.7234    3.0097   32.9911 O   0  0  0  0  0  0  0  0  0  0  0  0
   11.1444    0.9265   34.6973 O   0  0  0  0  0  0  0  0  0  0  0  0
   13.7751    0.2317   32.4586 O   0  0  0  0  0  0  0  0  0  0  0  0
   11.2261   -1.2229   35.5731 O   0  0  0  0  0  0  0  0  0  0  0  0
   11.7171   -0.9007   36.8608 C   0  0  2  0  0  0  0  0  0  0  0  0
   11.1080   -1.7811   37.9514 C   0  0  1  0  0  0  0  0  0  0  0  0
    9.5764   -1.5500   38.0687 C   0  0  2  0  0  0  0  0  0  0  0  0
    9.3510   -0.0350   38.3512 C   0  0  1  0  0  0  0  0  0  0  0  0
    9.9643    0.7787   37.1646 C   0  0  1  0  0  0  0  0  0  0  0  0
    9.8485    2.2742   37.3583 C   0  0  0  0  0  0  0  0  0  0  0  0
    7.8628    0.2001   38.4701 N   0  0  0  0  0  0  0  0  0  0  0  0
   11.4054    0.5024   37.1289 O   0  0  0  0  0  0  0  0  0  0  0  0
   11.3952   -3.1523   37.6122 O   0  0  0  0  0  0  0  0  0  0  0  0
    9.0923   -2.3249   39.1806 O   0  0  0  0  0  0  0  0  0  0  0  0
    8.5269    2.6902   37.4145 O   0  0  0  0  0  0  0  0  0  0  0  0
   12.7713    6.2206   34.4665 C   0  0  1  0  0  0  0  0  0  0  0  0
   11.9892    6.2852   35.8271 C   0  0  1  0  0  0  0  0  0  0  0  0
   11.3853    7.7253   35.9994 C   0  0  2  0  0  0  0  0  0  0  0  0
   12.5248    8.7554   36.0159 C   0  0  1  0  0  0  0  0  0  0  0  0
   13.3003    8.6993   34.6434 C   0  0  0  0  0  0  0  0  0  0  0  0
   13.8954    7.2478   34.4604 C   0  0  2  0  0  0  0  0  0  0  0  0
   11.9546   10.0805   36.1946 N   0  0  0  0  0  0  0  0  0  0  0  0
   14.6173    7.1466   33.1649 N   0  0  0  0  0  0  0  0  0  0  0  0
   10.9079    5.3094   35.8162 O   0  0  0  0  0  0  0  0  0  0  0  0
   10.7012    7.7929   37.2225 O   0  0  0  0  0  0  0  0  0  0  0  0
  1  2  1  0  0  0  0
  1 12  1  1  0  0  0
  1 13  1  0  0  0  0
  2  3  1  0  0  0  0
  2 10  1  1  0  0  0
  4  3  1  1  0  0  0
  4  5  1  0  0  0  0
  4 14  1  0  0  0  0
  5  6  1  0  0  0  0
  5 13  1  6  0  0  0
  6  7  1  0  0  0  0
  6 15  1  6  0  0  0
  7  8  1  0  0  0  0
  7 11  1  6  0  0  0
  8 14  1  0  0  0  0
  8 16  1  1  0  0  0
  9 11  1  0  0  0  0
 17 16  1  6  0  0  0
 17 18  1  0  0  0  0
 17 24  1  0  0  0  0
 18 19  1  0  0  0  0
 18 25  1  6  0  0  0
 19 20  1  0  0  0  0
 19 26  1  1  0  0  0
 20 21  1  0  0  0  0
 20 23  1  6  0  0  0
 21 22  1  1  0  0  0
 21 24  1  0  0  0  0
 22 27  1  0  0  0  0
 28 12  1  1  0  0  0
 28 29  1  0  0  0  0
 28 33  1  0  0  0  0
 29 30  1  0  0  0  0
 29 36  1  6  0  0  0
 30 31  1  0  0  0  0
 30 37  1  1  0  0  0
 31 32  1  0  0  0  0
 31 34  1  6  0  0  0
 32 33  1  0  0  0  0
 33 35  1  6  0  0  0
M  END
>  <CHROM.1>
-57.95632738,56.03950917,46.01573408,179.98613014,-62.58800359,128.75983204
11.79639724,2.58809933,35.48887980,-1.34817341,-0.79669467,3.07360409

>  <Name>
2oe5_lig

>  <RI>
0

>  <Rbt.Current_Directory>
/home/afrankz/demos/rdock_decoys_rna/rnas/2oe5

>  <Rbt.Executable>
rbdock ($Id: //depot/dev/client3/rdock/2013.1/src/exe/rbdock.cxx#4 $)

>  <Rbt.Library>
libRbt.so (2013.1, Build901 2013/11/27)

>  <Rbt.Parameter_File>
/export/apps/rDock/src/rDock_2013.1_src/data/scripts/dock_solv.prm

>  <Rbt.Receptor>
prm/blind_docking_40.prm

>  <SCORE>
24.1861

>  <SCORE.INTER>
6.47757

>  <SCORE.INTER.CONST>
1

>  <SCORE.INTER.POLAR>
0

>  <SCORE.INTER.ROT>
6

>  <SCORE.INTER.SOLV>
7.22838

>  <SCORE.INTER.VDW>
-5.69108

>  <SCORE.INTER.norm>
0.175069

>  <SCORE.INTRA>
2.55281

>  <SCORE.INTRA.DIHEDRAL>
-8.30997

>  <SCORE.INTRA.DIHEDRAL.0>
16.2083

>  <SCORE.INTRA.POLAR>
0

>  <SCORE.INTRA.POLAR.0>
0

>  <SCORE.INTRA.REPUL>
0

>  <SCORE.INTRA.REPUL.0>
0

>  <SCORE.INTRA.SOLV>
3.69318

>  <SCORE.INTRA.SOLV.lig_0>
-89.8095

>  <SCORE.INTRA.VDW>
4.86121

>  <SCORE.INTRA.VDW.0>
-3.19502

>  <SCORE.INTRA.norm>
0.0689949

>  <SCORE.RESTR>
15.1557

>  <SCORE.RESTR.CAVITY>
15.1557

>  <SCORE.RESTR.norm>
0.409613

>  <SCORE.SYSTEM>
0

>  <SCORE.SYSTEM.CONST>
0

>  <SCORE.SYSTEM.DIHEDRAL>
0

>  <SCORE.SYSTEM.SOLV>
0

>  <SCORE.SYSTEM.norm>
0

>  <SCORE.heavy>
37

>  <SCORE.norm>
0.653677

>  <RMSD>
20.323

$$$$
2oe5_lig
 OpenBabel11021811463D
libRbt.so/2013.1/901 2013/11/27
 37 40  0  0  0  0  0  0  0  0999 V2000
   14.5794   -1.6591   33.6087 C   0  0  1  0  0  0  0  0  0  0  0  0
   15.1781   -0.6659   32.5877 C   0  0  1  0  0  0  0  0  0  0  0  0
   14.9320    0.8056   33.0888 C   0  0  0  0  0  0  0  0  0  0  0  0
   13.3978    0.9442   33.2098 C   0  0  1  0  0  0  0  0  0  0  0  0
   12.7976   -0.0897   34.2620 C   0  0  1  0  0  0  0  0  0  0  0  0
   11.2563    0.0379   34.4042 C   0  0  1  0  0  0  0  0  0  0  0  0
   10.9650    1.4950   34.8633 C   0  0  1  0  0  0  0  0  0  0  0  0
   11.6130    2.4829   33.8206 C   0  0  2  0  0  0  0  0  0  0  0  0
    8.6969    1.1342   36.1235 C   0  0  0  0  0  0  0  0  0  0  0  0
   16.6334   -0.9016   32.4461 N   0  0  0  0  0  0  0  0  0  0  0  0
    9.4752    1.7225   34.9781 N   0  0  0  0  0  0  0  0  0  0  0  0
   15.2221   -1.5653   34.8904 O   0  0  0  0  0  0  0  0  0  0  0  0
   13.1398   -1.4421   33.8167 O   0  0  0  0  0  0  0  0  0  0  0  0
   13.0671    2.2827   33.6677 O   0  0  0  0  0  0  0  0  0  0  0  0
   10.6711   -0.2439   33.1290 O   0  0  0  0  0  0  0  0  0  0  0  0
   11.4228    3.8201   34.2389 O   0  0  0  0  0  0  0  0  0  0  0  0
   11.7624    3.9574   35.6059 C   0  0  2  0  0  0  0  0  0  0  0  0
   10.9971    5.0938   36.2830 C   0  0  1  0  0  0  0  0  0  0  0  0
   11.3733    6.4690   35.6664 C   0  0  2  0  0  0  0  0  0  0  0  0
   12.9148    6.6407   35.8084 C   0  0  1  0  0  0  0  0  0  0  0  0
   13.6086    5.4628   35.0486 C   0  0  1  0  0  0  0  0  0  0  0  0
   15.1162    5.4988   35.1638 C   0  0  0  0  0  0  0  0  0  0  0  0
   13.2910    7.9781   35.2136 N   0  0  0  0  0  0  0  0  0  0  0  0
   13.1998    4.2098   35.6947 O   0  0  0  0  0  0  0  0  0  0  0  0
    9.5901    4.8262   36.1199 O   0  0  0  0  0  0  0  0  0  0  0  0
   10.7024    7.4946   36.4209 O   0  0  0  0  0  0  0  0  0  0  0  0
   15.7073    4.3775   34.6018 O   0  0  0  0  0  0  0  0  0  0  0  0
   14.5121   -2.2085   35.9491 C   0  0  1  0  0  0  0  0  0  0  0  0
   13.3196   -1.3013   36.4201 C   0  0  1  0  0  0  0  0  0  0  0  0
   12.5467   -2.0352   37.5745 C   0  0  2  0  0  0  0  0  0  0  0  0
   11.9966   -3.3698   37.0491 C   0  0  1  0  0  0  0  0  0  0  0  0
   13.1963   -4.2852   36.5898 C   0  0  0  0  0  0  0  0  0  0  0  0
   13.9843   -3.5430   35.4398 C   0  0  2  0  0  0  0  0  0  0  0  0
   11.2684   -4.0295   38.1203 N   0  0  0  0  0  0  0  0  0  0  0  0
   15.1394   -4.3653   34.9930 N   0  0  0  0  0  0  0  0  0  0  0  0
   13.8365   -0.0341   36.9186 O   0  0  0  0  0  0  0  0  0  0  0  0
   11.4692   -1.2363   37.9857 O   0  0  0  0  0  0  0  0  0  0  0  0
  1  2  1  0  0  0  0
  1 12  1  1  0  0  0
  1 13  1  0  0  0  0
  2  3  1  0  0  0  0
  2 10  1  1  0  0  0
  4  3  1  1  0  0  0
  4  5  1  0  0  0  0
  4 14  1  0  0  0  0
  5  6  1  0  0  0  0
  5 13  1  6  0  0  0
  6  7  1  0  0  0  0
  6 15  1  6  0  0  0
  7  8  1  0  0  0  0
  7 11  1  6  0  0  0
  8 14  1  0  0  0  0
  8 16  1  1  0  0  0
  9 11  1  0  0  0  0
 17 16  1  6  0  0  0
 17 18  1  0  0  0  0
 17 24  1  0  0  0  0
 18 19  1  0  0  0  0
 18 25  1  6  0  0  0
 19 20  1  0  0  0  0
 19 26  1  1  0  0  0
 20 21  1  0  0  0  0
 20 23  1  6  0  0  0
 21 22  1  1  0  0  0
 21 24  1  0  0  0  0
 22 27  1  0  0  0  0
 28 12  1  6  0  0  0
 28 29  1  0  0  0  0
 28 33  1  0  0  0  0
 29 30  1  0  0  0  0
 29 36  1  1  0  0  0
 30 31  1  0  0  0  0
 30 37  1  6  0  0  0
 31 32  1  0  0  0  0
 31 34  1  1  0  0  0
 32 33  1  0  0  0  0
 33 35  1  1  0  0  0
M  END
>  <CHROM.1>
165.47766536,74.04314723,47.34002846,-152.56606546,173.90093584,-78.33377626
12.75586034,1.22303307,35.18840912,-1.37548594,0.51263899,-0.11047945

>  <Name>
2oe5_lig

>  <RI>
0

>  <Rbt.Current_Directory>
/home/afrankz/demos/rdock_decoys_rna/rnas/2oe5

>  <Rbt.Executable>
rbdock ($Id: //depot/dev/client3/rdock/2013.1/src/exe/rbdock.cxx#4 $)

>  <Rbt.Library>
libRbt.so (2013.1, Build901 2013/11/27)

>  <Rbt.Parameter_File>
/export/apps/rDock/src/rDock_2013.1_src/data/scripts/dock_solv.prm

>  <Rbt.Receptor>
prm/blind_docking_40.prm

>  <SCORE>
38.5031

>  <SCORE.INTER>
20.106

>  <SCORE.INTER.CONST>
1

>  <SCORE.INTER.POLAR>
0

>  <SCORE.INTER.ROT>
6

>  <SCORE.INTER.SOLV>
20.8271

>  <SCORE.INTER.VDW>
-1.13835

>  <SCORE.INTER.norm>
0.543406

>  <SCORE.INTRA>
5.43851

>  <SCORE.INTRA.DIHEDRAL>
-9.43472

>  <SCORE.INTRA.DIHEDRAL.0>
16.2083

>  <SCORE.INTRA.POLAR>
0

>  <SCORE.INTRA.POLAR.0>
0

>  <SCORE.INTRA.REPUL>
0

>  <SCORE.INTRA.REPUL.0>
0

>  <SCORE.INTRA.SOLV>
0.228699

>  <SCORE.INTRA.SOLV.lig_0>
-89.8095

>  <SCORE.INTRA.VDW>
10.0415

>  <SCORE.INTRA.VDW.0>
-3.19502

>  <SCORE.INTRA.norm>
0.146987

>  <SCORE.RESTR>
12.9586

>  <SCORE.RESTR.CAVITY>
12.9586

>  <SCORE.RESTR.norm>
0.350233

>  <SCORE.SYSTEM>
0

>  <SCORE.SYSTEM.CONST>
0

>  <SCORE.SYSTEM.DIHEDRAL>
0

>  <SCORE.SYSTEM.SOLV>
0

>  <SCORE.SYSTEM.norm>
0

>  <SCORE.heavy>
37

>  <SCORE.norm>
1.04063

>  <RMSD>
20.354

$$$$
2oe5_lig
 OpenBabel11021811463D
libRbt.so/2013.1/901 2013/11/27
 37 40  0  0  0  0  0  0  0  0999 V2000
   14.0995    4.2067   34.9373 C   0  0  1  0  0  0  0  0  0  0  0  0
   14.4171    3.1660   33.8403 C   0  0  1  0  0  0  0  0  0  0  0  0
   13.0717    2.5516   33.3021 C   0  0  0  0  0  0  0  0  0  0  0  0
   12.3925    1.9140   34.5349 C   0  0  1  0  0  0  0  0  0  0  0  0
   12.0772    2.9997   35.6566 C   0  0  1  0  0  0  0  0  0  0  0  0
   11.3870    2.3803   36.9025 C   0  0  1  0  0  0  0  0  0  0  0  0
   10.0657    1.7263   36.4076 C   0  0  1  0  0  0  0  0  0  0  0  0
   10.4183    0.6941   35.2703 C   0  0  2  0  0  0  0  0  0  0  0  0
    8.0401    1.5878   38.0630 C   0  0  0  0  0  0  0  0  0  0  0  0
   15.1446    3.8131   32.7244 N   0  0  0  0  0  0  0  0  0  0  0  0
    9.3508    1.0509   37.5554 N   0  0  0  0  0  0  0  0  0  0  0  0
   13.3371    5.3119   34.4252 O   0  0  0  0  0  0  0  0  0  0  0  0
   13.3410    3.6234   36.0541 O   0  0  0  0  0  0  0  0  0  0  0  0
   11.1319    1.3121   34.1359 O   0  0  0  0  0  0  0  0  0  0  0  0
   12.2794    1.4135   37.4657 O   0  0  0  0  0  0  0  0  0  0  0  0
    9.2334    0.1239   34.7506 O   0  0  0  0  0  0  0  0  0  0  0  0
    9.4326   -1.2498   34.4744 C   0  0  2  0  0  0  0  0  0  0  0  0
    8.1332   -1.9608   34.0982 C   0  0  1  0  0  0  0  0  0  0  0  0
    7.1303   -1.9615   35.2845 C   0  0  2  0  0  0  0  0  0  0  0  0
    7.8360   -2.6420   36.4948 C   0  0  1  0  0  0  0  0  0  0  0  0
    9.1236   -1.8210   36.8331 C   0  0  1  0  0  0  0  0  0  0  0  0
    9.9216   -2.4242   37.9674 C   0  0  0  0  0  0  0  0  0  0  0  0
    6.8668   -2.6504   37.6544 N   0  0  0  0  0  0  0  0  0  0  0  0
   10.0095   -1.8742   35.6640 O   0  0  0  0  0  0  0  0  0  0  0  0
    7.5784   -1.2751   32.9581 O   0  0  0  0  0  0  0  0  0  0  0  0
    5.9820   -2.7376   34.8973 O   0  0  0  0  0  0  0  0  0  0  0  0
   11.1389   -1.7842   38.1443 O   0  0  0  0  0  0  0  0  0  0  0  0
   12.9449    6.2612   35.4171 C   0  0  1  0  0  0  0  0  0  0  0  0
   13.9115    7.4987   35.3831 C   0  0  1  0  0  0  0  0  0  0  0  0
   13.4523    8.5335   36.4725 C   0  0  2  0  0  0  0  0  0  0  0  0
   12.0203    8.9952   36.1629 C   0  0  1  0  0  0  0  0  0  0  0  0
   11.0486    7.7536   36.2115 C   0  0  0  0  0  0  0  0  0  0  0  0
   11.5173    6.7048   35.1277 C   0  0  2  0  0  0  0  0  0  0  0  0
   11.6147    9.9655   37.1664 N   0  0  0  0  0  0  0  0  0  0  0  0
   10.6380    5.5064   35.1564 N   0  0  0  0  0  0  0  0  0  0  0  0
   15.2710    7.0654   35.6756 O   0  0  0  0  0  0  0  0  0  0  0  0
   14.3021    9.6491   36.4330 O   0  0  0  0  0  0  0  0  0  0  0  0
  1  2  1  0  0  0  0
  1 12  1  6  0  0  0
  1 13  1  0  0  0  0
  2  3  1  0  0  0  0
  2 10  1  6  0  0  0
  4  3  1  6  0  0  0
  4  5  1  0  0  0  0
  4 14  1  0  0  0  0
  5  6  1  0  0  0  0
  5 13  1  1  0  0  0
  6  7  1  0  0  0  0
  6 15  1  6  0  0  0
  7  8  1  0  0  0  0
  7 11  1  1  0  0  0
  8 14  1  0  0  0  0
  8 16  1  6  0  0  0
  9 11  1  0  0  0  0
 17 16  1  1  0  0  0
 17 18  1  0  0  0  0
 17 24  1  0  0  0  0
 18 19  1  0  0  0  0
 18 25  1  6  0  0  0
 19 20  1  0  0  0  0
 19 26  1  6  0  0  0
 20 21  1  0  0  0  0
 20 23  1  1  0  0  0
 21 22  1  1  0  0  0
 21 24  1  0  0  0  0
 22 27  1  0  0  0  0
 28 12  1  6  0  0  0
 28 29  1  0  0  0  0
 28 33  1  0  0  0  0
 29 30  1  0  0  0  0
 29 36  1  1  0  0  0
 30 31  1  0  0  0  0
 30 37  1  6  0  0  0
 31 32  1  0  0  0  0
 31 34  1  1  0  0  0
 32 33  1  0  0  0  0
 33 35  1  1  0  0  0
M  END
>  <CHROM.1>
176.25494967,112.24924360,-141.48716208,171.89628616,172.48349295,99.93844856
11.06887505,2.49210559,35.67148581,-0.96601738,-0.57915775,-2.80534255

>  <Name>
2oe5_lig

>  <RI>
0

>  <Rbt.Current_Directory>
/home/afrankz/demos/rdock_decoys_rna/rnas/2oe5

>  <Rbt.Executable>
rbdock ($Id: //depot/dev/client3/rdock/2013.1/src/exe/rbdock.cxx#4 $)

>  <Rbt.Library>
libRbt.so (2013.1, Build901 2013/11/27)

>  <Rbt.Parameter_File>
/export/apps/rDock/src/rDock_2013.1_src/data/scripts/dock_solv.prm

>  <Rbt.Receptor>
prm/blind_docking_40.prm

>  <SCORE>
13.5442

>  <SCORE.INTER>
-2.04599

>  <SCORE.INTER.CONST>
1

>  <SCORE.INTER.POLAR>
0

>  <SCORE.INTER.ROT>
6

>  <SCORE.INTER.SOLV>
6.19591

>  <SCORE.INTER.VDW>
-11.0293

>  <SCORE.INTER.norm>
-0.055297

>  <SCORE.INTRA>
-1.81006

>  <SCORE.INTRA.DIHEDRAL>
-3.86535

>  <SCORE.INTRA.DIHEDRAL.0>
16.2083

>  <SCORE.INTRA.POLAR>
0

>  <SCORE.INTRA.POLAR.0>
0

>  <SCORE.INTRA.REPUL>
0

>  <SCORE.INTRA.REPUL.0>
0

>  <SCORE.INTRA.SOLV>
1.67332

>  <SCORE.INTRA.SOLV.lig_0>
-89.8095

>  <SCORE.INTRA.VDW>
-0.714047

>  <SCORE.INTRA.VDW.0>
-3.19502

>  <SCORE.INTRA.norm>
-0.0489205

>  <SCORE.RESTR>
17.4002

>  <SCORE.RESTR.CAVITY>
17.4002

>  <SCORE.RESTR.norm>
0.470276

>  <SCORE.SYSTEM>
0

>  <SCORE.SYSTEM.CONST>
0

>  <SCORE.SYSTEM.DIHEDRAL>
0

>  <SCORE.SYSTEM.SOLV>
0

>  <SCORE.SYSTEM.norm>
0

>  <SCORE.heavy>
37

>  <SCORE.norm>
0.366059

>  <RMSD>
20.405

$$$$
2oe5_lig
 OpenBabel11021811463D
libRbt.so/2013.1/901 2013/11/27
 37 40  0  0  0  0  0  0  0  0999 V2000
   14.5655   -1.5382   33.5630 C   0  0  1  0  0  0  0  0  0  0  0  0
   15.1080   -0.4899   32.5659 C   0  0  1  0  0  0  0  0  0  0  0  0
   14.7807    0.9537   33.1008 C   0  0  0  0  0  0  0  0  0  0  0  0
   13.2412    1.0041   33.2233 C   0  0  1  0  0  0  0  0  0  0  0  0
   12.6996   -0.0857   34.2506 C   0  0  1  0  0  0  0  0  0  0  0  0
   11.1536   -0.0471   34.3941 C   0  0  1  0  0  0  0  0  0  0  0  0
   10.7820    1.3805   34.8865 C   0  0  1  0  0  0  0  0  0  0  0  0
   11.3739    2.4268   33.8677 C   0  0  2  0  0  0  0  0  0  0  0  0
    8.5322    0.8288   36.1100 C   0  0  0  0  0  0  0  0  0  0  0  0
   16.5741   -0.6411   32.4205 N   0  0  0  0  0  0  0  0  0  0  0  0
    9.2818    1.5223   35.0050 N   0  0  0  0  0  0  0  0  0  0  0  0
   15.2024   -1.4386   34.8473 O   0  0  0  0  0  0  0  0  0  0  0  0
   13.1162   -1.4063   33.7744 O   0  0  0  0  0  0  0  0  0  0  0  0
   12.8369    2.3112   33.7118 O   0  0  0  0  0  0  0  0  0  0  0  0
   10.5846   -0.3313   33.1120 O   0  0  0  0  0  0  0  0  0  0  0  0
   11.1099    3.7413   34.3166 O   0  0  0  0  0  0  0  0  0  0  0  0
   11.6597    3.9369   35.6060 C   0  0  2  0  0  0  0  0  0  0  0  0
   10.9898    5.0887   36.3543 C   0  0  1  0  0  0  0  0  0  0  0  0
   11.2363    6.4435   35.6353 C   0  0  2  0  0  0  0  0  0  0  0  0
   12.7771    6.6414   35.5230 C   0  0  1  0  0  0  0  0  0  0  0  0
   13.3641    5.4438   34.7061 C   0  0  1  0  0  0  0  0  0  0  0  0
   14.8698    5.5045   34.5777 C   0  0  0  0  0  0  0  0  0  0  0  0
   13.0277    7.9592   34.8269 N   0  0  0  0  0  0  0  0  0  0  0  0
   13.0878    4.2119   35.4548 O   0  0  0  0  0  0  0  0  0  0  0  0
    9.5804    4.7961   36.4278 O   0  0  0  0  0  0  0  0  0  0  0  0
   10.6740    7.4889   36.4490 O   0  0  0  0  0  0  0  0  0  0  0  0
   15.4983    5.4770   35.8134 O   0  0  0  0  0  0  0  0  0  0  0  0
   14.6476   -2.2981   35.8433 C   0  0  1  0  0  0  0  0  0  0  0  0
   13.2304   -1.7736   36.2714 C   0  0  1  0  0  0  0  0  0  0  0  0
   12.6356   -2.7417   37.3566 C   0  0  2  0  0  0  0  0  0  0  0  0
   12.5000   -4.1510   36.7605 C   0  0  1  0  0  0  0  0  0  0  0  0
   13.9258   -4.6820   36.3441 C   0  0  0  0  0  0  0  0  0  0  0  0
   14.5326   -3.7019   35.2645 C   0  0  2  0  0  0  0  0  0  0  0  0
   11.9317   -5.0319   37.7674 N   0  0  0  0  0  0  0  0  0  0  0  0
   15.8893   -4.1562   34.8609 N   0  0  0  0  0  0  0  0  0  0  0  0
   13.3540   -0.4370   36.8368 O   0  0  0  0  0  0  0  0  0  0  0  0
   11.3615   -2.2871   37.7285 O   0  0  0  0  0  0  0  0  0  0  0  0
  1  2  1  0  0  0  0
  1 12  1  1  0  0  0
  1 13  1  0  0  0  0
  2  3  1  0  0  0  0
  2 10  1  1  0  0  0
  4  3  1  1  0  0  0
  4  5  1  0  0  0  0
  4 14  1  0  0  0  0
  5  6  1  0  0  0  0
  5 13  1  6  0  0  0
  6  7  1  0  0  0  0
  6 15  1  6  0  0  0
  7  8  1  0  0  0  0
  7 11  1  6  0  0  0
  8 14  1  0  0  0  0
  8 16  1  1  0  0  0
  9 11  1  0  0  0  0
 17 16  1  6  0  0  0
 17 18  1  0  0  0  0
 17 24  1  0  0  0  0
 18 19  1  0  0  0  0
 18 25  1  6  0  0  0
 19 20  1  0  0  0  0
 19 26  1  1  0  0  0
 20 21  1  0  0  0  0
 20 23  1  6  0  0  0
 21 22  1  1  0  0  0
 21 24  1  0  0  0  0
 22 27  1  0  0  0  0
 28 12  1  6  0  0  0
 28 29  1  0  0  0  0
 28 33  1  0  0  0  0
 29 30  1  0  0  0  0
 29 36  1  1  0  0  0
 30 31  1  0  0  0  0
 30 37  1  6  0  0  0
 31 32  1  0  0  0  0
 31 34  1  1  0  0  0
 32 33  1  0  0  0  0
 33 35  1  1  0  0  0
M  END
>  <CHROM.1>
174.25235012,72.05726321,57.85439088,-158.34809305,60.16134678,-71.50213722
12.72690564,1.12267467,35.13504429,-1.36627256,0.44788152,-0.11393436

>  <Name>
2oe5_lig

>  <RI>
0

>  <Rbt.Current_Directory>
/home/afrankz/demos/rdock_decoys_rna/rnas/2oe5

>  <Rbt.Executable>
rbdock ($Id: //depot/dev/client3/rdock/2013.1/src/exe/rbdock.cxx#4 $)

>  <Rbt.Library>
libRbt.so (2013.1, Build901 2013/11/27)

>  <Rbt.Parameter_File>
/export/apps/rDock/src/rDock_2013.1_src/data/scripts/dock_solv.prm

>  <Rbt.Receptor>
prm/blind_docking_40.prm

>  <SCORE>
50.6103

>  <SCORE.INTER>
39.6932

>  <SCORE.INTER.CONST>
1

>  <SCORE.INTER.POLAR>
0

>  <SCORE.INTER.ROT>
6

>  <SCORE.INTER.SOLV>
22.4892

>  <SCORE.INTER.VDW>
11.3658

>  <SCORE.INTER.norm>
1.07279

>  <SCORE.INTRA>
0.377059

>  <SCORE.INTRA.DIHEDRAL>
-13.1072

>  <SCORE.INTRA.DIHEDRAL.0>
16.2083

>  <SCORE.INTRA.POLAR>
0

>  <SCORE.INTRA.POLAR.0>
0

>  <SCORE.INTRA.REPUL>
0

>  <SCORE.INTRA.REPUL.0>
0

>  <SCORE.INTRA.SOLV>
0.0428413

>  <SCORE.INTRA.SOLV.lig_0>
-89.8095

>  <SCORE.INTRA.VDW>
6.90925

>  <SCORE.INTRA.VDW.0>
-3.19502

>  <SCORE.INTRA.norm>
0.0101908

>  <SCORE.RESTR>
10.54

>  <SCORE.RESTR.CAVITY>
10.54

>  <SCORE.RESTR.norm>
0.284866

>  <SCORE.SYSTEM>
0

>  <SCORE.SYSTEM.CONST>
0

>  <SCORE.SYSTEM.DIHEDRAL>
0

>  <SCORE.SYSTEM.SOLV>
0

>  <SCORE.SYSTEM.norm>
0

>  <SCORE.heavy>
37

>  <SCORE.norm>
1.36785

>  <RMSD>
20.457

$$$$
2oe5_lig
 OpenBabel11021811463D
libRbt.so/2013.1/901 2013/11/27
 37 40  0  0  0  0  0  0  0  0999 V2000
   12.9823    4.3267   32.9048 C   0  0  1  0  0  0  0  0  0  0  0  0
   11.4631    4.1753   32.6676 C   0  0  1  0  0  0  0  0  0  0  0  0
   10.8540    3.2432   33.7799 C   0  0  0  0  0  0  0  0  0  0  0  0
   11.6047    1.8997   33.6423 C   0  0  1  0  0  0  0  0  0  0  0  0
   13.1688    2.0753   33.8849 C   0  0  1  0  0  0  0  0  0  0  0  0
   13.9418    0.7342   33.7583 C   0  0  1  0  0  0  0  0  0  0  0  0
   13.3433   -0.2331   34.8189 C   0  0  1  0  0  0  0  0  0  0  0  0
   11.7911   -0.3430   34.5707 C   0  0  2  0  0  0  0  0  0  0  0  0
   15.4658   -1.7037   34.3771 C   0  0  0  0  0  0  0  0  0  0  0  0
   10.8076    5.5023   32.7231 N   0  0  0  0  0  0  0  0  0  0  0  0
   14.0078   -1.5878   34.7299 N   0  0  0  0  0  0  0  0  0  0  0  0
   13.2694    4.9676   34.1585 O   0  0  0  0  0  0  0  0  0  0  0  0
   13.6777    3.0308   32.8988 O   0  0  0  0  0  0  0  0  0  0  0  0
   11.1062    0.9627   34.6343 O   0  0  0  0  0  0  0  0  0  0  0  0
   13.7565    0.2426   32.4270 O   0  0  0  0  0  0  0  0  0  0  0  0
   11.2010   -1.1665   35.5570 O   0  0  0  0  0  0  0  0  0  0  0  0
   11.7082   -0.8364   36.8364 C   0  0  2  0  0  0  0  0  0  0  0  0
   11.1340   -1.7284   37.9365 C   0  0  1  0  0  0  0  0  0  0  0  0
    9.6007   -1.5251   38.0804 C   0  0  2  0  0  0  0  0  0  0  0  0
    9.3529   -0.0146   38.3682 C   0  0  1  0  0  0  0  0  0  0  0  0
    9.9308    0.8108   37.1720 C   0  0  1  0  0  0  0  0  0  0  0  0
    9.7913    2.3038   37.3692 C   0  0  0  0  0  0  0  0  0  0  0  0
    7.8630    0.1934   38.5130 N   0  0  0  0  0  0  0  0  0  0  0  0
   11.3758    0.5607   37.1112 O   0  0  0  0  0  0  0  0  0  0  0  0
   11.4402   -3.0939   37.5910 O   0  0  0  0  0  0  0  0  0  0  0  0
    9.1500   -2.3095   39.1997 O   0  0  0  0  0  0  0  0  0  0  0  0
    8.4668    2.6873   37.5150 O   0  0  0  0  0  0  0  0  0  0  0  0
   12.7171    6.2781   34.2852 C   0  0  1  0  0  0  0  0  0  0  0  0
   12.3213    6.5481   35.7810 C   0  0  1  0  0  0  0  0  0  0  0  0
   11.7293    7.9987   35.8971 C   0  0  2  0  0  0  0  0  0  0  0  0
   12.7918    9.0176   35.4582 C   0  0  1  0  0  0  0  0  0  0  0  0
   13.1778    8.7543   33.9516 C   0  0  0  0  0  0  0  0  0  0  0  0
   13.7589    7.2908   33.8292 C   0  0  2  0  0  0  0  0  0  0  0  0
   12.2385   10.3555   35.5882 N   0  0  0  0  0  0  0  0  0  0  0  0
   14.1154    6.9945   32.4167 N   0  0  0  0  0  0  0  0  0  0  0  0
   11.3142    5.5836   36.2018 O   0  0  0  0  0  0  0  0  0  0  0  0
   11.3914    8.2508   37.2353 O   0  0  0  0  0  0  0  0  0  0  0  0
  1  2  1  0  0  0  0
  1 12  1  1  0  0  0
  1 13  1  0  0  0  0
  2  3  1  0  0  0  0
  2 10  1  1  0  0  0
  4  3  1  1  0  0  0
  4  5  1  0  0  0  0
  4 14  1  0  0  0  0
  5  6  1  0  0  0  0
  5 13  1  6  0  0  0
  6  7  1  0  0  0  0
  6 15  1  6  0  0  0
  7  8  1  0  0  0  0
  7 11  1  6  0  0  0
  8 14  1  0  0  0  0
  8 16  1  1  0  0  0
  9 11  1  0  0  0  0
 17 16  1  6  0  0  0
 17 18  1  0  0  0  0
 17 24  1  0  0  0  0
 18 19  1  0  0  0  0
 18 25  1  6  0  0  0
 19 20  1  0  0  0  0
 19 26  1  1  0  0  0
 20 21  1  0  0  0  0
 20 23  1  6  0  0  0
 21 22  1  1  0  0  0
 21 24  1  0  0  0  0
 22 27  1  0  0  0  0
 28 12  1  1  0  0  0
 28 29  1  0  0  0  0
 28 33  1  0  0  0  0
 29 30  1  0  0  0  0
 29 36  1  6  0  0  0
 30 31  1  0  0  0  0
 30 37  1  1  0  0  0
 31 32  1  0  0  0  0
 31 34  1  6  0  0  0
 32 33  1  0  0  0  0
 33 35  1  6  0  0  0
M  END
>  <CHROM.1>
-59.45354899,34.88100655,44.44609800,-178.21860206,-59.60026374,146.80609075
11.82041680,2.66183396,35.36949258,-1.31438713,-0.84290695,3.07263843

>  <Name>
2oe5_lig

>  <RI>
0

>  <Rbt.Current_Directory>
/home/afrankz/demos/rdock_decoys_rna/rnas/2oe5

>  <Rbt.Executable>
rbdock ($Id: //depot/dev/client3/rdock/2013.1/src/exe/rbdock.cxx#4 $)

>  <Rbt.Library>
libRbt.so (2013.1, Build901 2013/11/27)

>  <Rbt.Parameter_File>
/export/apps/rDock/src/rDock_2013.1_src/data/scripts/dock_solv.prm

>  <Rbt.Receptor>
prm/blind_docking_40.prm

>  <SCORE>
24.388

>  <SCORE.INTER>
6.80301

>  <SCORE.INTER.CONST>
1

>  <SCORE.INTER.POLAR>
0

>  <SCORE.INTER.ROT>
6

>  <SCORE.INTER.SOLV>
8.40793

>  <SCORE.INTER.VDW>
-5.8673

>  <SCORE.INTER.norm>
0.183865

>  <SCORE.INTRA>
2.2031

>  <SCORE.INTRA.DIHEDRAL>
-10.327

>  <SCORE.INTRA.DIHEDRAL.0>
16.2083

>  <SCORE.INTRA.POLAR>
0

>  <SCORE.INTRA.POLAR.0>
0

>  <SCORE.INTRA.REPUL>
0

>  <SCORE.INTRA.REPUL.0>
0

>  <SCORE.INTRA.SOLV>
4.01214

>  <SCORE.INTRA.SOLV.lig_0>
-89.8095

>  <SCORE.INTRA.VDW>
5.36055

>  <SCORE.INTRA.VDW.0>
-3.19502

>  <SCORE.INTRA.norm>
0.0595433

>  <SCORE.RESTR>
15.3819

>  <SCORE.RESTR.CAVITY>
15.3819

>  <SCORE.RESTR.norm>
0.415728

>  <SCORE.SYSTEM>
0

>  <SCORE.SYSTEM.CONST>
0

>  <SCORE.SYSTEM.DIHEDRAL>
0

>  <SCORE.SYSTEM.SOLV>
0

>  <SCORE.SYSTEM.norm>
0

>  <SCORE.heavy>
37

>  <SCORE.norm>
0.659136

>  <RMSD>
20.467

$$$$
2oe5_lig
 OpenBabel11021811463D
libRbt.so/2013.1/901 2013/11/27
 37 40  0  0  0  0  0  0  0  0999 V2000
   14.8193   -0.4501   32.4156 C   0  0  1  0  0  0  0  0  0  0  0  0
   14.7542    0.9358   31.7356 C   0  0  1  0  0  0  0  0  0  0  0  0
   14.6461    2.0518   32.8401 C   0  0  0  0  0  0  0  0  0  0  0  0
   13.3566    1.7244   33.6260 C   0  0  1  0  0  0  0  0  0  0  0  0
   13.4392    0.2913   34.3157 C   0  0  1  0  0  0  0  0  0  0  0  0
   12.1549   -0.0547   35.1175 C   0  0  1  0  0  0  0  0  0  0  0  0
   11.9884    1.0491   36.2004 C   0  0  1  0  0  0  0  0  0  0  0  0
   11.9563    2.4503   35.4802 C   0  0  2  0  0  0  0  0  0  0  0  0
   10.7022   -0.1903   38.1168 C   0  0  0  0  0  0  0  0  0  0  0  0
   15.9741    1.1599   30.9262 N   0  0  0  0  0  0  0  0  0  0  0  0
   10.7263    0.8166   36.9990 N   0  0  0  0  0  0  0  0  0  0  0  0
   15.9900   -0.5916   33.2367 O   0  0  0  0  0  0  0  0  0  0  0  0
   13.6470   -0.7077   33.2654 O   0  0  0  0  0  0  0  0  0  0  0  0
   13.1663    2.7099   34.6763 O   0  0  0  0  0  0  0  0  0  0  0  0
   11.0548   -0.0707   34.2023 O   0  0  0  0  0  0  0  0  0  0  0  0
   11.8690    3.4851   36.4398 O   0  0  0  0  0  0  0  0  0  0  0  0
   10.8745    4.4187   36.0625 C   0  0  2  0  0  0  0  0  0  0  0  0
   10.3392    4.1596   34.6547 C   0  0  1  0  0  0  0  0  0  0  0  0
   11.4520    4.3497   33.5875 C   0  0  2  0  0  0  0  0  0  0  0  0
   12.0068    5.7969   33.7413 C   0  0  1  0  0  0  0  0  0  0  0  0
   12.5713    5.9510   35.1918 C   0  0  1  0  0  0  0  0  0  0  0  0
   13.0930    7.3426   35.4723 C   0  0  0  0  0  0  0  0  0  0  0  0
   13.0890    5.9931   32.7047 N   0  0  0  0  0  0  0  0  0  0  0  0
   11.4583    5.7575   36.1290 O   0  0  0  0  0  0  0  0  0  0  0  0
    9.8269    2.8126   34.6270 O   0  0  0  0  0  0  0  0  0  0  0  0
   10.8536    4.1984   32.2875 O   0  0  0  0  0  0  0  0  0  0  0  0
   12.0747    8.2834   35.5015 O   0  0  0  0  0  0  0  0  0  0  0  0
   15.7539   -1.2448   34.4842 C   0  0  1  0  0  0  0  0  0  0  0  0
   15.4378   -2.7638   34.2397 C   0  0  1  0  0  0  0  0  0  0  0  0
   15.1951   -3.4628   35.6257 C   0  0  2  0  0  0  0  0  0  0  0  0
   16.4610   -3.3367   36.4868 C   0  0  1  0  0  0  0  0  0  0  0  0
   16.7690   -1.8110   36.7433 C   0  0  0  0  0  0  0  0  0  0  0  0
   16.9980   -1.1025   35.3505 C   0  0  2  0  0  0  0  0  0  0  0  0
   16.2302   -4.0031   37.7578 N   0  0  0  0  0  0  0  0  0  0  0  0
   17.2702    0.3456   35.5477 N   0  0  0  0  0  0  0  0  0  0  0  0
   14.2383   -2.8882   33.4229 O   0  0  0  0  0  0  0  0  0  0  0  0
   14.9306   -4.8241   35.4131 O   0  0  0  0  0  0  0  0  0  0  0  0
  1  2  1  0  0  0  0
  1 12  1  1  0  0  0
  1 13  1  0  0  0  0
  2  3  1  0  0  0  0
  2 10  1  1  0  0  0
  4  3  1  1  0  0  0
  4  5  1  0  0  0  0
  4 14  1  0  0  0  0
  5  6  1  0  0  0  0
  5 13  1  6  0  0  0
  6  7  1  0  0  0  0
  6 15  1  6  0  0  0
  7  8  1  0  0  0  0
  7 11  1  6  0  0  0
  8 14  1  0  0  0  0
  8 16  1  1  0  0  0
  9 11  1  0  0  0  0
 17 16  1  6  0  0  0
 17 18  1  0  0  0  0
 17 24  1  0  0  0  0
 18 19  1  0  0  0  0
 18 25  1  1  0  0  0
 19 20  1  0  0  0  0
 19 26  1  6  0  0  0
 20 21  1  0  0  0  0
 20 23  1  6  0  0  0
 21 22  1  6  0  0  0
 21 24  1  0  0  0  0
 22 27  1  0  0  0  0
 28 12  1  6  0  0  0
 28 29  1  0  0  0  0
 28 33  1  0  0  0  0
 29 30  1  0  0  0  0
 29 36  1  6  0  0  0
 30 31  1  0  0  0  0
 30 37  1  6  0  0  0
 31 32  1  0  0  0  0
 31 34  1  1  0  0  0
 32 33  1  0  0  0  0
 33 35  1  1  0  0  0
M  END
>  <CHROM.1>
138.60978394,80.51360714,-133.28586847,-8.44528616,67.74401526,69.76419309
13.39659765,1.33113129,34.71959448,-0.92872381,0.74760635,-0.51510501

>  <Name>
2oe5_lig

>  <RI>
0

>  <Rbt.Current_Directory>
/home/afrankz/demos/rdock_decoys_rna/rnas/2oe5

>  <Rbt.Executable>
rbdock ($Id: //depot/dev/client3/rdock/2013.1/src/exe/rbdock.cxx#4 $)

>  <Rbt.Library>
libRbt.so (2013.1, Build901 2013/11/27)

>  <Rbt.Parameter_File>
/export/apps/rDock/src/rDock_2013.1_src/data/scripts/dock_solv.prm

>  <Rbt.Receptor>
prm/blind_docking_40.prm

>  <SCORE>
40.1416

>  <SCORE.INTER>
3.47137

>  <SCORE.INTER.CONST>
1

>  <SCORE.INTER.POLAR>
0

>  <SCORE.INTER.ROT>
6

>  <SCORE.INTER.SOLV>
14.7093

>  <SCORE.INTER.VDW>
-10.1889

>  <SCORE.INTER.norm>
0.0938208

>  <SCORE.INTRA>
22.7601

>  <SCORE.INTRA.DIHEDRAL>
3.57856

>  <SCORE.INTRA.DIHEDRAL.0>
16.2083

>  <SCORE.INTRA.POLAR>
0

>  <SCORE.INTRA.POLAR.0>
0

>  <SCORE.INTRA.REPUL>
0

>  <SCORE.INTRA.REPUL.0>
0

>  <SCORE.INTRA.SOLV>
1.3055

>  <SCORE.INTRA.SOLV.lig_0>
-89.8095

>  <SCORE.INTRA.VDW>
20.318

>  <SCORE.INTRA.VDW.0>
-3.19502

>  <SCORE.INTRA.norm>
0.615137

>  <SCORE.RESTR>
13.9102

>  <SCORE.RESTR.CAVITY>
13.9102

>  <SCORE.RESTR.norm>
0.375951

>  <SCORE.SYSTEM>
0

>  <SCORE.SYSTEM.CONST>
0

>  <SCORE.SYSTEM.DIHEDRAL>
0

>  <SCORE.SYSTEM.SOLV>
0

>  <SCORE.SYSTEM.norm>
0

>  <SCORE.heavy>
37

>  <SCORE.norm>
1.08491

>  <RMSD>
20.517

$$$$
2oe5_lig
 OpenBabel11021811463D
libRbt.so/2013.1/901 2013/11/27
 37 40  0  0  0  0  0  0  0  0999 V2000
   13.7058    2.3911   33.8740 C   0  0  1  0  0  0  0  0  0  0  0  0
   14.0517    0.9678   33.3821 C   0  0  1  0  0  0  0  0  0  0  0  0
   12.8064    0.0286   33.5922 C   0  0  0  0  0  0  0  0  0  0  0  0
   12.5163    0.0691   35.1094 C   0  0  1  0  0  0  0  0  0  0  0  0
   12.1667    1.5435   35.5995 C   0  0  1  0  0  0  0  0  0  0  0  0
   11.8644    1.6053   37.1216 C   0  0  1  0  0  0  0  0  0  0  0  0
   10.6587    0.6577   37.3807 C   0  0  1  0  0  0  0  0  0  0  0  0
   11.0292   -0.7759   36.8416 C   0  0  2  0  0  0  0  0  0  0  0  0
   10.9305   -0.4333   39.7468 C   0  0  0  0  0  0  0  0  0  0  0  0
   14.4066    1.0017   31.9446 N   0  0  0  0  0  0  0  0  0  0  0  0
   10.3279    0.6181   38.8550 N   0  0  0  0  0  0  0  0  0  0  0  0
   12.6359    2.9771   33.1145 O   0  0  0  0  0  0  0  0  0  0  0  0
   13.3070    2.4083   35.2895 O   0  0  0  0  0  0  0  0  0  0  0  0
   11.3739   -0.7778   35.4067 O   0  0  0  0  0  0  0  0  0  0  0  0
   13.0366    1.1763   37.8217 O   0  0  0  0  0  0  0  0  0  0  0  0
    9.9309   -1.6517   37.0029 O   0  0  0  0  0  0  0  0  0  0  0  0
    8.7219   -0.9788   36.7057 C   0  0  2  0  0  0  0  0  0  0  0  0
    7.4953   -1.8623   36.9305 C   0  0  1  0  0  0  0  0  0  0  0  0
    7.4932   -3.0765   35.9616 C   0  0  2  0  0  0  0  0  0  0  0  0
    7.5484   -2.5173   34.5090 C   0  0  1  0  0  0  0  0  0  0  0  0
    8.8544   -1.6692   34.3624 C   0  0  1  0  0  0  0  0  0  0  0  0
    8.9876   -1.0302   32.9981 C   0  0  0  0  0  0  0  0  0  0  0  0
    7.5438   -3.6916   33.5576 N   0  0  0  0  0  0  0  0  0  0  0  0
    8.7710   -0.5502   35.3086 O   0  0  0  0  0  0  0  0  0  0  0  0
    7.5234   -2.3015   38.3031 O   0  0  0  0  0  0  0  0  0  0  0  0
    6.2631   -3.7983   36.1539 O   0  0  0  0  0  0  0  0  0  0  0  0
    7.8362   -0.3526   32.6269 O   0  0  0  0  0  0  0  0  0  0  0  0
   12.3043    4.3102   33.5040 C   0  0  1  0  0  0  0  0  0  0  0  0
   11.6787    4.3053   34.9446 C   0  0  1  0  0  0  0  0  0  0  0  0
   11.3351    5.7823   35.3555 C   0  0  2  0  0  0  0  0  0  0  0  0
   12.6223    6.6207   35.3605 C   0  0  1  0  0  0  0  0  0  0  0  0
   13.2416    6.6365   33.9099 C   0  0  0  0  0  0  0  0  0  0  0  0
   13.5737    5.1511   33.4881 C   0  0  2  0  0  0  0  0  0  0  0  0
   12.2939    7.9791   35.7602 N   0  0  0  0  0  0  0  0  0  0  0  0
   14.1406    5.1202   32.1142 N   0  0  0  0  0  0  0  0  0  0  0  0
   10.4580    3.5107   34.9448 O   0  0  0  0  0  0  0  0  0  0  0  0
   10.7929    5.7844   36.6495 O   0  0  0  0  0  0  0  0  0  0  0  0
  1  2  1  0  0  0  0
  1 12  1  6  0  0  0
  1 13  1  0  0  0  0
  2  3  1  0  0  0  0
  2 10  1  6  0  0  0
  4  3  1  6  0  0  0
  4  5  1  0  0  0  0
  4 14  1  0  0  0  0
  5  6  1  0  0  0  0
  5 13  1  1  0  0  0
  6  7  1  0  0  0  0
  6 15  1  1  0  0  0
  7  8  1  0  0  0  0
  7 11  1  1  0  0  0
  8 14  1  0  0  0  0
  8 16  1  6  0  0  0
  9 11  1  0  0  0  0
 17 16  1  6  0  0  0
 17 18  1  0  0  0  0
 17 24  1  0  0  0  0
 18 19  1  0  0  0  0
 18 25  1  1  0  0  0
 19 20  1  0  0  0  0
 19 26  1  6  0  0  0
 20 21  1  0  0  0  0
 20 23  1  6  0  0  0
 21 22  1  6  0  0  0
 21 24  1  0  0  0  0
 22 27  1  0  0  0  0
 28 12  1  1  0  0  0
 28 29  1  0  0  0  0
 28 33  1  0  0  0  0
 29 30  1  0  0  0  0
 29 36  1  6  0  0  0
 30 31  1  0  0  0  0
 30 37  1  1  0  0  0
 31 32  1  0  0  0  0
 31 34  1  6  0  0  0
 32 33  1  0  0  0  0
 33 35  1  6  0  0  0
M  END
>  <CHROM.1>
-178.20712029,-92.61645952,39.59806049,-177.19614449,50.08848043,-67.48156132
10.89027019,1.18790358,35.30912041,-0.22854320,-0.98643823,-2.06105307

>  <Name>
2oe5_lig

>  <RI>
0

>  <Rbt.Current_Directory>
/home/afrankz/demos/rdock_decoys_rna/rnas/2oe5

>  <Rbt.Executable>
rbdock ($Id: //depot/dev/client3/rdock/2013.1/src/exe/rbdock.cxx#4 $)

>  <Rbt.Library>
libRbt.so (2013.1, Build901 2013/11/27)

>  <Rbt.Parameter_File>
/export/apps/rDock/src/rDock_2013.1_src/data/scripts/dock_solv.prm

>  <Rbt.Receptor>
prm/blind_docking_40.prm

>  <SCORE>
13.4176

>  <SCORE.INTER>
-0.188379

>  <SCORE.INTER.CONST>
1

>  <SCORE.INTER.POLAR>
0

>  <SCORE.INTER.ROT>
6

>  <SCORE.INTER.SOLV>
15.5942

>  <SCORE.INTER.VDW>
-12.9236

>  <SCORE.INTER.norm>
-0.00509132

>  <SCORE.INTRA>
2.18152

>  <SCORE.INTRA.DIHEDRAL>
-12.8976

>  <SCORE.INTRA.DIHEDRAL.0>
16.2083

>  <SCORE.INTRA.POLAR>
0

>  <SCORE.INTRA.POLAR.0>
0

>  <SCORE.INTRA.REPUL>
0

>  <SCORE.INTRA.REPUL.0>
0

>  <SCORE.INTRA.SOLV>
0.437103

>  <SCORE.INTRA.SOLV.lig_0>
-89.8095

>  <SCORE.INTRA.VDW>
8.41175

>  <SCORE.INTRA.VDW.0>
-3.19502

>  <SCORE.INTRA.norm>
0.0589599

>  <SCORE.RESTR>
11.4244

>  <SCORE.RESTR.CAVITY>
11.4244

>  <SCORE.RESTR.norm>
0.308768

>  <SCORE.SYSTEM>
0

>  <SCORE.SYSTEM.CONST>
0

>  <SCORE.SYSTEM.DIHEDRAL>
0

>  <SCORE.SYSTEM.SOLV>
0

>  <SCORE.SYSTEM.norm>
0

>  <SCORE.heavy>
37

>  <SCORE.norm>
0.362637

>  <RMSD>
20.545

$$$$
2oe5_lig
 OpenBabel11021811463D
libRbt.so/2013.1/901 2013/11/27
 37 40  0  0  0  0  0  0  0  0999 V2000
   12.1411    4.7178   35.6925 C   0  0  1  0  0  0  0  0  0  0  0  0
   13.4087    4.5988   36.5680 C   0  0  1  0  0  0  0  0  0  0  0  0
   13.9035    3.1047   36.5651 C   0  0  0  0  0  0  0  0  0  0  0  0
   12.7230    2.2829   37.1295 C   0  0  1  0  0  0  0  0  0  0  0  0
   11.4245    2.4212   36.2178 C   0  0  1  0  0  0  0  0  0  0  0  0
   10.2273    1.5962   36.7640 C   0  0  1  0  0  0  0  0  0  0  0  0
   10.6879    0.1116   36.8136 C   0  0  1  0  0  0  0  0  0  0  0  0
   11.9971    0.0270   37.6864 C   0  0  2  0  0  0  0  0  0  0  0  0
    8.4043   -1.1442   36.5469 C   0  0  0  0  0  0  0  0  0  0  0  0
   14.4775    5.4731   36.0325 N   0  0  0  0  0  0  0  0  0  0  0  0
    9.5933   -0.7600   37.3851 N   0  0  0  0  0  0  0  0  0  0  0  0
   12.4044    4.3912   34.3182 O   0  0  0  0  0  0  0  0  0  0  0  0
   11.0590    3.8379   36.1588 O   0  0  0  0  0  0  0  0  0  0  0  0
   13.0871    0.8770   37.1694 O   0  0  0  0  0  0  0  0  0  0  0  0
    9.9050    2.0958   38.0658 O   0  0  0  0  0  0  0  0  0  0  0  0
   12.4823   -1.3010   37.7025 O   0  0  0  0  0  0  0  0  0  0  0  0
   12.1909   -1.9425   36.4751 C   0  0  2  0  0  0  0  0  0  0  0  0
   12.9011   -3.2890   36.3407 C   0  0  1  0  0  0  0  0  0  0  0  0
   14.4437   -3.1090   36.3093 C   0  0  2  0  0  0  0  0  0  0  0  0
   14.7804   -2.1535   35.1263 C   0  0  1  0  0  0  0  0  0  0  0  0
   14.0495   -0.7933   35.3750 C   0  0  1  0  0  0  0  0  0  0  0  0
   14.2646    0.2003   34.2552 C   0  0  0  0  0  0  0  0  0  0  0  0
   16.2805   -1.9740   35.0853 N   0  0  0  0  0  0  0  0  0  0  0  0
   12.6055   -1.0561   35.3887 O   0  0  0  0  0  0  0  0  0  0  0  0
   12.5024   -4.1029   37.4615 O   0  0  0  0  0  0  0  0  0  0  0  0
   15.0383   -4.3979   36.0723 O   0  0  0  0  0  0  0  0  0  0  0  0
   13.7535   -0.2563   33.0499 O   0  0  0  0  0  0  0  0  0  0  0  0
   11.3622    4.7676   33.4177 C   0  0  1  0  0  0  0  0  0  0  0  0
   11.8720    5.8984   32.4542 C   0  0  1  0  0  0  0  0  0  0  0  0
   10.7138    6.2857   31.4658 C   0  0  2  0  0  0  0  0  0  0  0  0
   10.3164    5.0523   30.6408 C   0  0  1  0  0  0  0  0  0  0  0  0
    9.7912    3.9228   31.6086 C   0  0  0  0  0  0  0  0  0  0  0  0
   10.9488    3.5425   32.6134 C   0  0  2  0  0  0  0  0  0  0  0  0
    9.2580    5.4283   29.7180 N   0  0  0  0  0  0  0  0  0  0  0  0
   10.4857    2.4937   33.5597 N   0  0  0  0  0  0  0  0  0  0  0  0
   12.2506    7.0699   33.2325 O   0  0  0  0  0  0  0  0  0  0  0  0
   11.1709    7.2827   30.5911 O   0  0  0  0  0  0  0  0  0  0  0  0
  1  2  1  0  0  0  0
  1 12  1  6  0  0  0
  1 13  1  0  0  0  0
  2  3  1  0  0  0  0
  2 10  1  6  0  0  0
  4  3  1  6  0  0  0
  4  5  1  0  0  0  0
  4 14  1  0  0  0  0
  5  6  1  0  0  0  0
  5 13  1  1  0  0  0
  6  7  1  0  0  0  0
  6 15  1  1  0  0  0
  7  8  1  0  0  0  0
  7 11  1  1  0  0  0
  8 14  1  0  0  0  0
  8 16  1  6  0  0  0
  9 11  1  0  0  0  0
 17 16  1  1  0  0  0
 17 18  1  0  0  0  0
 17 24  1  0  0  0  0
 18 19  1  0  0  0  0
 18 25  1  1  0  0  0
 19 20  1  0  0  0  0
 19 26  1  6  0  0  0
 20 21  1  0  0  0  0
 20 23  1  1  0  0  0
 21 22  1  6  0  0  0
 21 24  1  0  0  0  0
 22 27  1  0  0  0  0
 28 12  1  1  0  0  0
 28 29  1  0  0  0  0
 28 33  1  0  0  0  0
 29 30  1  0  0  0  0
 29 36  1  1  0  0  0
 30 31  1  0  0  0  0
 30 37  1  6  0  0  0
 31 32  1  0  0  0  0
 31 34  1  6  0  0  0
 32 33  1  0  0  0  0
 33 35  1  1  0  0  0
M  END
>  <CHROM.1>
-166.66812697,76.73165223,32.35015619,169.95126737,62.28737368,113.59519481
12.13611047,1.63081555,35.06993308,1.88194452,0.76227829,-0.70309814

>  <Name>
2oe5_lig

>  <RI>
0

>  <Rbt.Current_Directory>
/home/afrankz/demos/rdock_decoys_rna/rnas/2oe5

>  <Rbt.Executable>
rbdock ($Id: //depot/dev/client3/rdock/2013.1/src/exe/rbdock.cxx#4 $)

>  <Rbt.Library>
libRbt.so (2013.1, Build901 2013/11/27)

>  <Rbt.Parameter_File>
/export/apps/rDock/src/rDock_2013.1_src/data/scripts/dock_solv.prm

>  <Rbt.Receptor>
prm/blind_docking_40.prm

>  <SCORE>
18.2453

>  <SCORE.INTER>
0.92083

>  <SCORE.INTER.CONST>
1

>  <SCORE.INTER.POLAR>
0

>  <SCORE.INTER.ROT>
6

>  <SCORE.INTER.SOLV>
15.0166

>  <SCORE.INTER.VDW>
-11.9917

>  <SCORE.INTER.norm>
0.0248873

>  <SCORE.INTRA>
4.29928

>  <SCORE.INTRA.DIHEDRAL>
-4.42944

>  <SCORE.INTRA.DIHEDRAL.0>
16.2083

>  <SCORE.INTRA.POLAR>
0

>  <SCORE.INTRA.POLAR.0>
0

>  <SCORE.INTRA.REPUL>
0

>  <SCORE.INTRA.REPUL.0>
0

>  <SCORE.INTRA.SOLV>
2.20408

>  <SCORE.INTRA.SOLV.lig_0>
-89.8095

>  <SCORE.INTRA.VDW>
5.41196

>  <SCORE.INTRA.VDW.0>
-3.19502

>  <SCORE.INTRA.norm>
0.116197

>  <SCORE.RESTR>
13.0252

>  <SCORE.RESTR.CAVITY>
13.0252

>  <SCORE.RESTR.norm>
0.352031

>  <SCORE.SYSTEM>
0

>  <SCORE.SYSTEM.CONST>
0

>  <SCORE.SYSTEM.DIHEDRAL>
0

>  <SCORE.SYSTEM.SOLV>
0

>  <SCORE.SYSTEM.norm>
0

>  <SCORE.heavy>
37

>  <SCORE.norm>
0.493115

>  <RMSD>
20.593

$$$$
2oe5_lig
 OpenBabel11021811463D
libRbt.so/2013.1/901 2013/11/27
 37 40  0  0  0  0  0  0  0  0999 V2000
   13.4532   -0.4201   33.9641 C   0  0  1  0  0  0  0  0  0  0  0  0
   14.1235    0.4131   32.8488 C   0  0  1  0  0  0  0  0  0  0  0  0
   14.1341    1.9299   33.2688 C   0  0  0  0  0  0  0  0  0  0  0  0
   12.6495    2.3079   33.4697 C   0  0  1  0  0  0  0  0  0  0  0  0
   11.9737    1.4365   34.6188 C   0  0  1  0  0  0  0  0  0  0  0  0
   10.4818    1.8060   34.8421 C   0  0  1  0  0  0  0  0  0  0  0  0
   10.4428    3.3132   35.2237 C   0  0  1  0  0  0  0  0  0  0  0  0
   11.1595    4.1324   34.0843 C   0  0  2  0  0  0  0  0  0  0  0  0
    8.2612    3.4366   36.6688 C   0  0  0  0  0  0  0  0  0  0  0  0
   15.5145   -0.0498   32.6381 N   0  0  0  0  0  0  0  0  0  0  0  0
    9.0148    3.7719   35.4104 N   0  0  0  0  0  0  0  0  0  0  0  0
   14.1874   -0.3565   35.1977 O   0  0  0  0  0  0  0  0  0  0  0  0
   12.0794    0.0256   34.2413 O   0  0  0  0  0  0  0  0  0  0  0  0
   12.5538    3.7041   33.8600 O   0  0  0  0  0  0  0  0  0  0  0  0
    9.7767    1.5485   33.6236 O   0  0  0  0  0  0  0  0  0  0  0  0
   11.1996    5.5037   34.4269 O   0  0  0  0  0  0  0  0  0  0  0  0
   11.4613    5.6542   35.8096 C   0  0  2  0  0  0  0  0  0  0  0  0
   11.2885    7.0981   36.2794 C   0  0  1  0  0  0  0  0  0  0  0  0
   12.3236    8.0367   35.6005 C   0  0  2  0  0  0  0  0  0  0  0  0
   13.7427    7.4847   35.9281 C   0  0  1  0  0  0  0  0  0  0  0  0
   13.8392    6.0265   35.3708 C   0  0  1  0  0  0  0  0  0  0  0  0
   15.1655    5.3683   35.6792 C   0  0  0  0  0  0  0  0  0  0  0  0
   14.7580    8.3933   35.2740 N   0  0  0  0  0  0  0  0  0  0  0  0
   12.8322    5.2140   36.0639 O   0  0  0  0  0  0  0  0  0  0  0  0
    9.9425    7.5005   35.9570 O   0  0  0  0  0  0  0  0  0  0  0  0
   12.1743    9.3504   36.1687 O   0  0  0  0  0  0  0  0  0  0  0  0
   15.1624    4.0187   35.3609 O   0  0  0  0  0  0  0  0  0  0  0  0
   13.8661   -1.3948   36.1235 C   0  0  1  0  0  0  0  0  0  0  0  0
   12.3359   -1.3428   36.4738 C   0  0  1  0  0  0  0  0  0  0  0  0
   12.0047   -2.5013   37.4820 C   0  0  2  0  0  0  0  0  0  0  0  0
   12.3336   -3.8524   36.8292 C   0  0  1  0  0  0  0  0  0  0  0  0
   13.8734   -3.9087   36.4911 C   0  0  0  0  0  0  0  0  0  0  0  0
   14.2121   -2.7354   35.4896 C   0  0  2  0  0  0  0  0  0  0  0  0
   12.0054   -4.9158   37.7644 N   0  0  0  0  0  0  0  0  0  0  0  0
   15.6622   -2.7400   35.1622 N   0  0  0  0  0  0  0  0  0  0  0  0
   12.0193   -0.0629   37.0926 O   0  0  0  0  0  0  0  0  0  0  0  0
   10.6349   -2.4700   37.7834 O   0  0  0  0  0  0  0  0  0  0  0  0
  1  2  1  0  0  0  0
  1 12  1  1  0  0  0
  1 13  1  0  0  0  0
  2  3  1  0  0  0  0
  2 10  1  1  0  0  0
  4  3  1  1  0  0  0
  4  5  1  0  0  0  0
  4 14  1  0  0  0  0
  5  6  1  0  0  0  0
  5 13  1  6  0  0  0
  6  7  1  0  0  0  0
  6 15  1  6  0  0  0
  7  8  1  0  0  0  0
  7 11  1  6  0  0  0
  8 14  1  0  0  0  0
  8 16  1  1  0  0  0
  9 11  1  0  0  0  0
 17 16  1  6  0  0  0
 17 18  1  0  0  0  0
 17 24  1  0  0  0  0
 18 19  1  0  0  0  0
 18 25  1  6  0  0  0
 19 20  1  0  0  0  0
 19 26  1  1  0  0  0
 20 21  1  0  0  0  0
 20 23  1  6  0  0  0
 21 22  1  1  0  0  0
 21 24  1  0  0  0  0
 22 27  1  0  0  0  0
 28 12  1  6  0  0  0
 28 29  1  0  0  0  0
 28 33  1  0  0  0  0
 29 30  1  0  0  0  0
 29 36  1  1  0  0  0
 30 31  1  0  0  0  0
 30 37  1  6  0  0  0
 31 32  1  0  0  0  0
 31 34  1  1  0  0  0
 32 33  1  0  0  0  0
 33 35  1  1  0  0  0
M  END
>  <CHROM.1>
-161.99526890,77.45210058,39.04344037,-170.56945688,170.87214688,-58.83664126
12.47849073,2.22505664,35.37363270,-1.47786593,0.33564685,-0.08598624

>  <Name>
2oe5_lig

>  <RI>
0

>  <Rbt.Current_Directory>
/home/afrankz/demos/rdock_decoys_rna/rnas/2oe5

>  <Rbt.Executable>
rbdock ($Id: //depot/dev/client3/rdock/2013.1/src/exe/rbdock.cxx#4 $)

>  <Rbt.Library>
libRbt.so (2013.1, Build901 2013/11/27)

>  <Rbt.Parameter_File>
/export/apps/rDock/src/rDock_2013.1_src/data/scripts/dock_solv.prm

>  <Rbt.Receptor>
prm/blind_docking_40.prm

>  <SCORE>
14.5416

>  <SCORE.INTER>
1.56244

>  <SCORE.INTER.CONST>
1

>  <SCORE.INTER.POLAR>
0

>  <SCORE.INTER.ROT>
6

>  <SCORE.INTER.SOLV>
13.2911

>  <SCORE.INTER.VDW>
-10.9887

>  <SCORE.INTER.norm>
0.0422281

>  <SCORE.INTRA>
-1.42699

>  <SCORE.INTRA.DIHEDRAL>
-11.7313

>  <SCORE.INTRA.DIHEDRAL.0>
16.2083

>  <SCORE.INTRA.POLAR>
0

>  <SCORE.INTRA.POLAR.0>
0

>  <SCORE.INTRA.REPUL>
0

>  <SCORE.INTRA.REPUL.0>
0

>  <SCORE.INTRA.SOLV>
0.654597

>  <SCORE.INTRA.SOLV.lig_0>
-89.8095

>  <SCORE.INTRA.VDW>
4.11137

>  <SCORE.INTRA.VDW.0>
-3.19502

>  <SCORE.INTRA.norm>
-0.0385674

>  <SCORE.RESTR>
14.4061

>  <SCORE.RESTR.CAVITY>
14.4061

>  <SCORE.RESTR.norm>
0.389354

>  <SCORE.SYSTEM>
0

>  <SCORE.SYSTEM.CONST>
0

>  <SCORE.SYSTEM.DIHEDRAL>
0

>  <SCORE.SYSTEM.SOLV>
0

>  <SCORE.SYSTEM.norm>
0

>  <SCORE.heavy>
37

>  <SCORE.norm>
0.393015

>  <RMSD>
20.595

$$$$
2oe5_lig
 OpenBabel11021811463D
libRbt.so/2013.1/901 2013/11/27
 37 40  0  0  0  0  0  0  0  0999 V2000
   13.0041    4.2925   32.5080 C   0  0  1  0  0  0  0  0  0  0  0  0
   11.4751    4.0866   32.4246 C   0  0  1  0  0  0  0  0  0  0  0  0
   11.0033    3.2011   33.6372 C   0  0  0  0  0  0  0  0  0  0  0  0
   11.7812    1.8732   33.4997 C   0  0  1  0  0  0  0  0  0  0  0  0
   13.3546    2.1048   33.5829 C   0  0  1  0  0  0  0  0  0  0  0  0
   14.1556    0.7805   33.4540 C   0  0  1  0  0  0  0  0  0  0  0  0
   13.6907   -0.1426   34.6161 C   0  0  1  0  0  0  0  0  0  0  0  0
   12.1264   -0.3087   34.5227 C   0  0  2  0  0  0  0  0  0  0  0  0
   14.4528   -2.3841   35.7376 C   0  0  0  0  0  0  0  0  0  0  0  0
   10.7849    5.3961   32.4724 N   0  0  0  0  0  0  0  0  0  0  0  0
   14.3876   -1.4814   34.5356 N   0  0  0  0  0  0  0  0  0  0  0  0
   13.3861    5.0095   33.6933 O   0  0  0  0  0  0  0  0  0  0  0  0
   13.7377    3.0179   32.5041 O   0  0  0  0  0  0  0  0  0  0  0  0
   11.4083    0.9792   34.5825 O   0  0  0  0  0  0  0  0  0  0  0  0
   13.8628    0.2110   32.1741 O   0  0  0  0  0  0  0  0  0  0  0  0
   11.6582   -1.0922   35.6026 O   0  0  0  0  0  0  0  0  0  0  0  0
   11.8553   -0.4067   36.8250 C   0  0  2  0  0  0  0  0  0  0  0  0
   11.6146   -1.3034   38.0389 C   0  0  1  0  0  0  0  0  0  0  0  0
   10.1341   -1.7688   38.1078 C   0  0  2  0  0  0  0  0  0  0  0  0
    9.2424   -0.4923   38.1421 C   0  0  1  0  0  0  0  0  0  0  0  0
    9.5237    0.3339   36.8442 C   0  0  1  0  0  0  0  0  0  0  0  0
    8.7454    1.6297   36.7947 C   0  0  0  0  0  0  0  0  0  0  0  0
    7.7989   -0.9346   38.2122 N   0  0  0  0  0  0  0  0  0  0  0  0
   10.9368    0.7303   36.8624 O   0  0  0  0  0  0  0  0  0  0  0  0
   12.5026   -2.4332   37.9259 O   0  0  0  0  0  0  0  0  0  0  0  0
    9.9570   -2.5135   39.3265 O   0  0  0  0  0  0  0  0  0  0  0  0
    9.0626    2.4673   37.8533 O   0  0  0  0  0  0  0  0  0  0  0  0
   12.7029    6.2505   33.8716 C   0  0  1  0  0  0  0  0  0  0  0  0
   12.6365    6.6083   35.3996 C   0  0  1  0  0  0  0  0  0  0  0  0
   11.8932    7.9820   35.5690 C   0  0  2  0  0  0  0  0  0  0  0  0
   12.6708    9.0759   34.8216 C   0  0  1  0  0  0  0  0  0  0  0  0
   12.7243    8.7224   33.2852 C   0  0  0  0  0  0  0  0  0  0  0  0
   13.4574    7.3341   33.1133 C   0  0  2  0  0  0  0  0  0  0  0  0
   11.9836   10.3441   35.0017 N   0  0  0  0  0  0  0  0  0  0  0  0
   13.5092    6.9532   31.6772 N   0  0  0  0  0  0  0  0  0  0  0  0
   11.9004    5.5732   36.1125 O   0  0  0  0  0  0  0  0  0  0  0  0
   11.8480    8.3146   36.9312 O   0  0  0  0  0  0  0  0  0  0  0  0
  1  2  1  0  0  0  0
  1 12  1  1  0  0  0
  1 13  1  0  0  0  0
  2  3  1  0  0  0  0
  2 10  1  1  0  0  0
  4  3  1  1  0  0  0
  4  5  1  0  0  0  0
  4 14  1  0  0  0  0
  5  6  1  0  0  0  0
  5 13  1  6  0  0  0
  6  7  1  0  0  0  0
  6 15  1  6  0  0  0
  7  8  1  0  0  0  0
  7 11  1  6  0  0  0
  8 14  1  0  0  0  0
  8 16  1  1  0  0  0
  9 11  1  0  0  0  0
 17 16  1  6  0  0  0
 17 18  1  0  0  0  0
 17 24  1  0  0  0  0
 18 19  1  0  0  0  0
 18 25  1  6  0  0  0
 19 20  1  0  0  0  0
 19 26  1  1  0  0  0
 20 21  1  0  0  0  0
 20 23  1  6  0  0  0
 21 22  1  1  0  0  0
 21 24  1  0  0  0  0
 22 27  1  0  0  0  0
 28 12  1  1  0  0  0
 28 29  1  0  0  0  0
 28 33  1  0  0  0  0
 29 30  1  0  0  0  0
 29 36  1  1  0  0  0
 30 31  1  0  0  0  0
 30 37  1  1  0  0  0
 31 32  1  0  0  0  0
 31 34  1  6  0  0  0
 32 33  1  0  0  0  0
 33 35  1  6  0  0  0
M  END
>  <CHROM.1>
-53.42473651,160.98014977,66.02217022,-169.20102288,60.68960810,153.17487554
11.91463402,2.60316417,35.17387777,-1.34027389,-0.88113943,2.98574621

>  <Name>
2oe5_lig

>  <RI>
0

>  <Rbt.Current_Directory>
/home/afrankz/demos/rdock_decoys_rna/rnas/2oe5

>  <Rbt.Executable>
rbdock ($Id: //depot/dev/client3/rdock/2013.1/src/exe/rbdock.cxx#4 $)

>  <Rbt.Library>
libRbt.so (2013.1, Build901 2013/11/27)

>  <Rbt.Parameter_File>
/export/apps/rDock/src/rDock_2013.1_src/data/scripts/dock_solv.prm

>  <Rbt.Receptor>
prm/blind_docking_40.prm

>  <SCORE>
23.341

>  <SCORE.INTER>
6.96593

>  <SCORE.INTER.CONST>
1

>  <SCORE.INTER.POLAR>
0

>  <SCORE.INTER.ROT>
6

>  <SCORE.INTER.SOLV>
9.29578

>  <SCORE.INTER.VDW>
-6.05464

>  <SCORE.INTER.norm>
0.188268

>  <SCORE.INTRA>
1.226

>  <SCORE.INTRA.DIHEDRAL>
-11.8889

>  <SCORE.INTRA.DIHEDRAL.0>
16.2083

>  <SCORE.INTRA.POLAR>
0

>  <SCORE.INTRA.POLAR.0>
0

>  <SCORE.INTRA.REPUL>
0

>  <SCORE.INTRA.REPUL.0>
0

>  <SCORE.INTRA.SOLV>
4.07215

>  <SCORE.INTRA.SOLV.lig_0>
-89.8095

>  <SCORE.INTRA.VDW>
5.13436

>  <SCORE.INTRA.VDW.0>
-3.19502

>  <SCORE.INTRA.norm>
0.0331353

>  <SCORE.RESTR>
15.149

>  <SCORE.RESTR.CAVITY>
15.149

>  <SCORE.RESTR.norm>
0.409433

>  <SCORE.SYSTEM>
0

>  <SCORE.SYSTEM.CONST>
0

>  <SCORE.SYSTEM.DIHEDRAL>
0

>  <SCORE.SYSTEM.SOLV>
0

>  <SCORE.SYSTEM.norm>
0

>  <SCORE.heavy>
37

>  <SCORE.norm>
0.630837

>  <RMSD>
20.638

$$$$
2oe5_lig
 OpenBabel11021811463D
libRbt.so/2013.1/901 2013/11/27
 37 40  0  0  0  0  0  0  0  0999 V2000
   14.5931   -1.7085   33.6013 C   0  0  1  0  0  0  0  0  0  0  0  0
   15.1678   -0.7549   32.5300 C   0  0  1  0  0  0  0  0  0  0  0  0
   14.9263    0.7347   32.9773 C   0  0  0  0  0  0  0  0  0  0  0  0
   13.3943    0.8735   33.1233 C   0  0  1  0  0  0  0  0  0  0  0  0
   12.8190   -0.1196   34.2274 C   0  0  1  0  0  0  0  0  0  0  0  0
   11.2803    0.0092   34.3952 C   0  0  1  0  0  0  0  0  0  0  0  0
   10.9928    1.4825   34.8020 C   0  0  1  0  0  0  0  0  0  0  0  0
   11.6164    2.4301   33.7083 C   0  0  2  0  0  0  0  0  0  0  0  0
    8.7265    1.0488   36.0424 C   0  0  0  0  0  0  0  0  0  0  0  0
   16.6209   -0.9918   32.3689 N   0  0  0  0  0  0  0  0  0  0  0  0
    9.5047    1.7101   34.9374 N   0  0  0  0  0  0  0  0  0  0  0  0
   15.2608   -1.5621   34.8652 O   0  0  0  0  0  0  0  0  0  0  0  0
   13.1571   -1.4876   33.8292 O   0  0  0  0  0  0  0  0  0  0  0  0
   13.0679    2.2282   33.5344 O   0  0  0  0  0  0  0  0  0  0  0  0
   10.6709   -0.3246   33.1440 O   0  0  0  0  0  0  0  0  0  0  0  0
   11.4296    3.7823   34.0770 O   0  0  0  0  0  0  0  0  0  0  0  0
   12.5991    4.2863   34.6945 C   0  0  2  0  0  0  0  0  0  0  0  0
   12.2846    5.3045   35.7898 C   0  0  1  0  0  0  0  0  0  0  0  0
   11.6005    6.5688   35.2009 C   0  0  2  0  0  0  0  0  0  0  0  0
   12.5532    7.1559   34.1176 C   0  0  1  0  0  0  0  0  0  0  0  0
   12.7780    6.0627   33.0219 C   0  0  1  0  0  0  0  0  0  0  0  0
   13.7350    6.5075   31.9385 C   0  0  0  0  0  0  0  0  0  0  0  0
   11.8977    8.3890   33.5400 N   0  0  0  0  0  0  0  0  0  0  0  0
   13.4251    4.9117   33.6628 O   0  0  0  0  0  0  0  0  0  0  0  0
   11.4261    4.6571   36.7498 O   0  0  0  0  0  0  0  0  0  0  0  0
   11.4347    7.5229   36.2654 O   0  0  0  0  0  0  0  0  0  0  0  0
   15.0506    6.5107   32.3764 O   0  0  0  0  0  0  0  0  0  0  0  0
   14.5609   -2.1410   35.9668 C   0  0  1  0  0  0  0  0  0  0  0  0
   13.3985   -1.1874   36.4211 C   0  0  1  0  0  0  0  0  0  0  0  0
   12.6359   -1.8512   37.6237 C   0  0  2  0  0  0  0  0  0  0  0  0
   12.0463   -3.1956   37.1714 C   0  0  1  0  0  0  0  0  0  0  0  0
   13.2159   -4.1572   36.7290 C   0  0  0  0  0  0  0  0  0  0  0  0
   13.9939   -3.4851   35.5301 C   0  0  2  0  0  0  0  0  0  0  0  0
   11.3281   -3.7901   38.2866 N   0  0  0  0  0  0  0  0  0  0  0  0
   15.1211   -4.3521   35.0969 N   0  0  0  0  0  0  0  0  0  0  0  0
   13.9530    0.0892   36.8504 O   0  0  0  0  0  0  0  0  0  0  0  0
   11.5849   -1.0109   38.0208 O   0  0  0  0  0  0  0  0  0  0  0  0
  1  2  1  0  0  0  0
  1 12  1  1  0  0  0
  1 13  1  0  0  0  0
  2  3  1  0  0  0  0
  2 10  1  1  0  0  0
  4  3  1  1  0  0  0
  4  5  1  0  0  0  0
  4 14  1  0  0  0  0
  5  6  1  0  0  0  0
  5 13  1  6  0  0  0
  6  7  1  0  0  0  0
  6 15  1  6  0  0  0
  7  8  1  0  0  0  0
  7 11  1  6  0  0  0
  8 14  1  0  0  0  0
  8 16  1  1  0  0  0
  9 11  1  0  0  0  0
 17 16  1  6  0  0  0
 17 18  1  0  0  0  0
 17 24  1  0  0  0  0
 18 19  1  0  0  0  0
 18 25  1  1  0  0  0
 19 20  1  0  0  0  0
 19 26  1  1  0  0  0
 20 21  1  0  0  0  0
 20 23  1  6  0  0  0
 21 22  1  6  0  0  0
 21 24  1  0  0  0  0
 22 27  1  0  0  0  0
 28 12  1  6  0  0  0
 28 29  1  0  0  0  0
 28 33  1  0  0  0  0
 29 30  1  0  0  0  0
 29 36  1  1  0  0  0
 30 31  1  0  0  0  0
 30 37  1  6  0  0  0
 31 32  1  0  0  0  0
 31 34  1  1  0  0  0
 32 33  1  0  0  0  0
 33 35  1  1  0  0  0
M  END
>  <CHROM.1>
164.26109115,67.73469639,97.84075295,-146.04680038,74.27517107,-78.79599504
12.79622990,1.40044503,34.79369958,-1.42491141,0.71420873,-0.28735395

>  <Name>
2oe5_lig

>  <RI>
0

>  <Rbt.Current_Directory>
/home/afrankz/demos/rdock_decoys_rna/rnas/2oe5

>  <Rbt.Executable>
rbdock ($Id: //depot/dev/client3/rdock/2013.1/src/exe/rbdock.cxx#4 $)

>  <Rbt.Library>
libRbt.so (2013.1, Build901 2013/11/27)

>  <Rbt.Parameter_File>
/export/apps/rDock/src/rDock_2013.1_src/data/scripts/dock_solv.prm

>  <Rbt.Receptor>
prm/blind_docking_40.prm

>  <SCORE>
45.3833

>  <SCORE.INTER>
20.659

>  <SCORE.INTER.CONST>
1

>  <SCORE.INTER.POLAR>
0

>  <SCORE.INTER.ROT>
6

>  <SCORE.INTER.SOLV>
20.7219

>  <SCORE.INTER.VDW>
-0.734661

>  <SCORE.INTER.norm>
0.558351

>  <SCORE.INTRA>
11.3454

>  <SCORE.INTRA.DIHEDRAL>
-3.29642

>  <SCORE.INTRA.DIHEDRAL.0>
16.2083

>  <SCORE.INTRA.POLAR>
0

>  <SCORE.INTRA.POLAR.0>
0

>  <SCORE.INTRA.REPUL>
0

>  <SCORE.INTRA.REPUL.0>
0

>  <SCORE.INTRA.SOLV>
-0.319043

>  <SCORE.INTRA.SOLV.lig_0>
-89.8095

>  <SCORE.INTRA.VDW>
13.1532

>  <SCORE.INTRA.VDW.0>
-3.19502

>  <SCORE.INTRA.norm>
0.306634

>  <SCORE.RESTR>
13.3789

>  <SCORE.RESTR.CAVITY>
13.3789

>  <SCORE.RESTR.norm>
0.361592

>  <SCORE.SYSTEM>
0

>  <SCORE.SYSTEM.CONST>
0

>  <SCORE.SYSTEM.DIHEDRAL>
0

>  <SCORE.SYSTEM.SOLV>
0

>  <SCORE.SYSTEM.norm>
0

>  <SCORE.heavy>
37

>  <SCORE.norm>
1.22658

>  <RMSD>
20.645

$$$$
2oe5_lig
 OpenBabel11021811463D
libRbt.so/2013.1/901 2013/11/27
 37 40  0  0  0  0  0  0  0  0999 V2000
   12.2049   -1.3210   36.4766 C   0  0  1  0  0  0  0  0  0  0  0  0
   13.6942   -0.9093   36.4686 C   0  0  1  0  0  0  0  0  0  0  0  0
   13.8272    0.5688   36.9927 C   0  0  0  0  0  0  0  0  0  0  0  0
   12.9786    1.4230   36.0243 C   0  0  1  0  0  0  0  0  0  0  0  0
   11.4484    0.9818   36.0418 C   0  0  1  0  0  0  0  0  0  0  0  0
   10.5758    1.8334   35.0798 C   0  0  1  0  0  0  0  0  0  0  0  0
   10.7092    3.3128   35.5405 C   0  0  1  0  0  0  0  0  0  0  0  0
   12.2383    3.6934   35.5516 C   0  0  2  0  0  0  0  0  0  0  0  0
    9.5485    5.6115   35.0592 C   0  0  0  0  0  0  0  0  0  0  0  0
   14.4741   -1.8146   37.3435 N   0  0  0  0  0  0  0  0  0  0  0  0
    9.9268    4.2226   34.6214 N   0  0  0  0  0  0  0  0  0  0  0  0
   11.6543   -1.3210   37.8038 O   0  0  0  0  0  0  0  0  0  0  0  0
   11.3770   -0.4279   35.6522 O   0  0  0  0  0  0  0  0  0  0  0  0
   13.0410    2.8174   36.4270 O   0  0  0  0  0  0  0  0  0  0  0  0
   11.0720    1.6445   33.7508 O   0  0  0  0  0  0  0  0  0  0  0  0
   12.4041    5.0147   36.0268 O   0  0  0  0  0  0  0  0  0  0  0  0
   13.5316    5.6151   35.4173 C   0  0  2  0  0  0  0  0  0  0  0  0
   13.3591    7.1226   35.2350 C   0  0  1  0  0  0  0  0  0  0  0  0
   12.1945    7.4399   34.2572 C   0  0  2  0  0  0  0  0  0  0  0  0
   12.5051    6.7232   32.9097 C   0  0  1  0  0  0  0  0  0  0  0  0
   12.6175    5.1883   33.1885 C   0  0  1  0  0  0  0  0  0  0  0  0
   12.9707    4.3927   31.9516 C   0  0  0  0  0  0  0  0  0  0  0  0
   11.3785    7.0282   31.9496 N   0  0  0  0  0  0  0  0  0  0  0  0
   13.7366    4.9816   34.1156 O   0  0  0  0  0  0  0  0  0  0  0  0
   13.1058    7.6901   36.5356 O   0  0  0  0  0  0  0  0  0  0  0  0
   12.1618    8.8636   34.0497 O   0  0  0  0  0  0  0  0  0  0  0  0
   14.2367    4.7025   31.4784 O   0  0  0  0  0  0  0  0  0  0  0  0
   10.3013   -1.7715   37.8756 C   0  0  1  0  0  0  0  0  0  0  0  0
    9.3428   -0.6787   37.2807 C   0  0  1  0  0  0  0  0  0  0  0  0
    7.8635   -1.2022   37.3583 C   0  0  2  0  0  0  0  0  0  0  0  0
    7.7379   -2.4939   36.5363 C   0  0  1  0  0  0  0  0  0  0  0  0
    8.6905   -3.5948   37.1437 C   0  0  0  0  0  0  0  0  0  0  0  0
   10.1769   -3.0646   37.0811 C   0  0  2  0  0  0  0  0  0  0  0  0
    6.3616   -2.9572   36.6008 N   0  0  0  0  0  0  0  0  0  0  0  0
   11.1063   -4.0666   37.6659 N   0  0  0  0  0  0  0  0  0  0  0  0
    9.4590    0.5484   38.0567 O   0  0  0  0  0  0  0  0  0  0  0  0
    7.0055   -0.2365   36.8108 O   0  0  0  0  0  0  0  0  0  0  0  0
  1  2  1  0  0  0  0
  1 12  1  1  0  0  0
  1 13  1  0  0  0  0
  2  3  1  0  0  0  0
  2 10  1  1  0  0  0
  4  3  1  1  0  0  0
  4  5  1  0  0  0  0
  4 14  1  0  0  0  0
  5  6  1  0  0  0  0
  5 13  1  6  0  0  0
  6  7  1  0  0  0  0
  6 15  1  6  0  0  0
  7  8  1  0  0  0  0
  7 11  1  6  0  0  0
  8 14  1  0  0  0  0
  8 16  1  1  0  0  0
  9 11  1  0  0  0  0
 17 16  1  6  0  0  0
 17 18  1  0  0  0  0
 17 24  1  0  0  0  0
 18 19  1  0  0  0  0
 18 25  1  1  0  0  0
 19 20  1  0  0  0  0
 19 26  1  6  0  0  0
 20 21  1  0  0  0  0
 20 23  1  6  0  0  0
 21 22  1  6  0  0  0
 21 24  1  0  0  0  0
 22 27  1  0  0  0  0
 28 12  1  6  0  0  0
 28 29  1  0  0  0  0
 28 33  1  0  0  0  0
 29 30  1  0  0  0  0
 29 36  1  1  0  0  0
 30 31  1  0  0  0  0
 30 37  1  6  0  0  0
 31 32  1  0  0  0  0
 31 34  1  1  0  0  0
 32 33  1  0  0  0  0
 33 35  1  1  0  0  0
M  END
>  <CHROM.1>
-176.46440346,161.56851509,-148.79938153,148.14022287,65.12122537,-72.70204393
11.39077185,2.09920417,35.62057509,-1.87891324,-0.00044067,-0.35590643

>  <Name>
2oe5_lig

>  <RI>
0

>  <Rbt.Current_Directory>
/home/afrankz/demos/rdock_decoys_rna/rnas/2oe5

>  <Rbt.Executable>
rbdock ($Id: //depot/dev/client3/rdock/2013.1/src/exe/rbdock.cxx#4 $)

>  <Rbt.Library>
libRbt.so (2013.1, Build901 2013/11/27)

>  <Rbt.Parameter_File>
/export/apps/rDock/src/rDock_2013.1_src/data/scripts/dock_solv.prm

>  <Rbt.Receptor>
prm/blind_docking_40.prm

>  <SCORE>
19.7333

>  <SCORE.INTER>
1.91855

>  <SCORE.INTER.CONST>
1

>  <SCORE.INTER.POLAR>
0

>  <SCORE.INTER.ROT>
6

>  <SCORE.INTER.SOLV>
6.05818

>  <SCORE.INTER.VDW>
-8.34036

>  <SCORE.INTER.norm>
0.0518527

>  <SCORE.INTRA>
2.50559

>  <SCORE.INTRA.DIHEDRAL>
-7.19464

>  <SCORE.INTRA.DIHEDRAL.0>
16.2083

>  <SCORE.INTRA.POLAR>
0

>  <SCORE.INTRA.POLAR.0>
0

>  <SCORE.INTRA.REPUL>
0

>  <SCORE.INTRA.REPUL.0>
0

>  <SCORE.INTRA.SOLV>
1.50308

>  <SCORE.INTRA.SOLV.lig_0>
-89.8095

>  <SCORE.INTRA.VDW>
5.35138

>  <SCORE.INTRA.VDW.0>
-3.19502

>  <SCORE.INTRA.norm>
0.0677188

>  <SCORE.RESTR>
15.3091

>  <SCORE.RESTR.CAVITY>
15.3091

>  <SCORE.RESTR.norm>
0.41376

>  <SCORE.SYSTEM>
0

>  <SCORE.SYSTEM.CONST>
0

>  <SCORE.SYSTEM.DIHEDRAL>
0

>  <SCORE.SYSTEM.SOLV>
0

>  <SCORE.SYSTEM.norm>
0

>  <SCORE.heavy>
37

>  <SCORE.norm>
0.533331

>  <RMSD>
20.653

$$$$
2oe5_lig
 OpenBabel11021811463D
libRbt.so/2013.1/901 2013/11/27
 37 40  0  0  0  0  0  0  0  0999 V2000
   12.9905    4.3539   32.5183 C   0  0  1  0  0  0  0  0  0  0  0  0
   11.4604    4.1713   32.4040 C   0  0  1  0  0  0  0  0  0  0  0  0
   10.9552    3.2675   33.5894 C   0  0  0  0  0  0  0  0  0  0  0  0
   11.7170    1.9319   33.4373 C   0  0  1  0  0  0  0  0  0  0  0  0
   13.2917    2.1395   33.5528 C   0  0  1  0  0  0  0  0  0  0  0  0
   14.0766    0.8069   33.4099 C   0  0  1  0  0  0  0  0  0  0  0  0
   13.5786   -0.1335   34.5440 C   0  0  1  0  0  0  0  0  0  0  0  0
   12.0141   -0.2755   34.4200 C   0  0  2  0  0  0  0  0  0  0  0  0
   15.6776   -1.5879   33.9597 C   0  0  0  0  0  0  0  0  0  0  0  0
   10.7875    5.4891   32.4674 N   0  0  0  0  0  0  0  0  0  0  0  0
   14.2583   -1.4801   34.4474 N   0  0  0  0  0  0  0  0  0  0  0  0
   13.3613    5.0405   33.7249 O   0  0  0  0  0  0  0  0  0  0  0  0
   13.7063    3.0694   32.5003 O   0  0  0  0  0  0  0  0  0  0  0  0
   11.3128    1.0209   34.4944 O   0  0  0  0  0  0  0  0  0  0  0  0
   13.7986    0.2685   32.1134 O   0  0  0  0  0  0  0  0  0  0  0  0
   11.5161   -1.0746   35.4748 O   0  0  0  0  0  0  0  0  0  0  0  0
   12.0537   -0.6426   36.7107 C   0  0  2  0  0  0  0  0  0  0  0  0
   11.6343   -1.5425   37.8725 C   0  0  1  0  0  0  0  0  0  0  0  0
   10.0980   -1.4902   38.0965 C   0  0  2  0  0  0  0  0  0  0  0  0
    9.7107   -0.0021   38.3445 C   0  0  1  0  0  0  0  0  0  0  0  0
   10.1356    0.8280   37.0889 C   0  0  1  0  0  0  0  0  0  0  0  0
    9.8528    2.3060   37.2409 C   0  0  0  0  0  0  0  0  0  0  0  0
    8.2170    0.0594   38.5666 N   0  0  0  0  0  0  0  0  0  0  0  0
   11.5935    0.7236   36.9545 O   0  0  0  0  0  0  0  0  0  0  0  0
   12.0614   -2.8829   37.5585 O   0  0  0  0  0  0  0  0  0  0  0  0
    9.7911   -2.2697   39.2666 O   0  0  0  0  0  0  0  0  0  0  0  0
    8.5143    2.5548   37.5039 O   0  0  0  0  0  0  0  0  0  0  0  0
   12.7008    6.2925   33.9117 C   0  0  1  0  0  0  0  0  0  0  0  0
   12.6743    6.6592   35.4387 C   0  0  1  0  0  0  0  0  0  0  0  0
   11.9556    8.0448   35.6172 C   0  0  2  0  0  0  0  0  0  0  0  0
   12.7323    9.1230   34.8465 C   0  0  1  0  0  0  0  0  0  0  0  0
   12.7457    8.7608   33.3113 C   0  0  0  0  0  0  0  0  0  0  0  0
   13.4540    7.3607   33.1306 C   0  0  2  0  0  0  0  0  0  0  0  0
   12.0683   10.4023   35.0350 N   0  0  0  0  0  0  0  0  0  0  0  0
   13.4676    6.9716   31.6959 N   0  0  0  0  0  0  0  0  0  0  0  0
   11.9392    5.6390   36.1738 O   0  0  0  0  0  0  0  0  0  0  0  0
   11.9461    8.3851   36.9783 O   0  0  0  0  0  0  0  0  0  0  0  0
  1  2  1  0  0  0  0
  1 12  1  1  0  0  0
  1 13  1  0  0  0  0
  2  3  1  0  0  0  0
  2 10  1  1  0  0  0
  4  3  1  1  0  0  0
  4  5  1  0  0  0  0
  4 14  1  0  0  0  0
  5  6  1  0  0  0  0
  5 13  1  6  0  0  0
  6  7  1  0  0  0  0
  6 15  1  6  0  0  0
  7  8  1  0  0  0  0
  7 11  1  6  0  0  0
  8 14  1  0  0  0  0
  8 16  1  1  0  0  0
  9 11  1  0  0  0  0
 17 16  1  6  0  0  0
 17 18  1  0  0  0  0
 17 24  1  0  0  0  0
 18 19  1  0  0  0  0
 18 25  1  6  0  0  0
 19 20  1  0  0  0  0
 19 26  1  1  0  0  0
 20 21  1  0  0  0  0
 20 23  1  6  0  0  0
 21 22  1  1  0  0  0
 21 24  1  0  0  0  0
 22 27  1  0  0  0  0
 28 12  1  1  0  0  0
 28 29  1  0  0  0  0
 28 33  1  0  0  0  0
 29 30  1  0  0  0  0
 29 36  1  1  0  0  0
 30 31  1  0  0  0  0
 30 37  1  1  0  0  0
 31 32  1  0  0  0  0
 31 34  1  6  0  0  0
 32 33  1  0  0  0  0
 33 35  1  6  0  0  0
M  END
>  <CHROM.1>
-53.94219028,33.59703091,47.90019256,-175.47490459,-57.08969840,156.09514291
11.98944119,2.71731721,35.11753193,-1.35951572,-0.91375525,3.00036368

>  <Name>
2oe5_lig

>  <RI>
0

>  <Rbt.Current_Directory>
/home/afrankz/demos/rdock_decoys_rna/rnas/2oe5

>  <Rbt.Executable>
rbdock ($Id: //depot/dev/client3/rdock/2013.1/src/exe/rbdock.cxx#4 $)

>  <Rbt.Library>
libRbt.so (2013.1, Build901 2013/11/27)

>  <Rbt.Parameter_File>
/export/apps/rDock/src/rDock_2013.1_src/data/scripts/dock_solv.prm

>  <Rbt.Receptor>
prm/blind_docking_40.prm

>  <SCORE>
26.6934

>  <SCORE.INTER>
9.29697

>  <SCORE.INTER.CONST>
1

>  <SCORE.INTER.POLAR>
0

>  <SCORE.INTER.ROT>
6

>  <SCORE.INTER.SOLV>
9.90329

>  <SCORE.INTER.VDW>
-4.70312

>  <SCORE.INTER.norm>
0.25127

>  <SCORE.INTRA>
2.50771

>  <SCORE.INTRA.DIHEDRAL>
-12.1552

>  <SCORE.INTRA.DIHEDRAL.0>
16.2083

>  <SCORE.INTRA.POLAR>
0

>  <SCORE.INTRA.POLAR.0>
0

>  <SCORE.INTRA.REPUL>
0

>  <SCORE.INTRA.REPUL.0>
0

>  <SCORE.INTRA.SOLV>
4.71298

>  <SCORE.INTRA.SOLV.lig_0>
-89.8095

>  <SCORE.INTRA.VDW>
6.22882

>  <SCORE.INTRA.VDW.0>
-3.19502

>  <SCORE.INTRA.norm>
0.0677759

>  <SCORE.RESTR>
14.8887

>  <SCORE.RESTR.CAVITY>
14.8887

>  <SCORE.RESTR.norm>
0.402398

>  <SCORE.SYSTEM>
0

>  <SCORE.SYSTEM.CONST>
0

>  <SCORE.SYSTEM.DIHEDRAL>
0

>  <SCORE.SYSTEM.SOLV>
0

>  <SCORE.SYSTEM.norm>
0

>  <SCORE.heavy>
37

>  <SCORE.norm>
0.721443

>  <RMSD>
20.663

$$$$
2oe5_lig
 OpenBabel11021811463D
libRbt.so/2013.1/901 2013/11/27
 37 40  0  0  0  0  0  0  0  0999 V2000
   14.4122   -1.5388   33.7237 C   0  0  1  0  0  0  0  0  0  0  0  0
   15.1417   -0.5569   32.7798 C   0  0  1  0  0  0  0  0  0  0  0  0
   15.1318    0.8817   33.4183 C   0  0  0  0  0  0  0  0  0  0  0  0
   13.6390    1.2394   33.5948 C   0  0  1  0  0  0  0  0  0  0  0  0
   12.9023    0.2147   34.5662 C   0  0  1  0  0  0  0  0  0  0  0  0
   11.4011    0.5608   34.7632 C   0  0  1  0  0  0  0  0  0  0  0  0
   11.3437    1.9959   35.3598 C   0  0  1  0  0  0  0  0  0  0  0  0
   12.1208    2.9671   34.3924 C   0  0  2  0  0  0  0  0  0  0  0  0
    9.1983    2.2209   36.8462 C   0  0  0  0  0  0  0  0  0  0  0  0
   16.5413   -0.9963   32.5762 N   0  0  0  0  0  0  0  0  0  0  0  0
    9.9083    2.4350   35.5371 N   0  0  0  0  0  0  0  0  0  0  0  0
   15.0801   -1.6636   34.9899 O   0  0  0  0  0  0  0  0  0  0  0  0
   13.0261   -1.1263   33.9914 O   0  0  0  0  0  0  0  0  0  0  0  0
   13.5245    2.5639   34.1807 O   0  0  0  0  0  0  0  0  0  0  0  0
   10.7613    0.4914   33.4849 O   0  0  0  0  0  0  0  0  0  0  0  0
   12.1443    4.2728   34.9346 O   0  0  0  0  0  0  0  0  0  0  0  0
   13.2048    5.0184   34.3670 C   0  0  2  0  0  0  0  0  0  0  0  0
   13.6761    6.1473   35.2830 C   0  0  1  0  0  0  0  0  0  0  0  0
   12.5545    7.2003   35.4983 C   0  0  2  0  0  0  0  0  0  0  0  0
   12.1314    7.7283   34.0954 C   0  0  1  0  0  0  0  0  0  0  0  0
   11.6232    6.5141   33.2505 C   0  0  1  0  0  0  0  0  0  0  0  0
   11.2318    6.9034   31.8424 C   0  0  0  0  0  0  0  0  0  0  0  0
   11.0416    8.7564   34.2942 N   0  0  0  0  0  0  0  0  0  0  0  0
   12.7410    5.5753   33.0972 O   0  0  0  0  0  0  0  0  0  0  0  0
   14.0691    5.5532   36.5361 O   0  0  0  0  0  0  0  0  0  0  0  0
   13.1009    8.2813   36.2755 O   0  0  0  0  0  0  0  0  0  0  0  0
   10.6803    5.8403   31.1436 O   0  0  0  0  0  0  0  0  0  0  0  0
   14.3357   -2.3799   35.9755 C   0  0  1  0  0  0  0  0  0  0  0  0
   13.0985   -1.5275   36.4337 C   0  0  1  0  0  0  0  0  0  0  0  0
   12.2890   -2.3410   37.5067 C   0  0  2  0  0  0  0  0  0  0  0  0
   11.7999   -3.6572   36.8836 C   0  0  1  0  0  0  0  0  0  0  0  0
   13.0438   -4.5183   36.4371 C   0  0  0  0  0  0  0  0  0  0  0  0
   13.8680   -3.6963   35.3697 C   0  0  2  0  0  0  0  0  0  0  0  0
   11.0371   -4.3911   37.8799 N   0  0  0  0  0  0  0  0  0  0  0  0
   15.0643   -4.4662   34.9383 N   0  0  0  0  0  0  0  0  0  0  0  0
   13.5577   -0.2780   37.0247 O   0  0  0  0  0  0  0  0  0  0  0  0
   11.1725   -1.5908   37.9053 O   0  0  0  0  0  0  0  0  0  0  0  0
  1  2  1  0  0  0  0
  1 12  1  1  0  0  0
  1 13  1  0  0  0  0
  2  3  1  0  0  0  0
  2 10  1  1  0  0  0
  4  3  1  1  0  0  0
  4  5  1  0  0  0  0
  4 14  1  0  0  0  0
  5  6  1  0  0  0  0
  5 13  1  6  0  0  0
  6  7  1  0  0  0  0
  6 15  1  6  0  0  0
  7  8  1  0  0  0  0
  7 11  1  6  0  0  0
  8 14  1  0  0  0  0
  8 16  1  1  0  0  0
  9 11  1  0  0  0  0
 17 16  1  1  0  0  0
 17 18  1  0  0  0  0
 17 24  1  0  0  0  0
 18 19  1  0  0  0  0
 18 25  1  1  0  0  0
 19 20  1  0  0  0  0
 19 26  1  1  0  0  0
 20 21  1  0  0  0  0
 20 23  1  1  0  0  0
 21 22  1  6  0  0  0
 21 24  1  0  0  0  0
 22 27  1  0  0  0  0
 28 12  1  6  0  0  0
 28 29  1  0  0  0  0
 28 33  1  0  0  0  0
 29 30  1  0  0  0  0
 29 36  1  1  0  0  0
 30 31  1  0  0  0  0
 30 37  1  6  0  0  0
 31 32  1  0  0  0  0
 31 34  1  1  0  0  0
 32 33  1  0  0  0  0
 33 35  1  1  0  0  0
M  END
>  <CHROM.1>
170.11315815,93.03758108,158.83603394,-154.86458617,-174.99023893,-69.86920388
12.73227074,1.63148167,34.89811696,-1.39771885,0.74479248,-0.29310164

>  <Name>
2oe5_lig

>  <RI>
0

>  <Rbt.Current_Directory>
/home/afrankz/demos/rdock_decoys_rna/rnas/2oe5

>  <Rbt.Executable>
rbdock ($Id: //depot/dev/client3/rdock/2013.1/src/exe/rbdock.cxx#4 $)

>  <Rbt.Library>
libRbt.so (2013.1, Build901 2013/11/27)

>  <Rbt.Parameter_File>
/export/apps/rDock/src/rDock_2013.1_src/data/scripts/dock_solv.prm

>  <Rbt.Receptor>
prm/blind_docking_40.prm

>  <SCORE>
41.9833

>  <SCORE.INTER>
23.8659

>  <SCORE.INTER.CONST>
1

>  <SCORE.INTER.POLAR>
0

>  <SCORE.INTER.ROT>
6

>  <SCORE.INTER.SOLV>
20.1833

>  <SCORE.INTER.VDW>
1.58281

>  <SCORE.INTER.norm>
0.645024

>  <SCORE.INTRA>
5.73098

>  <SCORE.INTRA.DIHEDRAL>
-9.7284

>  <SCORE.INTRA.DIHEDRAL.0>
16.2083

>  <SCORE.INTRA.POLAR>
0

>  <SCORE.INTRA.POLAR.0>
0

>  <SCORE.INTRA.REPUL>
0

>  <SCORE.INTRA.REPUL.0>
0

>  <SCORE.INTRA.SOLV>
-1.6974

>  <SCORE.INTRA.SOLV.lig_0>
-89.8095

>  <SCORE.INTRA.VDW>
11.4439

>  <SCORE.INTRA.VDW.0>
-3.19502

>  <SCORE.INTRA.norm>
0.154891

>  <SCORE.RESTR>
12.3864

>  <SCORE.RESTR.CAVITY>
12.3864

>  <SCORE.RESTR.norm>
0.334768

>  <SCORE.SYSTEM>
0

>  <SCORE.SYSTEM.CONST>
0

>  <SCORE.SYSTEM.DIHEDRAL>
0

>  <SCORE.SYSTEM.SOLV>
0

>  <SCORE.SYSTEM.norm>
0

>  <SCORE.heavy>
37

>  <SCORE.norm>
1.13468

>  <RMSD>
20.728

$$$$
2oe5_lig
 OpenBabel11021811463D
libRbt.so/2013.1/901 2013/11/27
 37 40  0  0  0  0  0  0  0  0999 V2000
   14.5685   -1.7500   33.6064 C   0  0  1  0  0  0  0  0  0  0  0  0
   15.1800   -0.8171   32.5372 C   0  0  1  0  0  0  0  0  0  0  0  0
   15.0018    0.6795   32.9905 C   0  0  0  0  0  0  0  0  0  0  0  0
   13.4773    0.8815   33.1407 C   0  0  1  0  0  0  0  0  0  0  0  0
   12.8636   -0.0908   34.2426 C   0  0  1  0  0  0  0  0  0  0  0  0
   11.3320    0.1014   34.4147 C   0  0  1  0  0  0  0  0  0  0  0  0
   11.1072    1.5838   34.8274 C   0  0  1  0  0  0  0  0  0  0  0  0
   11.7672    2.5087   33.7356 C   0  0  2  0  0  0  0  0  0  0  0  0
    8.8259    2.3395   33.7845 C   0  0  0  0  0  0  0  0  0  0  0  0
   16.6215   -1.1138   32.3717 N   0  0  0  0  0  0  0  0  0  0  0  0
    9.6302    1.8728   34.9674 N   0  0  0  0  0  0  0  0  0  0  0  0
   15.2446   -1.6361   34.8693 O   0  0  0  0  0  0  0  0  0  0  0  0
   13.1435   -1.4702   33.8387 O   0  0  0  0  0  0  0  0  0  0  0  0
   13.2086    2.2471   33.5575 O   0  0  0  0  0  0  0  0  0  0  0  0
   10.7064   -0.2021   33.1638 O   0  0  0  0  0  0  0  0  0  0  0  0
   11.6378    3.8662   34.1096 O   0  0  0  0  0  0  0  0  0  0  0  0
   12.8589    4.3449   34.6414 C   0  0  2  0  0  0  0  0  0  0  0  0
   12.6456    5.3175   35.8007 C   0  0  1  0  0  0  0  0  0  0  0  0
   11.9164    6.6045   35.3265 C   0  0  2  0  0  0  0  0  0  0  0  0
   12.7717    7.2356   34.1880 C   0  0  1  0  0  0  0  0  0  0  0  0
   12.8952    6.1881   33.0332 C   0  0  1  0  0  0  0  0  0  0  0  0
   13.7543    6.6770   31.8884 C   0  0  0  0  0  0  0  0  0  0  0  0
   12.0717    8.4911   33.7212 N   0  0  0  0  0  0  0  0  0  0  0  0
   13.5926    5.0121   33.5670 O   0  0  0  0  0  0  0  0  0  0  0  0
   11.8731    4.6311   36.8056 O   0  0  0  0  0  0  0  0  0  0  0  0
   11.8484    7.5144   36.4394 O   0  0  0  0  0  0  0  0  0  0  0  0
   13.1306    7.6802   31.1622 O   0  0  0  0  0  0  0  0  0  0  0  0
   14.5316   -2.2051   35.9677 C   0  0  1  0  0  0  0  0  0  0  0  0
   13.3841   -1.2328   36.4201 C   0  0  1  0  0  0  0  0  0  0  0  0
   12.6067   -1.8857   37.6192 C   0  0  2  0  0  0  0  0  0  0  0  0
   11.9958   -3.2191   37.1626 C   0  0  1  0  0  0  0  0  0  0  0  0
   13.1503   -4.1996   36.7221 C   0  0  0  0  0  0  0  0  0  0  0  0
   13.9433   -3.5386   35.5268 C   0  0  2  0  0  0  0  0  0  0  0  0
   11.2642   -3.8033   38.2746 N   0  0  0  0  0  0  0  0  0  0  0  0
   15.0570   -4.4238   35.0955 N   0  0  0  0  0  0  0  0  0  0  0  0
   13.9589    0.0335   36.8534 O   0  0  0  0  0  0  0  0  0  0  0  0
   11.5689   -1.0284   38.0146 O   0  0  0  0  0  0  0  0  0  0  0  0
  1  2  1  0  0  0  0
  1 12  1  1  0  0  0
  1 13  1  0  0  0  0
  2  3  1  0  0  0  0
  2 10  1  1  0  0  0
  4  3  1  1  0  0  0
  4  5  1  0  0  0  0
  4 14  1  0  0  0  0
  5  6  1  0  0  0  0
  5 13  1  6  0  0  0
  6  7  1  0  0  0  0
  6 15  1  6  0  0  0
  7  8  1  0  0  0  0
  7 11  1  6  0  0  0
  8 14  1  0  0  0  0
  8 16  1  1  0  0  0
  9 11  1  0  0  0  0
 17 16  1  6  0  0  0
 17 18  1  0  0  0  0
 17 24  1  0  0  0  0
 18 19  1  0  0  0  0
 18 25  1  1  0  0  0
 19 20  1  0  0  0  0
 19 26  1  1  0  0  0
 20 21  1  0  0  0  0
 20 23  1  6  0  0  0
 21 22  1  6  0  0  0
 21 24  1  0  0  0  0
 22 27  1  0  0  0  0
 28 12  1  6  0  0  0
 28 29  1  0  0  0  0
 28 33  1  0  0  0  0
 29 30  1  0  0  0  0
 29 36  1  1  0  0  0
 30 31  1  0  0  0  0
 30 37  1  6  0  0  0
 31 32  1  0  0  0  0
 31 34  1  1  0  0  0
 32 33  1  0  0  0  0
 33 35  1  1  0  0  0
M  END
>  <CHROM.1>
165.04089258,-89.09202589,101.88223763,-142.99407218,-70.98768092,-77.84418153
12.82576150,1.48887298,34.70940614,-1.40604276,0.80673671,-0.32751282

>  <Name>
2oe5_lig

>  <RI>
0

>  <Rbt.Current_Directory>
/home/afrankz/demos/rdock_decoys_rna/rnas/2oe5

>  <Rbt.Executable>
rbdock ($Id: //depot/dev/client3/rdock/2013.1/src/exe/rbdock.cxx#4 $)

>  <Rbt.Library>
libRbt.so (2013.1, Build901 2013/11/27)

>  <Rbt.Parameter_File>
/export/apps/rDock/src/rDock_2013.1_src/data/scripts/dock_solv.prm

>  <Rbt.Receptor>
prm/blind_docking_40.prm

>  <SCORE>
49.2207

>  <SCORE.INTER>
22.4143

>  <SCORE.INTER.CONST>
1

>  <SCORE.INTER.POLAR>
0

>  <SCORE.INTER.ROT>
6

>  <SCORE.INTER.SOLV>
21.9028

>  <SCORE.INTER.VDW>
0.0419275

>  <SCORE.INTER.norm>
0.605791

>  <SCORE.INTRA>
13.4779

>  <SCORE.INTRA.DIHEDRAL>
-2.07432

>  <SCORE.INTRA.DIHEDRAL.0>
16.2083

>  <SCORE.INTRA.POLAR>
0

>  <SCORE.INTRA.POLAR.0>
0

>  <SCORE.INTRA.REPUL>
0

>  <SCORE.INTRA.REPUL.0>
0

>  <SCORE.INTRA.SOLV>
0.0868793

>  <SCORE.INTRA.SOLV.lig_0>
-89.8095

>  <SCORE.INTRA.VDW>
14.4716

>  <SCORE.INTRA.VDW.0>
-3.19502

>  <SCORE.INTRA.norm>
0.364268

>  <SCORE.RESTR>
13.3285

>  <SCORE.RESTR.CAVITY>
13.3285

>  <SCORE.RESTR.norm>
0.36023

>  <SCORE.SYSTEM>
0

>  <SCORE.SYSTEM.CONST>
0

>  <SCORE.SYSTEM.DIHEDRAL>
0

>  <SCORE.SYSTEM.SOLV>
0

>  <SCORE.SYSTEM.norm>
0

>  <SCORE.heavy>
37

>  <SCORE.norm>
1.33029

>  <RMSD>
20.729

$$$$
2oe5_lig
 OpenBabel11021811463D
libRbt.so/2013.1/901 2013/11/27
 37 40  0  0  0  0  0  0  0  0999 V2000
   11.7644   -1.7222   36.6962 C   0  0  1  0  0  0  0  0  0  0  0  0
   11.7082   -0.5390   37.6882 C   0  0  1  0  0  0  0  0  0  0  0  0
   11.6657    0.8126   36.8827 C   0  0  0  0  0  0  0  0  0  0  0  0
   12.9562    0.8219   36.0330 C   0  0  1  0  0  0  0  0  0  0  0  0
   12.9994   -0.4066   35.0204 C   0  0  1  0  0  0  0  0  0  0  0  0
   14.2863   -0.4119   34.1508 C   0  0  1  0  0  0  0  0  0  0  0  0
   14.3037    0.9289   33.3630 C   0  0  1  0  0  0  0  0  0  0  0  0
   14.2145    2.1139   34.3979 C   0  0  2  0  0  0  0  0  0  0  0  0
   16.3153   -0.2079   32.1286 C   0  0  0  0  0  0  0  0  0  0  0  0
   10.4982   -0.6461   38.5355 N   0  0  0  0  0  0  0  0  0  0  0  0
   15.5568    1.0299   32.5240 N   0  0  0  0  0  0  0  0  0  0  0  0
   10.5887   -1.7896   35.8726 O   0  0  0  0  0  0  0  0  0  0  0  0
   12.9292   -1.6430   35.8019 O   0  0  0  0  0  0  0  0  0  0  0  0
   13.0105    2.0433   35.2484 O   0  0  0  0  0  0  0  0  0  0  0  0
   15.4109   -0.5266   35.0285 O   0  0  0  0  0  0  0  0  0  0  0  0
   14.1641    3.3503   33.7138 O   0  0  0  0  0  0  0  0  0  0  0  0
   12.9181    3.4956   33.0586 C   0  0  2  0  0  0  0  0  0  0  0  0
   12.9057    4.6778   32.0902 C   0  0  1  0  0  0  0  0  0  0  0  0
   13.0882    6.0232   32.8450 C   0  0  2  0  0  0  0  0  0  0  0  0
   11.9492    6.1259   33.9024 C   0  0  1  0  0  0  0  0  0  0  0  0
   12.0716    4.9040   34.8710 C   0  0  1  0  0  0  0  0  0  0  0  0
   10.9777    4.8723   35.9149 C   0  0  0  0  0  0  0  0  0  0  0  0
   12.1161    7.4339   34.6409 N   0  0  0  0  0  0  0  0  0  0  0  0
   11.8868    3.6828   34.0780 O   0  0  0  0  0  0  0  0  0  0  0  0
   13.9722    4.4728   31.1424 O   0  0  0  0  0  0  0  0  0  0  0  0
   12.9571    7.0917   31.8899 O   0  0  0  0  0  0  0  0  0  0  0  0
   11.0259    3.7191   36.6834 O   0  0  0  0  0  0  0  0  0  0  0  0
    9.3643   -1.8452   36.6049 C   0  0  1  0  0  0  0  0  0  0  0  0
    8.1645   -1.4566   35.6687 C   0  0  1  0  0  0  0  0  0  0  0  0
    6.8290   -1.5380   36.4923 C   0  0  2  0  0  0  0  0  0  0  0  0
    6.6340   -2.9734   37.0033 C   0  0  1  0  0  0  0  0  0  0  0  0
    7.8323   -3.3570   37.9547 C   0  0  0  0  0  0  0  0  0  0  0  0
    9.1778   -3.2610   37.1334 C   0  0  2  0  0  0  0  0  0  0  0  0
    5.3867   -3.0396   37.7470 N   0  0  0  0  0  0  0  0  0  0  0  0
   10.3369   -3.5946   38.0025 N   0  0  0  0  0  0  0  0  0  0  0  0
    8.3456   -0.0961   35.1811 O   0  0  0  0  0  0  0  0  0  0  0  0
    5.7525   -1.2095   35.6547 O   0  0  0  0  0  0  0  0  0  0  0  0
  1  2  1  0  0  0  0
  1 12  1  6  0  0  0
  1 13  1  0  0  0  0
  2  3  1  0  0  0  0
  2 10  1  6  0  0  0
  4  3  1  6  0  0  0
  4  5  1  0  0  0  0
  4 14  1  0  0  0  0
  5  6  1  0  0  0  0
  5 13  1  1  0  0  0
  6  7  1  0  0  0  0
  6 15  1  1  0  0  0
  7  8  1  0  0  0  0
  7 11  1  1  0  0  0
  8 14  1  0  0  0  0
  8 16  1  6  0  0  0
  9 11  1  0  0  0  0
 17 16  1  1  0  0  0
 17 18  1  0  0  0  0
 17 24  1  0  0  0  0
 18 19  1  0  0  0  0
 18 25  1  6  0  0  0
 19 20  1  0  0  0  0
 19 26  1  6  0  0  0
 20 21  1  0  0  0  0
 20 23  1  1  0  0  0
 21 22  1  1  0  0  0
 21 24  1  0  0  0  0
 22 27  1  0  0  0  0
 28 12  1  6  0  0  0
 28 29  1  0  0  0  0
 28 33  1  0  0  0  0
 29 30  1  0  0  0  0
 29 36  1  1  0  0  0
 30 31  1  0  0  0  0
 30 37  1  6  0  0  0
 31 32  1  0  0  0  0
 31 34  1  1  0  0  0
 32 33  1  0  0  0  0
 33 35  1  1  0  0  0
M  END
>  <CHROM.1>
-55.11740681,22.12002133,70.45642458,-168.98654719,174.28459142,161.95689654
11.53813026,1.04122310,35.15037518,-2.19889430,0.33136688,-0.28408923

>  <Name>
2oe5_lig

>  <RI>
0

>  <Rbt.Current_Directory>
/home/afrankz/demos/rdock_decoys_rna/rnas/2oe5

>  <Rbt.Executable>
rbdock ($Id: //depot/dev/client3/rdock/2013.1/src/exe/rbdock.cxx#4 $)

>  <Rbt.Library>
libRbt.so (2013.1, Build901 2013/11/27)

>  <Rbt.Parameter_File>
/export/apps/rDock/src/rDock_2013.1_src/data/scripts/dock_solv.prm

>  <Rbt.Receptor>
prm/blind_docking_40.prm

>  <SCORE>
24.2908

>  <SCORE.INTER>
3.90407

>  <SCORE.INTER.CONST>
1

>  <SCORE.INTER.POLAR>
0

>  <SCORE.INTER.ROT>
6

>  <SCORE.INTER.SOLV>
6.32892

>  <SCORE.INTER.VDW>
-7.10693

>  <SCORE.INTER.norm>
0.105516

>  <SCORE.INTRA>
3.44848

>  <SCORE.INTRA.DIHEDRAL>
-12.4403

>  <SCORE.INTRA.DIHEDRAL.0>
16.2083

>  <SCORE.INTRA.POLAR>
0

>  <SCORE.INTRA.POLAR.0>
0

>  <SCORE.INTRA.REPUL>
0

>  <SCORE.INTRA.REPUL.0>
0

>  <SCORE.INTRA.SOLV>
4.16848

>  <SCORE.INTRA.SOLV.lig_0>
-89.8095

>  <SCORE.INTRA.VDW>
7.58438

>  <SCORE.INTRA.VDW.0>
-3.19502

>  <SCORE.INTRA.norm>
0.0932022

>  <SCORE.RESTR>
16.9382

>  <SCORE.RESTR.CAVITY>
16.9382

>  <SCORE.RESTR.norm>
0.457789

>  <SCORE.SYSTEM>
0

>  <SCORE.SYSTEM.CONST>
0

>  <SCORE.SYSTEM.DIHEDRAL>
0

>  <SCORE.SYSTEM.SOLV>
0

>  <SCORE.SYSTEM.norm>
0

>  <SCORE.heavy>
37

>  <SCORE.norm>
0.656507

>  <RMSD>
20.736

$$$$
2oe5_lig
 OpenBabel11021811463D
libRbt.so/2013.1/901 2013/11/27
 37 40  0  0  0  0  0  0  0  0999 V2000
   13.8381    2.3633   34.4039 C   0  0  1  0  0  0  0  0  0  0  0  0
   13.9261    0.9915   33.6985 C   0  0  1  0  0  0  0  0  0  0  0  0
   12.5506    0.2413   33.8481 C   0  0  0  0  0  0  0  0  0  0  0  0
   12.3248    0.1032   35.3704 C   0  0  1  0  0  0  0  0  0  0  0  0
   12.2416    1.5259   36.0814 C   0  0  1  0  0  0  0  0  0  0  0  0
   12.0074    1.4097   37.6124 C   0  0  1  0  0  0  0  0  0  0  0  0
   10.6712    0.6379   37.8068 C   0  0  1  0  0  0  0  0  0  0  0  0
   10.7801   -0.7410   37.0520 C   0  0  2  0  0  0  0  0  0  0  0  0
    9.0103    0.0657   39.7502 C   0  0  0  0  0  0  0  0  0  0  0  0
   14.2309    1.1801   32.2615 N   0  0  0  0  0  0  0  0  0  0  0  0
   10.3905    0.4343   39.2780 N   0  0  0  0  0  0  0  0  0  0  0  0
   12.8540    3.2173   33.7979 O   0  0  0  0  0  0  0  0  0  0  0  0
   13.4978    2.2348   35.8288 O   0  0  0  0  0  0  0  0  0  0  0  0
   11.0691   -0.5860   35.6131 O   0  0  0  0  0  0  0  0  0  0  0  0
   13.1163    0.7016   38.1755 O   0  0  0  0  0  0  0  0  0  0  0  0
    9.5583   -1.4454   37.1535 O   0  0  0  0  0  0  0  0  0  0  0  0
    8.4947   -0.6520   36.6614 C   0  0  2  0  0  0  0  0  0  0  0  0
    7.1362   -1.3303   36.8343 C   0  0  1  0  0  0  0  0  0  0  0  0
    7.0485   -2.6332   35.9930 C   0  0  2  0  0  0  0  0  0  0  0  0
    7.3231   -2.2520   34.5080 C   0  0  1  0  0  0  0  0  0  0  0  0
    8.7472   -1.6106   34.4247 C   0  0  1  0  0  0  0  0  0  0  0  0
    9.1019   -1.1515   33.0280 C   0  0  0  0  0  0  0  0  0  0  0  0
    7.2372   -3.5134   33.6800 N   0  0  0  0  0  0  0  0  0  0  0  0
    8.7389   -0.3923   35.2434 O   0  0  0  0  0  0  0  0  0  0  0  0
    6.9688   -1.6137   38.2376 O   0  0  0  0  0  0  0  0  0  0  0  0
    5.7133   -3.1556   36.1176 O   0  0  0  0  0  0  0  0  0  0  0  0
    8.0274   -0.5508   32.3898 O   0  0  0  0  0  0  0  0  0  0  0  0
   13.0732    4.6107   34.0191 C   0  0  1  0  0  0  0  0  0  0  0  0
   12.6591    5.4253   32.7416 C   0  0  1  0  0  0  0  0  0  0  0  0
   12.8965    6.9544   33.0137 C   0  0  2  0  0  0  0  0  0  0  0  0
   12.0336    7.3984   34.2046 C   0  0  1  0  0  0  0  0  0  0  0  0
   12.4605    6.5896   35.4899 C   0  0  0  0  0  0  0  0  0  0  0  0
   12.2374    5.0507   35.2134 C   0  0  2  0  0  0  0  0  0  0  0  0
   12.2480    8.8177   34.4339 N   0  0  0  0  0  0  0  0  0  0  0  0
   12.6497    4.2498   36.3960 N   0  0  0  0  0  0  0  0  0  0  0  0
   13.4744    5.0071   31.6095 O   0  0  0  0  0  0  0  0  0  0  0  0
   12.5104    7.6875   31.8816 O   0  0  0  0  0  0  0  0  0  0  0  0
  1  2  1  0  0  0  0
  1 12  1  6  0  0  0
  1 13  1  0  0  0  0
  2  3  1  0  0  0  0
  2 10  1  6  0  0  0
  4  3  1  6  0  0  0
  4  5  1  0  0  0  0
  4 14  1  0  0  0  0
  5  6  1  0  0  0  0
  5 13  1  1  0  0  0
  6  7  1  0  0  0  0
  6 15  1  1  0  0  0
  7  8  1  0  0  0  0
  7 11  1  1  0  0  0
  8 14  1  0  0  0  0
  8 16  1  6  0  0  0
  9 11  1  0  0  0  0
 17 16  1  6  0  0  0
 17 18  1  0  0  0  0
 17 24  1  0  0  0  0
 18 19  1  0  0  0  0
 18 25  1  1  0  0  0
 19 20  1  0  0  0  0
 19 26  1  6  0  0  0
 20 21  1  0  0  0  0
 20 23  1  6  0  0  0
 21 22  1  6  0  0  0
 21 24  1  0  0  0  0
 22 27  1  0  0  0  0
 28 12  1  6  0  0  0
 28 29  1  0  0  0  0
 28 33  1  0  0  0  0
 29 30  1  0  0  0  0
 29 36  1  6  0  0  0
 30 31  1  0  0  0  0
 30 37  1  6  0  0  0
 31 32  1  0  0  0  0
 31 34  1  1  0  0  0
 32 33  1  0  0  0  0
 33 35  1  1  0  0  0
M  END
>  <CHROM.1>
-156.39308268,163.00809444,55.94473740,-176.16493808,40.64883046,143.82620751
10.86361343,1.46728486,35.24089432,0.38886100,-0.96296317,-1.42645164

>  <Name>
2oe5_lig

>  <RI>
0

>  <Rbt.Current_Directory>
/home/afrankz/demos/rdock_decoys_rna/rnas/2oe5

>  <Rbt.Executable>
rbdock ($Id: //depot/dev/client3/rdock/2013.1/src/exe/rbdock.cxx#4 $)

>  <Rbt.Library>
libRbt.so (2013.1, Build901 2013/11/27)

>  <Rbt.Parameter_File>
/export/apps/rDock/src/rDock_2013.1_src/data/scripts/dock_solv.prm

>  <Rbt.Receptor>
prm/blind_docking_40.prm

>  <SCORE>
20.1498

>  <SCORE.INTER>
1.56992

>  <SCORE.INTER.CONST>
1

>  <SCORE.INTER.POLAR>
0

>  <SCORE.INTER.ROT>
6

>  <SCORE.INTER.SOLV>
12.9208

>  <SCORE.INTER.VDW>
-10.8603

>  <SCORE.INTER.norm>
0.0424302

>  <SCORE.INTRA>
3.85319

>  <SCORE.INTRA.DIHEDRAL>
-7.35872

>  <SCORE.INTRA.DIHEDRAL.0>
16.2083

>  <SCORE.INTRA.POLAR>
0

>  <SCORE.INTRA.POLAR.0>
0

>  <SCORE.INTRA.REPUL>
0

>  <SCORE.INTRA.REPUL.0>
0

>  <SCORE.INTRA.SOLV>
2.76625

>  <SCORE.INTRA.SOLV.lig_0>
-89.8095

>  <SCORE.INTRA.VDW>
6.14942

>  <SCORE.INTRA.VDW.0>
-3.19502

>  <SCORE.INTRA.norm>
0.10414

>  <SCORE.RESTR>
14.7267

>  <SCORE.RESTR.CAVITY>
14.7267

>  <SCORE.RESTR.norm>
0.398018

>  <SCORE.SYSTEM>
0

>  <SCORE.SYSTEM.CONST>
0

>  <SCORE.SYSTEM.DIHEDRAL>
0

>  <SCORE.SYSTEM.SOLV>
0

>  <SCORE.SYSTEM.norm>
0

>  <SCORE.heavy>
37

>  <SCORE.norm>
0.544588

>  <RMSD>
20.756

$$$$
2oe5_lig
 OpenBabel11021811463D
libRbt.so/2013.1/901 2013/11/27
 37 40  0  0  0  0  0  0  0  0999 V2000
   13.9548   -0.7718   33.4233 C   0  0  1  0  0  0  0  0  0  0  0  0
   14.5151    0.2504   32.4090 C   0  0  1  0  0  0  0  0  0  0  0  0
   14.5914    1.6679   33.0886 C   0  0  0  0  0  0  0  0  0  0  0  0
   13.1418    1.9965   33.5108 C   0  0  1  0  0  0  0  0  0  0  0  0
   12.5793    0.9307   34.5518 C   0  0  1  0  0  0  0  0  0  0  0  0
   11.1247    1.2469   34.9951 C   0  0  1  0  0  0  0  0  0  0  0  0
   11.1476    2.6616   35.6407 C   0  0  1  0  0  0  0  0  0  0  0  0
   11.7512    3.6746   34.5954 C   0  0  2  0  0  0  0  0  0  0  0  0
    9.0047    2.2895   37.1010 C   0  0  0  0  0  0  0  0  0  0  0  0
   15.8693   -0.1605   31.9722 N   0  0  0  0  0  0  0  0  0  0  0  0
    9.7539    3.0724   36.0572 N   0  0  0  0  0  0  0  0  0  0  0  0
   14.8163   -0.9256   34.5631 O   0  0  0  0  0  0  0  0  0  0  0  0
   12.6245   -0.3897   33.9203 O   0  0  0  0  0  0  0  0  0  0  0  0
   13.1078    3.3001   34.1512 O   0  0  0  0  0  0  0  0  0  0  0  0
   10.2911    1.2074   33.8325 O   0  0  0  0  0  0  0  0  0  0  0  0
   11.8466    4.9629   35.1703 O   0  0  0  0  0  0  0  0  0  0  0  0
   11.2519    5.9234   34.3179 C   0  0  2  0  0  0  0  0  0  0  0  0
   11.9725    6.0330   32.9747 C   0  0  1  0  0  0  0  0  0  0  0  0
   13.4265    6.5480   33.1583 C   0  0  2  0  0  0  0  0  0  0  0  0
   13.3488    7.9208   33.8900 C   0  0  1  0  0  0  0  0  0  0  0  0
   12.6407    7.6999   35.2670 C   0  0  1  0  0  0  0  0  0  0  0  0
   12.4629    8.9837   36.0466 C   0  0  0  0  0  0  0  0  0  0  0  0
   14.7594    8.4322   34.0711 N   0  0  0  0  0  0  0  0  0  0  0  0
   11.2808    7.2167   34.9995 O   0  0  0  0  0  0  0  0  0  0  0  0
   11.9644    4.7243   32.3707 O   0  0  0  0  0  0  0  0  0  0  0  0
   14.0035    6.7296   31.8525 O   0  0  0  0  0  0  0  0  0  0  0  0
   11.6509    8.8092   37.1569 O   0  0  0  0  0  0  0  0  0  0  0  0
   14.5140   -2.0601   35.3756 C   0  0  1  0  0  0  0  0  0  0  0  0
   15.8441   -2.7655   35.8231 C   0  0  1  0  0  0  0  0  0  0  0  0
   15.4865   -4.0010   36.7255 C   0  0  2  0  0  0  0  0  0  0  0  0
   14.7214   -3.5186   37.9671 C   0  0  1  0  0  0  0  0  0  0  0  0
   13.3791   -2.8231   37.5167 C   0  0  0  0  0  0  0  0  0  0  0  0
   13.7352   -1.5899   36.5966 C   0  0  2  0  0  0  0  0  0  0  0  0
   14.4132   -4.6678   38.8022 N   0  0  0  0  0  0  0  0  0  0  0  0
   12.4931   -0.9184   36.1316 N   0  0  0  0  0  0  0  0  0  0  0  0
   16.5734   -3.2241   34.6486 O   0  0  0  0  0  0  0  0  0  0  0  0
   16.6726   -4.6233   37.1428 O   0  0  0  0  0  0  0  0  0  0  0  0
  1  2  1  0  0  0  0
  1 12  1  1  0  0  0
  1 13  1  0  0  0  0
  2  3  1  0  0  0  0
  2 10  1  1  0  0  0
  4  3  1  1  0  0  0
  4  5  1  0  0  0  0
  4 14  1  0  0  0  0
  5  6  1  0  0  0  0
  5 13  1  6  0  0  0
  6  7  1  0  0  0  0
  6 15  1  6  0  0  0
  7  8  1  0  0  0  0
  7 11  1  6  0  0  0
  8 14  1  0  0  0  0
  8 16  1  1  0  0  0
  9 11  1  0  0  0  0
 17 16  1  1  0  0  0
 17 18  1  0  0  0  0
 17 24  1  0  0  0  0
 18 19  1  0  0  0  0
 18 25  1  1  0  0  0
 19 20  1  0  0  0  0
 19 26  1  6  0  0  0
 20 21  1  0  0  0  0
 20 23  1  1  0  0  0
 21 22  1  6  0  0  0
 21 24  1  0  0  0  0
 22 27  1  0  0  0  0
 28 12  1  6  0  0  0
 28 29  1  0  0  0  0
 28 33  1  0  0  0  0
 29 30  1  0  0  0  0
 29 36  1  6  0  0  0
 30 31  1  0  0  0  0
 30 37  1  1  0  0  0
 31 32  1  0  0  0  0
 31 34  1  1  0  0  0
 32 33  1  0  0  0  0
 33 35  1  6  0  0  0
M  END
>  <CHROM.1>
-166.51964487,62.72721369,-129.15338922,-63.20436137,170.37971156,138.49867631
13.14397787,2.02561179,34.90657399,-1.22389266,0.75776541,-0.40776108

>  <Name>
2oe5_lig

>  <RI>
0

>  <Rbt.Current_Directory>
/home/afrankz/demos/rdock_decoys_rna/rnas/2oe5

>  <Rbt.Executable>
rbdock ($Id: //depot/dev/client3/rdock/2013.1/src/exe/rbdock.cxx#4 $)

>  <Rbt.Library>
libRbt.so (2013.1, Build901 2013/11/27)

>  <Rbt.Parameter_File>
/export/apps/rDock/src/rDock_2013.1_src/data/scripts/dock_solv.prm

>  <Rbt.Receptor>
prm/blind_docking_40.prm

>  <SCORE>
31.4248

>  <SCORE.INTER>
3.80436

>  <SCORE.INTER.CONST>
1

>  <SCORE.INTER.POLAR>
0

>  <SCORE.INTER.ROT>
6

>  <SCORE.INTER.SOLV>
14.1158

>  <SCORE.INTER.VDW>
-9.76903

>  <SCORE.INTER.norm>
0.10282

>  <SCORE.INTRA>
8.95424

>  <SCORE.INTRA.DIHEDRAL>
-2.49176

>  <SCORE.INTRA.DIHEDRAL.0>
16.2083

>  <SCORE.INTRA.POLAR>
0

>  <SCORE.INTRA.POLAR.0>
0

>  <SCORE.INTRA.REPUL>
0

>  <SCORE.INTRA.REPUL.0>
0

>  <SCORE.INTRA.SOLV>
2.32523

>  <SCORE.INTRA.SOLV.lig_0>
-89.8095

>  <SCORE.INTRA.VDW>
9.0375

>  <SCORE.INTRA.VDW.0>
-3.19502

>  <SCORE.INTRA.norm>
0.242006

>  <SCORE.RESTR>
18.6662

>  <SCORE.RESTR.CAVITY>
18.6662

>  <SCORE.RESTR.norm>
0.504492

>  <SCORE.SYSTEM>
0

>  <SCORE.SYSTEM.CONST>
0

>  <SCORE.SYSTEM.DIHEDRAL>
0

>  <SCORE.SYSTEM.SOLV>
0

>  <SCORE.SYSTEM.norm>
0

>  <SCORE.heavy>
37

>  <SCORE.norm>
0.849319

>  <RMSD>
20.759

$$$$
2oe5_lig
 OpenBabel11021811463D
libRbt.so/2013.1/901 2013/11/27
 37 40  0  0  0  0  0  0  0  0999 V2000
   14.8196   -1.8256   33.3884 C   0  0  1  0  0  0  0  0  0  0  0  0
   15.4471   -0.8117   32.4057 C   0  0  1  0  0  0  0  0  0  0  0  0
   15.3418    0.6356   33.0150 C   0  0  0  0  0  0  0  0  0  0  0  0
   13.8306    0.8813   33.2238 C   0  0  1  0  0  0  0  0  0  0  0  0
   13.1999   -0.1751   34.2350 C   0  0  1  0  0  0  0  0  0  0  0  0
   11.6817    0.0588   34.4647 C   0  0  1  0  0  0  0  0  0  0  0  0
   11.5282    1.4981   35.0334 C   0  0  1  0  0  0  0  0  0  0  0  0
   12.2035    2.5045   34.0262 C   0  0  2  0  0  0  0  0  0  0  0  0
    9.3837    1.4975   36.5379 C   0  0  0  0  0  0  0  0  0  0  0  0
   16.8711   -1.1466   32.1741 N   0  0  0  0  0  0  0  0  0  0  0  0
   10.0680    1.8294   35.2397 N   0  0  0  0  0  0  0  0  0  0  0  0
   15.5265   -1.8705   34.6387 O   0  0  0  0  0  0  0  0  0  0  0  0
   13.4129   -1.5151   33.6843 O   0  0  0  0  0  0  0  0  0  0  0  0
   13.6285    2.2058   33.7856 O   0  0  0  0  0  0  0  0  0  0  0  0
   11.0176   -0.0881   33.2055 O   0  0  0  0  0  0  0  0  0  0  0  0
   12.1392    3.8198   34.5410 O   0  0  0  0  0  0  0  0  0  0  0  0
   11.5613    4.6904   33.5865 C   0  0  2  0  0  0  0  0  0  0  0  0
   12.4935    4.9582   32.4055 C   0  0  1  0  0  0  0  0  0  0  0  0
   13.7766    5.7055   32.8618 C   0  0  2  0  0  0  0  0  0  0  0  0
   13.3284    7.0240   33.5593 C   0  0  1  0  0  0  0  0  0  0  0  0
   12.4209    6.6477   34.7762 C   0  0  1  0  0  0  0  0  0  0  0  0
   11.8819    7.8602   35.5019 C   0  0  0  0  0  0  0  0  0  0  0  0
   14.5706    7.7606   34.0048 N   0  0  0  0  0  0  0  0  0  0  0  0
   11.2391    5.9499   34.2555 O   0  0  0  0  0  0  0  0  0  0  0  0
   12.8238    3.6847   31.8167 O   0  0  0  0  0  0  0  0  0  0  0  0
   14.5507    6.0191   31.6898 O   0  0  0  0  0  0  0  0  0  0  0  0
   11.0008    7.5110   36.5141 O   0  0  0  0  0  0  0  0  0  0  0  0
   14.7455   -2.3465   35.7352 C   0  0  1  0  0  0  0  0  0  0  0  0
   13.6550   -1.2820   36.1154 C   0  0  1  0  0  0  0  0  0  0  0  0
   12.8012   -1.8334   37.3136 C   0  0  2  0  0  0  0  0  0  0  0  0
   12.1136   -3.1396   36.8885 C   0  0  1  0  0  0  0  0  0  0  0  0
   13.2102   -4.2122   36.5207 C   0  0  0  0  0  0  0  0  0  0  0  0
   14.0799   -3.6537   35.3265 C   0  0  2  0  0  0  0  0  0  0  0  0
   11.3127   -3.6290   37.9985 N   0  0  0  0  0  0  0  0  0  0  0  0
   15.1422   -4.6281   34.9630 N   0  0  0  0  0  0  0  0  0  0  0  0
   14.3026   -0.0412   36.5186 O   0  0  0  0  0  0  0  0  0  0  0  0
   11.8138   -0.8933   37.6445 O   0  0  0  0  0  0  0  0  0  0  0  0
  1  2  1  0  0  0  0
  1 12  1  1  0  0  0
  1 13  1  0  0  0  0
  2  3  1  0  0  0  0
  2 10  1  1  0  0  0
  4  3  1  1  0  0  0
  4  5  1  0  0  0  0
  4 14  1  0  0  0  0
  5  6  1  0  0  0  0
  5 13  1  6  0  0  0
  6  7  1  0  0  0  0
  6 15  1  6  0  0  0
  7  8  1  0  0  0  0
  7 11  1  6  0  0  0
  8 14  1  0  0  0  0
  8 16  1  1  0  0  0
  9 11  1  0  0  0  0
 17 16  1  1  0  0  0
 17 18  1  0  0  0  0
 17 24  1  0  0  0  0
 18 19  1  0  0  0  0
 18 25  1  1  0  0  0
 19 20  1  0  0  0  0
 19 26  1  6  0  0  0
 20 21  1  0  0  0  0
 20 23  1  1  0  0  0
 21 22  1  6  0  0  0
 21 24  1  0  0  0  0
 22 27  1  0  0  0  0
 28 12  1  6  0  0  0
 28 29  1  0  0  0  0
 28 33  1  0  0  0  0
 29 30  1  0  0  0  0
 29 36  1  1  0  0  0
 30 31  1  0  0  0  0
 30 37  1  6  0  0  0
 31 32  1  0  0  0  0
 31 34  1  1  0  0  0
 32 33  1  0  0  0  0
 33 35  1  1  0  0  0
M  END
>  <CHROM.1>
156.53616592,88.51776173,-127.01395174,-71.37853944,175.48838761,-70.16540130
13.03342995,1.38766666,34.58432353,-1.39718841,0.74062797,-0.29138612

>  <Name>
2oe5_lig

>  <RI>
0

>  <Rbt.Current_Directory>
/home/afrankz/demos/rdock_decoys_rna/rnas/2oe5

>  <Rbt.Executable>
rbdock ($Id: //depot/dev/client3/rdock/2013.1/src/exe/rbdock.cxx#4 $)

>  <Rbt.Library>
libRbt.so (2013.1, Build901 2013/11/27)

>  <Rbt.Parameter_File>
/export/apps/rDock/src/rDock_2013.1_src/data/scripts/dock_solv.prm

>  <Rbt.Receptor>
prm/blind_docking_40.prm

>  <SCORE>
51.1284

>  <SCORE.INTER>
18.8854

>  <SCORE.INTER.CONST>
1

>  <SCORE.INTER.POLAR>
0

>  <SCORE.INTER.ROT>
6

>  <SCORE.INTER.SOLV>
23.0574

>  <SCORE.INTER.VDW>
-2.69555

>  <SCORE.INTER.norm>
0.510416

>  <SCORE.INTRA>
18.6867

>  <SCORE.INTRA.DIHEDRAL>
-5.09624

>  <SCORE.INTRA.DIHEDRAL.0>
16.2083

>  <SCORE.INTRA.POLAR>
0

>  <SCORE.INTRA.POLAR.0>
0

>  <SCORE.INTRA.REPUL>
0

>  <SCORE.INTRA.REPUL.0>
0

>  <SCORE.INTRA.SOLV>
0.0519373

>  <SCORE.INTRA.SOLV.lig_0>
-89.8095

>  <SCORE.INTRA.VDW>
21.2088

>  <SCORE.INTRA.VDW.0>
-3.19502

>  <SCORE.INTRA.norm>
0.505046

>  <SCORE.RESTR>
13.5563

>  <SCORE.RESTR.CAVITY>
13.5563

>  <SCORE.RESTR.norm>
0.366388

>  <SCORE.SYSTEM>
0

>  <SCORE.SYSTEM.CONST>
0

>  <SCORE.SYSTEM.DIHEDRAL>
0

>  <SCORE.SYSTEM.SOLV>
0

>  <SCORE.SYSTEM.norm>
0

>  <SCORE.heavy>
37

>  <SCORE.norm>
1.38185

>  <RMSD>
20.781

$$$$
2oe5_lig
 OpenBabel11021811463D
libRbt.so/2013.1/901 2013/11/27
 37 40  0  0  0  0  0  0  0  0999 V2000
   13.7634   -0.5358   33.7671 C   0  0  1  0  0  0  0  0  0  0  0  0
   14.2463    0.5395   32.7682 C   0  0  1  0  0  0  0  0  0  0  0  0
   14.2585    1.9426   33.4811 C   0  0  0  0  0  0  0  0  0  0  0  0
   12.8019    2.1805   33.9384 C   0  0  1  0  0  0  0  0  0  0  0  0
   12.3196    1.0609   34.9631 C   0  0  1  0  0  0  0  0  0  0  0  0
   10.8591    1.2856   35.4412 C   0  0  1  0  0  0  0  0  0  0  0  0
   10.8173    2.6837   36.1211 C   0  0  1  0  0  0  0  0  0  0  0  0
   11.3434    3.7530   35.0901 C   0  0  2  0  0  0  0  0  0  0  0  0
    8.7002    2.1169   37.5562 C   0  0  0  0  0  0  0  0  0  0  0  0
   15.6120    0.2146   32.2961 N   0  0  0  0  0  0  0  0  0  0  0  0
    9.4119    3.0069   36.5737 N   0  0  0  0  0  0  0  0  0  0  0  0
   14.6547   -0.6687   34.8864 O   0  0  0  0  0  0  0  0  0  0  0  0
   12.4244   -0.2397   34.2983 O   0  0  0  0  0  0  0  0  0  0  0  0
   12.7093    3.4647   34.6114 O   0  0  0  0  0  0  0  0  0  0  0  0
   10.0057    1.2276   34.2938 O   0  0  0  0  0  0  0  0  0  0  0  0
   11.3797    5.0306   35.6949 O   0  0  0  0  0  0  0  0  0  0  0  0
   10.8200    5.9980   34.8266 C   0  0  2  0  0  0  0  0  0  0  0  0
   11.5029    6.0157   33.4596 C   0  0  1  0  0  0  0  0  0  0  0  0
   12.9916    6.4423   33.5817 C   0  0  2  0  0  0  0  0  0  0  0  0
   13.0241    7.8411   34.2658 C   0  0  1  0  0  0  0  0  0  0  0  0
   12.3475    7.7128   35.6701 C   0  0  1  0  0  0  0  0  0  0  0  0
   12.2759    9.0309   36.4083 C   0  0  0  0  0  0  0  0  0  0  0  0
   14.4691    8.2668   34.3867 N   0  0  0  0  0  0  0  0  0  0  0  0
   10.9520    7.3090   35.4604 O   0  0  0  0  0  0  0  0  0  0  0  0
   11.3931    4.6906   32.9032 O   0  0  0  0  0  0  0  0  0  0  0  0
   13.5372    6.5423   32.2537 O   0  0  0  0  0  0  0  0  0  0  0  0
   11.3776    8.9873   37.4637 O   0  0  0  0  0  0  0  0  0  0  0  0
   14.2946   -1.7045   35.8009 C   0  0  1  0  0  0  0  0  0  0  0  0
   12.8539   -1.4391   36.3672 C   0  0  1  0  0  0  0  0  0  0  0  0
   12.4754   -2.5972   37.3591 C   0  0  2  0  0  0  0  0  0  0  0  0
   12.4895   -3.9360   36.6060 C   0  0  1  0  0  0  0  0  0  0  0  0
   13.9404   -4.2079   36.0501 C   0  0  0  0  0  0  0  0  0  0  0  0
   14.3296   -3.0368   35.0644 C   0  0  2  0  0  0  0  0  0  0  0  0
   12.1196   -4.9959   37.5295 N   0  0  0  0  0  0  0  0  0  0  0  0
   15.7028   -3.2446   34.5342 N   0  0  0  0  0  0  0  0  0  0  0  0
   12.8356   -0.1700   37.0818 O   0  0  0  0  0  0  0  0  0  0  0  0
   11.1815   -2.3738   37.8534 O   0  0  0  0  0  0  0  0  0  0  0  0
  1  2  1  0  0  0  0
  1 12  1  1  0  0  0
  1 13  1  0  0  0  0
  2  3  1  0  0  0  0
  2 10  1  1  0  0  0
  4  3  1  1  0  0  0
  4  5  1  0  0  0  0
  4 14  1  0  0  0  0
  5  6  1  0  0  0  0
  5 13  1  6  0  0  0
  6  7  1  0  0  0  0
  6 15  1  6  0  0  0
  7  8  1  0  0  0  0
  7 11  1  6  0  0  0
  8 14  1  0  0  0  0
  8 16  1  1  0  0  0
  9 11  1  0  0  0  0
 17 16  1  1  0  0  0
 17 18  1  0  0  0  0
 17 24  1  0  0  0  0
 18 19  1  0  0  0  0
 18 25  1  1  0  0  0
 19 20  1  0  0  0  0
 19 26  1  6  0  0  0
 20 21  1  0  0  0  0
 20 23  1  1  0  0  0
 21 22  1  6  0  0  0
 21 24  1  0  0  0  0
 22 27  1  0  0  0  0
 28 12  1  6  0  0  0
 28 29  1  0  0  0  0
 28 33  1  0  0  0  0
 29 30  1  0  0  0  0
 29 36  1  1  0  0  0
 30 31  1  0  0  0  0
 30 37  1  6  0  0  0
 31 32  1  0  0  0  0
 31 34  1  1  0  0  0
 32 33  1  0  0  0  0
 33 35  1  1  0  0  0
M  END
>  <CHROM.1>
-176.55254162,59.40880729,-134.22753475,-55.49408929,163.85312235,-58.92976486
12.46456713,2.16038263,35.16414985,-1.40456983,0.73913482,-0.20780080

>  <Name>
2oe5_lig

>  <RI>
0

>  <Rbt.Current_Directory>
/home/afrankz/demos/rdock_decoys_rna/rnas/2oe5

>  <Rbt.Executable>
rbdock ($Id: //depot/dev/client3/rdock/2013.1/src/exe/rbdock.cxx#4 $)

>  <Rbt.Library>
libRbt.so (2013.1, Build901 2013/11/27)

>  <Rbt.Parameter_File>
/export/apps/rDock/src/rDock_2013.1_src/data/scripts/dock_solv.prm

>  <Rbt.Receptor>
prm/blind_docking_40.prm

>  <SCORE>
24.2769

>  <SCORE.INTER>
2.33259

>  <SCORE.INTER.CONST>
1

>  <SCORE.INTER.POLAR>
0

>  <SCORE.INTER.ROT>
6

>  <SCORE.INTER.SOLV>
17.0711

>  <SCORE.INTER.VDW>
-11.7353

>  <SCORE.INTER.norm>
0.0630429

>  <SCORE.INTRA>
7.89175

>  <SCORE.INTRA.DIHEDRAL>
-8.85482

>  <SCORE.INTRA.DIHEDRAL.0>
16.2083

>  <SCORE.INTRA.POLAR>
0

>  <SCORE.INTRA.POLAR.0>
0

>  <SCORE.INTRA.REPUL>
0

>  <SCORE.INTRA.REPUL.0>
0

>  <SCORE.INTRA.SOLV>
-0.578414

>  <SCORE.INTRA.SOLV.lig_0>
-89.8095

>  <SCORE.INTRA.VDW>
12.6084

>  <SCORE.INTRA.VDW.0>
-3.19502

>  <SCORE.INTRA.norm>
0.213291

>  <SCORE.RESTR>
14.0525

>  <SCORE.RESTR.CAVITY>
14.0525

>  <SCORE.RESTR.norm>
0.379799

>  <SCORE.SYSTEM>
0

>  <SCORE.SYSTEM.CONST>
0

>  <SCORE.SYSTEM.DIHEDRAL>
0

>  <SCORE.SYSTEM.SOLV>
0

>  <SCORE.SYSTEM.norm>
0

>  <SCORE.heavy>
37

>  <SCORE.norm>
0.656132

>  <RMSD>
20.784

$$$$
2oe5_lig
 OpenBabel11021811463D
libRbt.so/2013.1/901 2013/11/27
 37 40  0  0  0  0  0  0  0  0999 V2000
   13.9644    2.4078   34.4153 C   0  0  1  0  0  0  0  0  0  0  0  0
   14.1032    1.1751   33.4941 C   0  0  1  0  0  0  0  0  0  0  0  0
   12.7325    0.4029   33.4498 C   0  0  0  0  0  0  0  0  0  0  0  0
   12.4387    0.0088   34.9146 C   0  0  1  0  0  0  0  0  0  0  0  0
   12.3038    1.2906   35.8500 C   0  0  1  0  0  0  0  0  0  0  0  0
   12.0009    0.9166   37.3267 C   0  0  1  0  0  0  0  0  0  0  0  0
   10.6678    0.1157   37.3247 C   0  0  1  0  0  0  0  0  0  0  0  0
   10.8298   -1.1155   36.3547 C   0  0  2  0  0  0  0  0  0  0  0  0
    9.4128    0.4922   39.5932 C   0  0  0  0  0  0  0  0  0  0  0  0
   14.4713    1.6051   32.1255 N   0  0  0  0  0  0  0  0  0  0  0  0
   10.3224   -0.3346   38.7256 N   0  0  0  0  0  0  0  0  0  0  0  0
   12.9978    3.3463   33.9154 O   0  0  0  0  0  0  0  0  0  0  0  0
   13.5606    2.0389   35.7804 O   0  0  0  0  0  0  0  0  0  0  0  0
   11.1826   -0.7184   34.9778 O   0  0  0  0  0  0  0  0  0  0  0  0
   13.0922    0.1298   37.8149 O   0  0  0  0  0  0  0  0  0  0  0  0
    9.6143   -1.8337   36.2779 O   0  0  0  0  0  0  0  0  0  0  0  0
    8.5557   -0.9653   35.9196 C   0  0  2  0  0  0  0  0  0  0  0  0
    7.2167   -1.4087   36.5079 C   0  0  1  0  0  0  0  0  0  0  0  0
    6.7798   -2.7845   35.9341 C   0  0  2  0  0  0  0  0  0  0  0  0
    6.7168   -2.6474   34.3839 C   0  0  1  0  0  0  0  0  0  0  0  0
    8.1370   -2.2379   33.8726 C   0  0  1  0  0  0  0  0  0  0  0  0
    8.1816   -2.0245   32.3759 C   0  0  0  0  0  0  0  0  0  0  0  0
    6.2894   -3.9809   33.8156 N   0  0  0  0  0  0  0  0  0  0  0  0
    8.4667   -0.9341   34.4606 O   0  0  0  0  0  0  0  0  0  0  0  0
    7.3734   -1.4764   37.9392 O   0  0  0  0  0  0  0  0  0  0  0  0
    5.4684   -3.0847   36.4452 O   0  0  0  0  0  0  0  0  0  0  0  0
    7.3786   -0.9666   31.9777 O   0  0  0  0  0  0  0  0  0  0  0  0
   13.3324    4.7136   34.1546 C   0  0  1  0  0  0  0  0  0  0  0  0
   12.6068    5.6317   33.1070 C   0  0  1  0  0  0  0  0  0  0  0  0
   12.9793    7.1299   33.3985 C   0  0  2  0  0  0  0  0  0  0  0  0
   12.5133    7.5030   34.8139 C   0  0  1  0  0  0  0  0  0  0  0  0
   13.2535    6.5899   35.8658 C   0  0  0  0  0  0  0  0  0  0  0  0
   12.8930    5.0818   35.5653 C   0  0  2  0  0  0  0  0  0  0  0  0
   12.8467    8.8956   35.0640 N   0  0  0  0  0  0  0  0  0  0  0  0
   13.5904    4.1846   36.5238 N   0  0  0  0  0  0  0  0  0  0  0  0
   13.0452    5.2809   31.7630 O   0  0  0  0  0  0  0  0  0  0  0  0
   12.3184    7.9551   32.4762 O   0  0  0  0  0  0  0  0  0  0  0  0
  1  2  1  0  0  0  0
  1 12  1  6  0  0  0
  1 13  1  0  0  0  0
  2  3  1  0  0  0  0
  2 10  1  6  0  0  0
  4  3  1  6  0  0  0
  4  5  1  0  0  0  0
  4 14  1  0  0  0  0
  5  6  1  0  0  0  0
  5 13  1  1  0  0  0
  6  7  1  0  0  0  0
  6 15  1  6  0  0  0
  7  8  1  0  0  0  0
  7 11  1  1  0  0  0
  8 14  1  0  0  0  0
  8 16  1  6  0  0  0
  9 11  1  0  0  0  0
 17 16  1  6  0  0  0
 17 18  1  0  0  0  0
 17 24  1  0  0  0  0
 18 19  1  0  0  0  0
 18 25  1  1  0  0  0
 19 20  1  0  0  0  0
 19 26  1  1  0  0  0
 20 21  1  0  0  0  0
 20 23  1  6  0  0  0
 21 22  1  6  0  0  0
 21 24  1  0  0  0  0
 22 27  1  0  0  0  0
 28 12  1  6  0  0  0
 28 29  1  0  0  0  0
 28 33  1  0  0  0  0
 29 30  1  0  0  0  0
 29 36  1  6  0  0  0
 30 31  1  0  0  0  0
 30 37  1  6  0  0  0
 31 32  1  0  0  0  0
 31 34  1  1  0  0  0
 32 33  1  0  0  0  0
 33 35  1  1  0  0  0
M  END
>  <CHROM.1>
-144.59722078,94.07897430,53.99780979,-149.56665950,63.79958326,156.25314991
10.88048669,1.33697470,35.09897716,-0.40600648,0.90918642,1.89047395

>  <Name>
2oe5_lig

>  <RI>
0

>  <Rbt.Current_Directory>
/home/afrankz/demos/rdock_decoys_rna/rnas/2oe5

>  <Rbt.Executable>
rbdock ($Id: //depot/dev/client3/rdock/2013.1/src/exe/rbdock.cxx#4 $)

>  <Rbt.Library>
libRbt.so (2013.1, Build901 2013/11/27)

>  <Rbt.Parameter_File>
/export/apps/rDock/src/rDock_2013.1_src/data/scripts/dock_solv.prm

>  <Rbt.Receptor>
prm/blind_docking_40.prm

>  <SCORE>
16.7417

>  <SCORE.INTER>
-0.472059

>  <SCORE.INTER.CONST>
1

>  <SCORE.INTER.POLAR>
0

>  <SCORE.INTER.ROT>
6

>  <SCORE.INTER.SOLV>
9.5093

>  <SCORE.INTER.VDW>
-11.0845

>  <SCORE.INTER.norm>
-0.0127583

>  <SCORE.INTRA>
2.43829

>  <SCORE.INTRA.DIHEDRAL>
-4.49609

>  <SCORE.INTRA.DIHEDRAL.0>
16.2083

>  <SCORE.INTRA.POLAR>
0

>  <SCORE.INTRA.POLAR.0>
0

>  <SCORE.INTRA.REPUL>
0

>  <SCORE.INTRA.REPUL.0>
0

>  <SCORE.INTRA.SOLV>
1.90702

>  <SCORE.INTRA.SOLV.lig_0>
-89.8095

>  <SCORE.INTRA.VDW>
3.73282

>  <SCORE.INTRA.VDW.0>
-3.19502

>  <SCORE.INTRA.norm>
0.0658997

>  <SCORE.RESTR>
14.7754

>  <SCORE.RESTR.CAVITY>
14.7754

>  <SCORE.RESTR.norm>
0.399336

>  <SCORE.SYSTEM>
0

>  <SCORE.SYSTEM.CONST>
0

>  <SCORE.SYSTEM.DIHEDRAL>
0

>  <SCORE.SYSTEM.SOLV>
0

>  <SCORE.SYSTEM.norm>
0

>  <SCORE.heavy>
37

>  <SCORE.norm>
0.452477

>  <RMSD>
20.794

$$$$
2oe5_lig
 OpenBabel11021811463D
libRbt.so/2013.1/901 2013/11/27
 37 40  0  0  0  0  0  0  0  0999 V2000
   14.5039   -1.2774   33.6384 C   0  0  1  0  0  0  0  0  0  0  0  0
   15.2984   -0.4004   32.6450 C   0  0  1  0  0  0  0  0  0  0  0  0
   15.4898    1.0363   33.2585 C   0  0  0  0  0  0  0  0  0  0  0  0
   14.0602    1.5714   33.4977 C   0  0  1  0  0  0  0  0  0  0  0  0
   13.2546    0.6532   34.5197 C   0  0  1  0  0  0  0  0  0  0  0  0
   11.8162    1.1780   34.7799 C   0  0  1  0  0  0  0  0  0  0  0  0
   11.9581    2.6165   35.3538 C   0  0  1  0  0  0  0  0  0  0  0  0
   12.7975    3.4769   34.3349 C   0  0  2  0  0  0  0  0  0  0  0  0
    9.6959    2.6939   36.6727 C   0  0  0  0  0  0  0  0  0  0  0  0
   16.6247   -1.0058   32.3845 N   0  0  0  0  0  0  0  0  0  0  0  0
   10.5950    3.2256   35.5897 N   0  0  0  0  0  0  0  0  0  0  0  0
   15.2122   -1.4663   34.8743 O   0  0  0  0  0  0  0  0  0  0  0  0
   13.1909   -0.6996   33.9628 O   0  0  0  0  0  0  0  0  0  0  0  0
   14.1317    2.9068   34.0655 O   0  0  0  0  0  0  0  0  0  0  0  0
   11.1121    1.1706   33.5340 O   0  0  0  0  0  0  0  0  0  0  0  0
   13.0015    4.7766   34.8531 O   0  0  0  0  0  0  0  0  0  0  0  0
   11.8063    5.5297   34.7677 C   0  0  2  0  0  0  0  0  0  0  0  0
   11.5431    6.0426   33.3523 C   0  0  1  0  0  0  0  0  0  0  0  0
   12.6450    7.0413   32.9035 C   0  0  2  0  0  0  0  0  0  0  0  0
   12.6803    8.1995   33.9443 C   0  0  1  0  0  0  0  0  0  0  0  0
   13.0002    7.5851   35.3466 C   0  0  1  0  0  0  0  0  0  0  0  0
   13.0084    8.6187   36.4507 C   0  0  0  0  0  0  0  0  0  0  0  0
   13.7482    9.1789   33.5147 N   0  0  0  0  0  0  0  0  0  0  0  0
   11.9136    6.6598   35.6893 O   0  0  0  0  0  0  0  0  0  0  0  0
   11.5013    4.8978   32.4774 O   0  0  0  0  0  0  0  0  0  0  0  0
   12.2757    7.5629   31.6141 O   0  0  0  0  0  0  0  0  0  0  0  0
   11.7482    9.1530   36.6718 O   0  0  0  0  0  0  0  0  0  0  0  0
   14.4815   -2.1942   35.8617 C   0  0  1  0  0  0  0  0  0  0  0  0
   13.2154   -1.3748   36.3004 C   0  0  1  0  0  0  0  0  0  0  0  0
   12.4218   -2.2009   37.3757 C   0  0  2  0  0  0  0  0  0  0  0  0
   11.9779   -3.5378   36.7632 C   0  0  1  0  0  0  0  0  0  0  0  0
   13.2509   -4.3657   36.3362 C   0  0  0  0  0  0  0  0  0  0  0  0
   14.0589   -3.5306   35.2665 C   0  0  2  0  0  0  0  0  0  0  0  0
   11.2292   -4.2837   37.7613 N   0  0  0  0  0  0  0  0  0  0  0  0
   15.2815   -4.2685   34.8533 N   0  0  0  0  0  0  0  0  0  0  0  0
   13.6317   -0.1057   36.8814 O   0  0  0  0  0  0  0  0  0  0  0  0
   11.2798   -1.4806   37.7570 O   0  0  0  0  0  0  0  0  0  0  0  0
  1  2  1  0  0  0  0
  1 12  1  1  0  0  0
  1 13  1  0  0  0  0
  2  3  1  0  0  0  0
  2 10  1  1  0  0  0
  4  3  1  1  0  0  0
  4  5  1  0  0  0  0
  4 14  1  0  0  0  0
  5  6  1  0  0  0  0
  5 13  1  6  0  0  0
  6  7  1  0  0  0  0
  6 15  1  6  0  0  0
  7  8  1  0  0  0  0
  7 11  1  6  0  0  0
  8 14  1  0  0  0  0
  8 16  1  1  0  0  0
  9 11  1  0  0  0  0
 17 16  1  6  0  0  0
 17 18  1  0  0  0  0
 17 24  1  0  0  0  0
 18 19  1  0  0  0  0
 18 25  1  6  0  0  0
 19 20  1  0  0  0  0
 19 26  1  6  0  0  0
 20 21  1  0  0  0  0
 20 23  1  6  0  0  0
 21 22  1  1  0  0  0
 21 24  1  0  0  0  0
 22 27  1  0  0  0  0
 28 12  1  6  0  0  0
 28 29  1  0  0  0  0
 28 33  1  0  0  0  0
 29 30  1  0  0  0  0
 29 36  1  1  0  0  0
 30 31  1  0  0  0  0
 30 37  1  6  0  0  0
 31 32  1  0  0  0  0
 31 34  1  1  0  0  0
 32 33  1  0  0  0  0
 33 35  1  1  0  0  0
M  END
>  <CHROM.1>
175.95222894,68.72438570,-74.32761531,-77.56824176,66.60445576,-64.83791263
12.93582574,2.04213265,34.86411432,-1.39809836,0.82499877,-0.25594927

>  <Name>
2oe5_lig

>  <RI>
0

>  <Rbt.Current_Directory>
/home/afrankz/demos/rdock_decoys_rna/rnas/2oe5

>  <Rbt.Executable>
rbdock ($Id: //depot/dev/client3/rdock/2013.1/src/exe/rbdock.cxx#4 $)

>  <Rbt.Library>
libRbt.so (2013.1, Build901 2013/11/27)

>  <Rbt.Parameter_File>
/export/apps/rDock/src/rDock_2013.1_src/data/scripts/dock_solv.prm

>  <Rbt.Receptor>
prm/blind_docking_40.prm

>  <SCORE>
26.3542

>  <SCORE.INTER>
7.90886

>  <SCORE.INTER.CONST>
1

>  <SCORE.INTER.POLAR>
0

>  <SCORE.INTER.ROT>
6

>  <SCORE.INTER.SOLV>
19.1562

>  <SCORE.INTER.VDW>
-8.71283

>  <SCORE.INTER.norm>
0.213753

>  <SCORE.INTRA>
3.11845

>  <SCORE.INTRA.DIHEDRAL>
-13.3305

>  <SCORE.INTRA.DIHEDRAL.0>
16.2083

>  <SCORE.INTRA.POLAR>
0

>  <SCORE.INTRA.POLAR.0>
0

>  <SCORE.INTRA.REPUL>
0

>  <SCORE.INTRA.REPUL.0>
0

>  <SCORE.INTRA.SOLV>
0.285381

>  <SCORE.INTRA.SOLV.lig_0>
-89.8095

>  <SCORE.INTRA.VDW>
9.641

>  <SCORE.INTRA.VDW.0>
-3.19502

>  <SCORE.INTRA.norm>
0.0842824

>  <SCORE.RESTR>
15.3269

>  <SCORE.RESTR.CAVITY>
15.3269

>  <SCORE.RESTR.norm>
0.41424

>  <SCORE.SYSTEM>
0

>  <SCORE.SYSTEM.CONST>
0

>  <SCORE.SYSTEM.DIHEDRAL>
0

>  <SCORE.SYSTEM.SOLV>
0

>  <SCORE.SYSTEM.norm>
0

>  <SCORE.heavy>
37

>  <SCORE.norm>
0.712276

>  <RMSD>
20.818

$$$$
2oe5_lig
 OpenBabel11021811463D
libRbt.so/2013.1/901 2013/11/27
 37 40  0  0  0  0  0  0  0  0999 V2000
   12.1837    4.5627   35.2368 C   0  0  1  0  0  0  0  0  0  0  0  0
   12.8886    4.2946   36.5854 C   0  0  1  0  0  0  0  0  0  0  0  0
   13.4860    2.8385   36.5788 C   0  0  0  0  0  0  0  0  0  0  0  0
   12.2773    1.9026   36.3539 C   0  0  1  0  0  0  0  0  0  0  0  0
   11.5605    2.1962   34.9623 C   0  0  1  0  0  0  0  0  0  0  0  0
   10.3461    1.2605   34.7131 C   0  0  1  0  0  0  0  0  0  0  0  0
   10.8877   -0.1971   34.7364 C   0  0  1  0  0  0  0  0  0  0  0  0
   11.6265   -0.4303   36.1087 C   0  0  2  0  0  0  0  0  0  0  0  0
    8.9202   -1.1612   33.3005 C   0  0  0  0  0  0  0  0  0  0  0  0
   13.9803    5.2745   36.7893 N   0  0  0  0  0  0  0  0  0  0  0  0
    9.7561   -1.1819   34.5513 N   0  0  0  0  0  0  0  0  0  0  0  0
   13.1016    4.5169   34.1321 O   0  0  0  0  0  0  0  0  0  0  0  0
   11.1139    3.5907   34.9660 O   0  0  0  0  0  0  0  0  0  0  0  0
   12.7305    0.5225   36.3349 O   0  0  0  0  0  0  0  0  0  0  0  0
    9.3923    1.4892   35.7552 O   0  0  0  0  0  0  0  0  0  0  0  0
   12.1882   -1.7274   36.1409 O   0  0  0  0  0  0  0  0  0  0  0  0
   12.2522   -2.1991   37.4738 C   0  0  2  0  0  0  0  0  0  0  0  0
   12.6410   -3.6751   37.5493 C   0  0  1  0  0  0  0  0  0  0  0  0
   11.5609   -4.5744   36.8878 C   0  0  2  0  0  0  0  0  0  0  0  0
   10.2095   -4.2917   37.6088 C   0  0  1  0  0  0  0  0  0  0  0  0
    9.8743   -2.7735   37.4383 C   0  0  1  0  0  0  0  0  0  0  0  0
    8.6003   -2.3718   38.1475 C   0  0  0  0  0  0  0  0  0  0  0  0
    9.1516   -5.1646   36.9740 N   0  0  0  0  0  0  0  0  0  0  0  0
   10.9405   -2.0029   38.0894 O   0  0  0  0  0  0  0  0  0  0  0  0
   13.9103   -3.8235   36.8826 O   0  0  0  0  0  0  0  0  0  0  0  0
   11.9381   -5.9481   37.0922 O   0  0  0  0  0  0  0  0  0  0  0  0
    8.8034   -2.1648   39.5034 O   0  0  0  0  0  0  0  0  0  0  0  0
   12.5918    5.0832   32.9246 C   0  0  1  0  0  0  0  0  0  0  0  0
   11.1653    4.4996   32.6222 C   0  0  1  0  0  0  0  0  0  0  0  0
   10.6207    5.1467   31.2981 C   0  0  2  0  0  0  0  0  0  0  0  0
   10.5218    6.6688   31.4799 C   0  0  1  0  0  0  0  0  0  0  0  0
   11.9573    7.2552   31.7693 C   0  0  0  0  0  0  0  0  0  0  0  0
   12.5137    6.5947   33.0916 C   0  0  2  0  0  0  0  0  0  0  0  0
    9.9994    7.2529   30.2556 N   0  0  0  0  0  0  0  0  0  0  0  0
   13.8778    7.1057   33.3882 N   0  0  0  0  0  0  0  0  0  0  0  0
   11.2541    3.0561   32.4497 O   0  0  0  0  0  0  0  0  0  0  0  0
    9.3385    4.6419   31.0342 O   0  0  0  0  0  0  0  0  0  0  0  0
  1  2  1  0  0  0  0
  1 12  1  6  0  0  0
  1 13  1  0  0  0  0
  2  3  1  0  0  0  0
  2 10  1  6  0  0  0
  4  3  1  6  0  0  0
  4  5  1  0  0  0  0
  4 14  1  0  0  0  0
  5  6  1  0  0  0  0
  5 13  1  1  0  0  0
  6  7  1  0  0  0  0
  6 15  1  1  0  0  0
  7  8  1  0  0  0  0
  7 11  1  1  0  0  0
  8 14  1  0  0  0  0
  8 16  1  6  0  0  0
  9 11  1  0  0  0  0
 17 16  1  6  0  0  0
 17 18  1  0  0  0  0
 17 24  1  0  0  0  0
 18 19  1  0  0  0  0
 18 25  1  6  0  0  0
 19 20  1  0  0  0  0
 19 26  1  1  0  0  0
 20 21  1  0  0  0  0
 20 23  1  6  0  0  0
 21 22  1  1  0  0  0
 21 24  1  0  0  0  0
 22 27  1  0  0  0  0
 28 12  1  1  0  0  0
 28 29  1  0  0  0  0
 28 33  1  0  0  0  0
 29 30  1  0  0  0  0
 29 36  1  6  0  0  0
 30 31  1  0  0  0  0
 30 37  1  1  0  0  0
 31 32  1  0  0  0  0
 31 34  1  6  0  0  0
 32 33  1  0  0  0  0
 33 35  1  6  0  0  0
M  END
>  <CHROM.1>
-164.84561339,60.61664251,-151.15792793,170.85480540,80.69296558,-49.31018117
11.34515676,1.19113370,35.18661512,-1.47323560,0.68982405,2.61602735

>  <Name>
2oe5_lig

>  <RI>
0

>  <Rbt.Current_Directory>
/home/afrankz/demos/rdock_decoys_rna/rnas/2oe5

>  <Rbt.Executable>
rbdock ($Id: //depot/dev/client3/rdock/2013.1/src/exe/rbdock.cxx#4 $)

>  <Rbt.Library>
libRbt.so (2013.1, Build901 2013/11/27)

>  <Rbt.Parameter_File>
/export/apps/rDock/src/rDock_2013.1_src/data/scripts/dock_solv.prm

>  <Rbt.Receptor>
prm/blind_docking_40.prm

>  <SCORE>
16.1435

>  <SCORE.INTER>
-0.533281

>  <SCORE.INTER.CONST>
1

>  <SCORE.INTER.POLAR>
0

>  <SCORE.INTER.ROT>
6

>  <SCORE.INTER.SOLV>
16.1124

>  <SCORE.INTER.VDW>
-13.3263

>  <SCORE.INTER.norm>
-0.014413

>  <SCORE.INTRA>
0.0234196

>  <SCORE.INTRA.DIHEDRAL>
-9.36109

>  <SCORE.INTRA.DIHEDRAL.0>
16.2083

>  <SCORE.INTRA.POLAR>
0

>  <SCORE.INTRA.POLAR.0>
0

>  <SCORE.INTRA.REPUL>
0

>  <SCORE.INTRA.REPUL.0>
0

>  <SCORE.INTRA.SOLV>
-0.117385

>  <SCORE.INTRA.SOLV.lig_0>
-89.8095

>  <SCORE.INTRA.VDW>
4.76266

>  <SCORE.INTRA.VDW.0>
-3.19502

>  <SCORE.INTRA.norm>
0.000632961

>  <SCORE.RESTR>
16.6533

>  <SCORE.RESTR.CAVITY>
16.6533

>  <SCORE.RESTR.norm>
0.45009

>  <SCORE.SYSTEM>
0

>  <SCORE.SYSTEM.CONST>
0

>  <SCORE.SYSTEM.DIHEDRAL>
0

>  <SCORE.SYSTEM.SOLV>
0

>  <SCORE.SYSTEM.norm>
0

>  <SCORE.heavy>
37

>  <SCORE.norm>
0.43631

>  <RMSD>
20.945

$$$$
2oe5_lig
 OpenBabel11021811463D
libRbt.so/2013.1/901 2013/11/27
 37 40  0  0  0  0  0  0  0  0999 V2000
    9.3449   -1.2053   38.3833 C   0  0  1  0  0  0  0  0  0  0  0  0
    9.8050   -0.0543   39.3058 C   0  0  1  0  0  0  0  0  0  0  0  0
   10.2678    1.1645   38.4241 C   0  0  0  0  0  0  0  0  0  0  0  0
   11.4187    0.6207   37.5482 C   0  0  1  0  0  0  0  0  0  0  0  0
   10.9279   -0.5675   36.6081 C   0  0  1  0  0  0  0  0  0  0  0  0
   12.0688   -1.1241   35.7133 C   0  0  1  0  0  0  0  0  0  0  0  0
   12.5831    0.0618   34.8486 C   0  0  1  0  0  0  0  0  0  0  0  0
   13.0155    1.2295   35.8145 C   0  0  2  0  0  0  0  0  0  0  0  0
   15.1073   -0.5798   34.5669 C   0  0  0  0  0  0  0  0  0  0  0  0
    8.6891    0.3676   40.1833 N   0  0  0  0  0  0  0  0  0  0  0  0
   13.7365   -0.3827   33.9788 N   0  0  0  0  0  0  0  0  0  0  0  0
    8.2051   -0.8356   37.5902 O   0  0  0  0  0  0  0  0  0  0  0  0
   10.4063   -1.6370   37.4615 O   0  0  0  0  0  0  0  0  0  0  0  0
   11.9197    1.6828   36.6929 O   0  0  0  0  0  0  0  0  0  0  0  0
   13.0919   -1.6378   36.5721 O   0  0  0  0  0  0  0  0  0  0  0  0
   13.4306    2.3515   35.0608 O   0  0  0  0  0  0  0  0  0  0  0  0
   12.4950    2.6238   34.0344 C   0  0  2  0  0  0  0  0  0  0  0  0
   13.0715    3.5326   32.9494 C   0  0  1  0  0  0  0  0  0  0  0  0
   13.4183    4.9357   33.5187 C   0  0  2  0  0  0  0  0  0  0  0  0
   12.1168    5.5248   34.1393 C   0  0  1  0  0  0  0  0  0  0  0  0
   11.6306    4.5537   35.2648 C   0  0  1  0  0  0  0  0  0  0  0  0
   10.3365    5.0021   35.9064 C   0  0  0  0  0  0  0  0  0  0  0  0
   12.4430    6.8923   34.6938 N   0  0  0  0  0  0  0  0  0  0  0  0
   11.3267    3.2603   34.6408 O   0  0  0  0  0  0  0  0  0  0  0  0
   14.2484    2.8872   32.4239 O   0  0  0  0  0  0  0  0  0  0  0  0
   13.8499    5.7663   32.4255 O   0  0  0  0  0  0  0  0  0  0  0  0
    9.2385    4.3377   35.3814 O   0  0  0  0  0  0  0  0  0  0  0  0
    8.4569   -0.8010   36.1852 C   0  0  1  0  0  0  0  0  0  0  0  0
    7.6750   -1.9628   35.4741 C   0  0  1  0  0  0  0  0  0  0  0  0
    7.9569   -1.8958   33.9299 C   0  0  2  0  0  0  0  0  0  0  0  0
    7.4721   -0.5445   33.3833 C   0  0  1  0  0  0  0  0  0  0  0  0
    8.2683    0.6207   34.0880 C   0  0  0  0  0  0  0  0  0  0  0  0
    7.9990    0.5461   35.6424 C   0  0  2  0  0  0  0  0  0  0  0  0
    7.7212   -0.5027   31.9518 N   0  0  0  0  0  0  0  0  0  0  0  0
    8.7512    1.6170   36.3476 N   0  0  0  0  0  0  0  0  0  0  0  0
    8.1311   -3.2463   35.9899 O   0  0  0  0  0  0  0  0  0  0  0  0
    7.2455   -2.9208   33.2885 O   0  0  0  0  0  0  0  0  0  0  0  0
  1  2  1  0  0  0  0
  1 12  1  6  0  0  0
  1 13  1  0  0  0  0
  2  3  1  0  0  0  0
  2 10  1  1  0  0  0
  4  3  1  6  0  0  0
  4  5  1  0  0  0  0
  4 14  1  0  0  0  0
  5  6  1  0  0  0  0
  5 13  1  1  0  0  0
  6  7  1  0  0  0  0
  6 15  1  1  0  0  0
  7  8  1  0  0  0  0
  7 11  1  1  0  0  0
  8 14  1  0  0  0  0
  8 16  1  6  0  0  0
  9 11  1  0  0  0  0
 17 16  1  1  0  0  0
 17 18  1  0  0  0  0
 17 24  1  0  0  0  0
 18 19  1  0  0  0  0
 18 25  1  1  0  0  0
 19 20  1  0  0  0  0
 19 26  1  6  0  0  0
 20 21  1  0  0  0  0
 20 23  1  1  0  0  0
 21 22  1  6  0  0  0
 21 24  1  0  0  0  0
 22 27  1  0  0  0  0
 28 12  1  1  0  0  0
 28 29  1  0  0  0  0
 28 33  1  0  0  0  0
 29 30  1  0  0  0  0
 29 36  1  1  0  0  0
 30 31  1  0  0  0  0
 30 37  1  6  0  0  0
 31 32  1  0  0  0  0
 31 34  1  6  0  0  0
 32 33  1  0  0  0  0
 33 35  1  1  0  0  0
M  END
>  <CHROM.1>
115.45669447,-76.15991292,47.02236131,-162.93251288,98.47913796,111.56094730
10.77487902,1.06773935,35.40589155,-2.39220988,-0.65893335,-0.95190840

>  <Name>
2oe5_lig

>  <RI>
0

>  <Rbt.Current_Directory>
/home/afrankz/demos/rdock_decoys_rna/rnas/2oe5

>  <Rbt.Executable>
rbdock ($Id: //depot/dev/client3/rdock/2013.1/src/exe/rbdock.cxx#4 $)

>  <Rbt.Library>
libRbt.so (2013.1, Build901 2013/11/27)

>  <Rbt.Parameter_File>
/export/apps/rDock/src/rDock_2013.1_src/data/scripts/dock_solv.prm

>  <Rbt.Receptor>
prm/blind_docking_40.prm

>  <SCORE>
31.6176

>  <SCORE.INTER>
1.60514

>  <SCORE.INTER.CONST>
1

>  <SCORE.INTER.POLAR>
0

>  <SCORE.INTER.ROT>
6

>  <SCORE.INTER.SOLV>
7.73369

>  <SCORE.INTER.VDW>
-9.1078

>  <SCORE.INTER.norm>
0.0433822

>  <SCORE.INTRA>
15.3466

>  <SCORE.INTRA.DIHEDRAL>
3.82131

>  <SCORE.INTRA.DIHEDRAL.0>
16.2083

>  <SCORE.INTRA.POLAR>
0

>  <SCORE.INTRA.POLAR.0>
0

>  <SCORE.INTRA.REPUL>
0

>  <SCORE.INTRA.REPUL.0>
0

>  <SCORE.INTRA.SOLV>
5.56075

>  <SCORE.INTRA.SOLV.lig_0>
-89.8095

>  <SCORE.INTRA.VDW>
10.6555

>  <SCORE.INTRA.VDW.0>
-3.19502

>  <SCORE.INTRA.norm>
0.414772

>  <SCORE.RESTR>
14.6659

>  <SCORE.RESTR.CAVITY>
14.6659

>  <SCORE.RESTR.norm>
0.396376

>  <SCORE.SYSTEM>
0

>  <SCORE.SYSTEM.CONST>
0

>  <SCORE.SYSTEM.DIHEDRAL>
0

>  <SCORE.SYSTEM.SOLV>
0

>  <SCORE.SYSTEM.norm>
0

>  <SCORE.heavy>
37

>  <SCORE.norm>
0.85453

>  <RMSD>
20.969

$$$$
2oe5_lig
 OpenBabel11021811463D
libRbt.so/2013.1/901 2013/11/27
 37 40  0  0  0  0  0  0  0  0999 V2000
    9.6508   -0.6602   37.4082 C   0  0  1  0  0  0  0  0  0  0  0  0
    9.9251    0.5605   38.3148 C   0  0  1  0  0  0  0  0  0  0  0  0
   10.2849    1.8030   37.4181 C   0  0  0  0  0  0  0  0  0  0  0  0
   11.5345    1.3780   36.6146 C   0  0  1  0  0  0  0  0  0  0  0  0
   11.2349    0.1163   35.6901 C   0  0  1  0  0  0  0  0  0  0  0  0
   12.4770   -0.3231   34.8677 C   0  0  1  0  0  0  0  0  0  0  0  0
   12.8909    0.8933   33.9914 C   0  0  1  0  0  0  0  0  0  0  0  0
   13.1336    2.1284   34.9395 C   0  0  2  0  0  0  0  0  0  0  0  0
   14.2345   -0.7283   32.4333 C   0  0  0  0  0  0  0  0  0  0  0  0
    8.7245    0.8688   39.1253 N   0  0  0  0  0  0  0  0  0  0  0  0
   14.1309    0.5674   33.1910 N   0  0  0  0  0  0  0  0  0  0  0  0
    8.5167   -0.4493   36.5512 O   0  0  0  0  0  0  0  0  0  0  0  0
   10.8007   -0.9857   36.5512 O   0  0  0  0  0  0  0  0  0  0  0  0
   11.9492    2.4701   35.7509 O   0  0  0  0  0  0  0  0  0  0  0  0
   13.5090   -0.6891   35.7892 O   0  0  0  0  0  0  0  0  0  0  0  0
   13.4510    3.2723   34.1714 O   0  0  0  0  0  0  0  0  0  0  0  0
   12.3010    3.7384   33.4909 C   0  0  2  0  0  0  0  0  0  0  0  0
   12.6530    4.5823   32.2664 C   0  0  1  0  0  0  0  0  0  0  0  0
   13.3955    5.8836   32.6765 C   0  0  2  0  0  0  0  0  0  0  0  0
   12.4763    6.6550   33.6694 C   0  0  1  0  0  0  0  0  0  0  0  0
   12.2107    5.7331   34.9046 C   0  0  1  0  0  0  0  0  0  0  0  0
   11.2809    6.3639   35.9170 C   0  0  0  0  0  0  0  0  0  0  0  0
   13.1889    7.9253   34.0726 N   0  0  0  0  0  0  0  0  0  0  0  0
   11.5096    4.5350   34.4274 O   0  0  0  0  0  0  0  0  0  0  0  0
   13.4762    3.7722   31.4040 O   0  0  0  0  0  0  0  0  0  0  0  0
   13.5963    6.6749   31.4914 O   0  0  0  0  0  0  0  0  0  0  0  0
   11.7391    7.6012   36.3433 O   0  0  0  0  0  0  0  0  0  0  0  0
    8.5973   -1.1275   35.2973 C   0  0  1  0  0  0  0  0  0  0  0  0
    7.6024   -2.3428   35.2831 C   0  0  1  0  0  0  0  0  0  0  0  0
    7.6994   -3.0640   33.8906 C   0  0  2  0  0  0  0  0  0  0  0  0
    7.3147   -2.0760   32.7791 C   0  0  1  0  0  0  0  0  0  0  0  0
    8.3233   -0.8631   32.7854 C   0  0  0  0  0  0  0  0  0  0  0  0
    8.2390   -0.1457   34.1899 C   0  0  2  0  0  0  0  0  0  0  0  0
    7.3902   -2.7601   31.4987 N   0  0  0  0  0  0  0  0  0  0  0  0
    9.1931    0.9930   34.2448 N   0  0  0  0  0  0  0  0  0  0  0  0
    7.9631   -3.2822   36.3362 O   0  0  0  0  0  0  0  0  0  0  0  0
    6.7988   -4.1394   33.8669 O   0  0  0  0  0  0  0  0  0  0  0  0
  1  2  1  0  0  0  0
  1 12  1  6  0  0  0
  1 13  1  0  0  0  0
  2  3  1  0  0  0  0
  2 10  1  6  0  0  0
  4  3  1  6  0  0  0
  4  5  1  0  0  0  0
  4 14  1  0  0  0  0
  5  6  1  0  0  0  0
  5 13  1  1  0  0  0
  6  7  1  0  0  0  0
  6 15  1  1  0  0  0
  7  8  1  0  0  0  0
  7 11  1  1  0  0  0
  8 14  1  0  0  0  0
  8 16  1  6  0  0  0
  9 11  1  0  0  0  0
 17 16  1  1  0  0  0
 17 18  1  0  0  0  0
 17 24  1  0  0  0  0
 18 19  1  0  0  0  0
 18 25  1  6  0  0  0
 19 20  1  0  0  0  0
 19 26  1  6  0  0  0
 20 21  1  0  0  0  0
 20 23  1  1  0  0  0
 21 22  1  1  0  0  0
 21 24  1  0  0  0  0
 22 27  1  0  0  0  0
 28 12  1  1  0  0  0
 28 29  1  0  0  0  0
 28 33  1  0  0  0  0
 29 30  1  0  0  0  0
 29 36  1  1  0  0  0
 30 31  1  0  0  0  0
 30 37  1  1  0  0  0
 31 32  1  0  0  0  0
 31 34  1  6  0  0  0
 32 33  1  0  0  0  0
 33 35  1  6  0  0  0
M  END
>  <CHROM.1>
149.27663280,47.16935198,71.88114490,-157.58518696,-55.47124754,107.12078587
10.92568120,1.49455598,34.69181207,2.66557023,-0.96965001,-2.27281477

>  <Name>
2oe5_lig

>  <RI>
0

>  <Rbt.Current_Directory>
/home/afrankz/demos/rdock_decoys_rna/rnas/2oe5

>  <Rbt.Executable>
rbdock ($Id: //depot/dev/client3/rdock/2013.1/src/exe/rbdock.cxx#4 $)

>  <Rbt.Library>
libRbt.so (2013.1, Build901 2013/11/27)

>  <Rbt.Parameter_File>
/export/apps/rDock/src/rDock_2013.1_src/data/scripts/dock_solv.prm

>  <Rbt.Receptor>
prm/blind_docking_40.prm

>  <SCORE>
13.3277

>  <SCORE.INTER>
-3.59511

>  <SCORE.INTER.CONST>
1

>  <SCORE.INTER.POLAR>
0

>  <SCORE.INTER.ROT>
6

>  <SCORE.INTER.SOLV>
12.4358

>  <SCORE.INTER.VDW>
-14.142

>  <SCORE.INTER.norm>
-0.097165

>  <SCORE.INTRA>
4.93965

>  <SCORE.INTRA.DIHEDRAL>
-2.93833

>  <SCORE.INTRA.DIHEDRAL.0>
16.2083

>  <SCORE.INTRA.POLAR>
0

>  <SCORE.INTRA.POLAR.0>
0

>  <SCORE.INTRA.REPUL>
0.122356

>  <SCORE.INTRA.REPUL.0>
0

>  <SCORE.INTRA.SOLV>
3.61378

>  <SCORE.INTRA.SOLV.lig_0>
-89.8095

>  <SCORE.INTRA.VDW>
3.99014

>  <SCORE.INTRA.VDW.0>
-3.19502

>  <SCORE.INTRA.norm>
0.133504

>  <SCORE.RESTR>
11.9831

>  <SCORE.RESTR.CAVITY>
11.9831

>  <SCORE.RESTR.norm>
0.323868

>  <SCORE.SYSTEM>
0

>  <SCORE.SYSTEM.CONST>
0

>  <SCORE.SYSTEM.DIHEDRAL>
0

>  <SCORE.SYSTEM.SOLV>
0

>  <SCORE.SYSTEM.norm>
0

>  <SCORE.heavy>
37

>  <SCORE.norm>
0.360207

>  <RMSD>
21.691

$$$$
2oe5_lig
 OpenBabel11021811463D
libRbt.so/2013.1/901 2013/11/27
 37 40  0  0  0  0  0  0  0  0999 V2000
    9.9401   -1.6430   37.0435 C   0  0  1  0  0  0  0  0  0  0  0  0
    9.1736   -0.3444   37.3802 C   0  0  1  0  0  0  0  0  0  0  0  0
    9.1323    0.5795   36.1067 C   0  0  0  0  0  0  0  0  0  0  0  0
   10.6114    0.8487   35.7498 C   0  0  1  0  0  0  0  0  0  0  0  0
   11.3868   -0.5004   35.4107 C   0  0  1  0  0  0  0  0  0  0  0  0
   12.8748   -0.2513   35.0419 C   0  0  1  0  0  0  0  0  0  0  0  0
   12.8810    0.6921   33.8055 C   0  0  1  0  0  0  0  0  0  0  0  0
   12.0672    1.9918   34.1687 C   0  0  2  0  0  0  0  0  0  0  0  0
   14.8780    0.5106   32.1197 C   0  0  0  0  0  0  0  0  0  0  0  0
    7.7905   -0.6676   37.7998 N   0  0  0  0  0  0  0  0  0  0  0  0
   14.2998    1.0295   33.4083 N   0  0  0  0  0  0  0  0  0  0  0  0
    9.2797   -2.4075   36.0216 O   0  0  0  0  0  0  0  0  0  0  0  0
   11.3107   -1.3756   36.5822 O   0  0  0  0  0  0  0  0  0  0  0  0
   10.6787    1.7037   34.5772 O   0  0  0  0  0  0  0  0  0  0  0  0
   13.5143    0.3504   36.1720 O   0  0  0  0  0  0  0  0  0  0  0  0
   11.9973    2.8479   33.0455 O   0  0  0  0  0  0  0  0  0  0  0  0
   11.2984    4.0329   33.3774 C   0  0  2  0  0  0  0  0  0  0  0  0
   11.5708    5.1644   32.3870 C   0  0  1  0  0  0  0  0  0  0  0  0
   13.0640    5.5915   32.4200 C   0  0  2  0  0  0  0  0  0  0  0  0
   13.4010    6.0059   33.8830 C   0  0  1  0  0  0  0  0  0  0  0  0
   13.1361    4.7755   34.8115 C   0  0  1  0  0  0  0  0  0  0  0  0
   13.3821    5.0805   36.2723 C   0  0  0  0  0  0  0  0  0  0  0  0
   14.8521    6.4263   33.9253 N   0  0  0  0  0  0  0  0  0  0  0  0
   11.7094    4.4431   34.7193 O   0  0  0  0  0  0  0  0  0  0  0  0
   11.2016    4.6914   31.0764 O   0  0  0  0  0  0  0  0  0  0  0  0
   13.2227    6.7260   31.5488 O   0  0  0  0  0  0  0  0  0  0  0  0
   12.9849    4.0375   37.0951 O   0  0  0  0  0  0  0  0  0  0  0  0
    8.2576   -1.6935   35.3258 C   0  0  1  0  0  0  0  0  0  0  0  0
    8.6014   -1.6263   33.7948 C   0  0  1  0  0  0  0  0  0  0  0  0
    7.4574   -0.8488   33.0497 C   0  0  2  0  0  0  0  0  0  0  0  0
    6.1279   -1.5938   33.2424 C   0  0  1  0  0  0  0  0  0  0  0  0
    5.7768   -1.6479   34.7793 C   0  0  0  0  0  0  0  0  0  0  0  0
    6.9331   -2.4156   35.5330 C   0  0  2  0  0  0  0  0  0  0  0  0
    5.0821   -0.8752   32.5332 N   0  0  0  0  0  0  0  0  0  0  0  0
    6.6504   -2.4693   36.9915 N   0  0  0  0  0  0  0  0  0  0  0  0
    9.8619   -0.9211   33.6072 O   0  0  0  0  0  0  0  0  0  0  0  0
    7.7513   -0.8025   31.6786 O   0  0  0  0  0  0  0  0  0  0  0  0
  1  2  1  0  0  0  0
  1 12  1  6  0  0  0
  1 13  1  0  0  0  0
  2  3  1  0  0  0  0
  2 10  1  6  0  0  0
  4  3  1  6  0  0  0
  4  5  1  0  0  0  0
  4 14  1  0  0  0  0
  5  6  1  0  0  0  0
  5 13  1  1  0  0  0
  6  7  1  0  0  0  0
  6 15  1  1  0  0  0
  7  8  1  0  0  0  0
  7 11  1  1  0  0  0
  8 14  1  0  0  0  0
  8 16  1  6  0  0  0
  9 11  1  0  0  0  0
 17 16  1  6  0  0  0
 17 18  1  0  0  0  0
 17 24  1  0  0  0  0
 18 19  1  0  0  0  0
 18 25  1  6  0  0  0
 19 20  1  0  0  0  0
 19 26  1  6  0  0  0
 20 21  1  0  0  0  0
 20 23  1  6  0  0  0
 21 22  1  1  0  0  0
 21 24  1  0  0  0  0
 22 27  1  0  0  0  0
 28 12  1  1  0  0  0
 28 29  1  0  0  0  0
 28 33  1  0  0  0  0
 29 30  1  0  0  0  0
 29 36  1  1  0  0  0
 30 31  1  0  0  0  0
 30 37  1  6  0  0  0
 31 32  1  0  0  0  0
 31 34  1  6  0  0  0
 32 33  1  0  0  0  0
 33 35  1  1  0  0  0
M  END
>  <CHROM.1>
13.57357561,111.52132196,-178.41786804,161.46567222,172.48193333,120.13046867
10.68897846,1.25390245,34.48238760,-2.44786451,-0.57374144,-0.81877831

>  <Name>
2oe5_lig

>  <RI>
0

>  <Rbt.Current_Directory>
/home/afrankz/demos/rdock_decoys_rna/rnas/2oe5

>  <Rbt.Executable>
rbdock ($Id: //depot/dev/client3/rdock/2013.1/src/exe/rbdock.cxx#4 $)

>  <Rbt.Library>
libRbt.so (2013.1, Build901 2013/11/27)

>  <Rbt.Parameter_File>
/export/apps/rDock/src/rDock_2013.1_src/data/scripts/dock_solv.prm

>  <Rbt.Receptor>
prm/blind_docking_40.prm

>  <SCORE>
29.7918

>  <SCORE.INTER>
0.0101784

>  <SCORE.INTER.CONST>
1

>  <SCORE.INTER.POLAR>
0

>  <SCORE.INTER.ROT>
6

>  <SCORE.INTER.SOLV>
8.73172

>  <SCORE.INTER.VDW>
-10.5038

>  <SCORE.INTER.norm>
0.000275091

>  <SCORE.INTRA>
20.0817

>  <SCORE.INTRA.DIHEDRAL>
0.260257

>  <SCORE.INTRA.DIHEDRAL.0>
16.2083

>  <SCORE.INTRA.POLAR>
0

>  <SCORE.INTRA.POLAR.0>
0

>  <SCORE.INTRA.REPUL>
0.004319

>  <SCORE.INTRA.REPUL.0>
0

>  <SCORE.INTRA.SOLV>
4.79325

>  <SCORE.INTRA.SOLV.lig_0>
-89.8095

>  <SCORE.INTRA.VDW>
17.5334

>  <SCORE.INTRA.VDW.0>
-3.19502

>  <SCORE.INTRA.norm>
0.542749

>  <SCORE.RESTR>
9.69994

>  <SCORE.RESTR.CAVITY>
9.69994

>  <SCORE.RESTR.norm>
0.262161

>  <SCORE.SYSTEM>
0

>  <SCORE.SYSTEM.CONST>
0

>  <SCORE.SYSTEM.DIHEDRAL>
0

>  <SCORE.SYSTEM.SOLV>
0

>  <SCORE.SYSTEM.norm>
0

>  <SCORE.heavy>
37

>  <SCORE.norm>
0.805185

>  <RMSD>
21.855

$$$$
