ligand
  PyMOL2.2          3D                             0

 26 27  0  0  0  0  0  0  0  0999 V2000
   -8.0100  -13.3600   23.0030 C   0  0  0  0  0  0  0  0  0  0  0  0
   -9.6080  -16.5780   26.1190 C   0  0  0  0  0  0  0  0  0  0  0  0
   -8.9780  -16.3250   24.9050 C   0  0  0  0  0  0  0  0  0  0  0  0
   -7.6040  -15.6600   24.7930 C   0  0  0  0  0  0  0  0  0  0  0  0
   -7.2980  -14.6460   22.5730 C   0  0  0  0  0  0  0  0  0  0  0  0
  -12.7870  -18.3020   24.9130 C   0  0  0  0  0  0  0  0  0  0  0  0
  -11.4350  -17.5870   24.9160 C   0  0  0  0  0  0  0  0  0  0  0  0
   -9.6260  -16.7200   23.7390 C   0  0  0  0  0  0  0  0  0  0  0  0
   -6.4650  -16.7350   22.9270 C   0  0  0  0  0  0  0  0  0  0  0  0
   -6.7800  -14.8110   21.2940 C   0  0  0  0  0  0  0  0  0  0  0  0
   -6.7630  -13.8670   20.0890 C   0  0  0  0  0  0  0  0  0  0  0  0
   -6.1070  -12.5190   20.3970 C   0  0  0  0  0  0  0  0  0  0  0  0
  -10.8500  -17.2160   26.1340 N   0  0  0  0  0  0  0  0  0  0  0  0
   -7.1200  -15.6760   23.4050 N   0  0  0  0  0  0  0  0  0  0  0  0
  -10.8000  -17.3230   23.7650 N   0  0  0  0  0  0  0  0  0  0  0  0
   -9.0750  -16.2460   27.1780 O   0  0  0  0  0  0  0  0  0  0  0  0
   -4.1840  -14.5820   19.0840 O   0  5  0  0  0  0  0  0  0  0  0  0
   -4.0410   -9.6280   18.3960 O   0  0  0  0  0  0  0  0  0  0  0  0
   -4.7180  -12.6640   20.7090 O   0  0  0  0  0  0  0  0  0  0  0  0
   -3.8110  -12.1750   18.3380 O   0  0  0  0  0  0  0  0  0  0  0  0
   -1.8430  -10.7330   19.1960 O   0  5  0  0  0  0  0  0  0  0  0  0
   -2.2690  -13.1940   20.1270 O   0  0  0  0  0  0  0  0  0  0  0  0
   -2.4660  -10.7390   16.7060 O   0  0  0  0  0  0  0  0  0  0  0  0
   -6.1150  -16.4200   21.2480 S   0  0  0  0  0  0  0  0  0  0  0  0
   -3.6540  -13.1540   19.6040 P   0  0  0  0  0  0  0  0  0  0  0  0
   -2.9640  -10.8130   18.2330 P   0  0  0  0  0  0  0  0  0  0  0  0
  2 16  2  0  0  0  0
  2  3  4  0  0  0  0
  3  8  4  0  0  0  0
  3  4  1  0  0  0  0
  1  5  1  0  0  0  0
  5 14  4  0  0  0  0
  6  7  1  0  0  0  0
  7 13  4  0  0  0  0
  8 15  4  0  0  0  0
  9 14  4  0  0  0  0
  5 10  4  0  0  0  0
 10 24  4  0  0  0  0
 10 11  1  0  0  0  0
 11 12  1  0  0  0  0
  2 13  4  0  0  0  0
  4 14  1  0  0  0  0
  7 15  4  0  0  0  0
 18 26  1  0  0  0  0
 12 19  1  0  0  0  0
 20 25  1  0  0  0  0
  9 24  4  0  0  0  0
 17 25  1  0  0  0  0
 19 25  1  0  0  0  0
 22 25  2  0  0  0  0
 20 26  1  0  0  0  0
 21 26  1  0  0  0  0
 23 26  2  0  0  0  0
M  END
$$$$
