ligand
 OpenBabel11021811473D
libRbt.so/2013.1/901 2013/11/27
 26 27  0  0  0  0  0  0  0  0999 V2000
   -8.3540  -13.8394   23.4614 C   0  0  0  0  0  0  0  0  0  0  0  0
  -10.0292  -17.0377   26.6288 C   0  0  0  0  0  0  0  0  0  0  0  0
   -9.4582  -16.6191   25.4315 C   0  0  0  0  0  0  0  0  0  0  0  0
   -8.0242  -16.0956   25.3214 C   0  0  0  0  0  0  0  0  0  0  0  0
   -7.6829  -15.1599   23.0723 C   0  0  1  0  0  0  0  0  0  0  0  0
  -13.4709  -18.1406   25.4160 C   0  0  0  0  0  0  0  0  0  0  0  0
  -12.0446  -17.5888   25.4297 C   0  0  0  0  0  0  0  0  0  0  0  0
  -10.2286  -16.7050   24.2763 C   0  0  0  0  0  0  0  0  0  0  0  0
   -6.9175  -17.2627   23.4916 C   0  0  0  0  0  0  0  0  0  0  0  0
   -7.1686  -15.3802   21.8002 C   0  0  2  0  0  0  0  0  0  0  0  0
   -7.1198  -14.4743   20.5671 C   0  0  0  0  0  0  0  0  0  0  0  0
   -6.3951  -13.1517   20.8274 C   0  0  0  0  0  0  0  0  0  0  0  0
  -11.3360  -17.5298   26.6371 N   0  0  0  0  0  0  0  0  0  0  0  0
   -7.5390  -16.1693   23.9357 N   0  0  0  0  0  0  0  0  0  0  0  0
  -11.4630  -17.1724   24.2957 N   0  0  0  0  0  0  0  0  0  0  0  0
   -9.3878  -16.9798   27.6781 O   0  0  0  0  0  0  0  0  0  0  0  0
   -5.0932  -14.5132   18.0270 O   0  5  0  0  0  0  0  0  0  0  0  0
   -3.5255  -10.7723   19.9863 O   0  0  0  0  0  0  0  0  0  0  0  0
   -5.7892  -12.6359   19.6381 O   0  0  0  0  0  0  0  0  0  0  0  0
   -3.8626  -12.2840   17.9505 O   0  0  0  0  0  0  0  0  0  0  0  0
   -1.5383  -11.2421   18.3981 O   0  5  0  0  0  0  0  0  0  0  0  0
   -3.5385  -13.8344   19.9773 O   0  0  0  0  0  0  0  0  0  0  0  0
   -3.4973   -9.7750   17.6250 O   0  0  0  0  0  0  0  0  0  0  0  0
   -6.5553  -17.0103   21.8046 S   0  0  0  0  0  0  0  0  0  0  0  0
   -4.5083  -13.3471   18.9697 P   0  0  2  0  0  0  0  0  0  0  0  0
   -3.0013  -11.0378   18.4878 P   0  0  2  0  0  0  0  0  0  0  0  0
  2 16  2  0  0  0  0
  2  3  1  0  0  0  0
  2 13  1  0  0  0  0
  3  8  2  0  0  0  0
  3  4  1  0  0  0  0
  4 14  1  0  0  0  0
  5  1  1  1  0  0  0
  5 14  1  0  0  0  0
  5 10  1  0  0  0  0
  6  7  1  0  0  0  0
  7 13  1  0  0  0  0
  7 15  2  0  0  0  0
  8 15  1  0  0  0  0
  9 14  1  0  0  0  0
  9 24  1  0  0  0  0
 10 24  1  0  0  0  0
 10 11  1  6  0  0  0
 11 12  1  0  0  0  0
 12 19  1  0  0  0  0
 17 25  1  0  0  0  0
 19 25  1  0  0  0  0
 20 26  1  0  0  0  0
 21 26  1  0  0  0  0
 22 25  2  0  0  0  0
 23 26  2  0  0  0  0
 25 20  1  6  0  0  0
 26 18  1  1  0  0  0
M  CHG  2  17  -1  21  -1
M  END
>  <CHROM.1>
160.32820023,57.60358865,151.51927018,90.81272116,-70.11028117,-172.40335614
84.99895479,-25.07677075,-6.75954974,-14.58680973,21.82132553,-2.97018400
-0.88841679,-2.26101243

>  <Name>
ligand

>  <RI>
0

>  <Rbt.Current_Directory>
/home/itssahil/PROJECTS/Mol_Feturizer/New_Systems/rnas/3D2X

>  <Rbt.Executable>
rbdock ($Id: //depot/dev/client3/rdock/2013.1/src/exe/rbdock.cxx#4 $)

>  <Rbt.Library>
libRbt.so (2013.1, Build901 2013/11/27)

>  <Rbt.Parameter_File>
/export/apps/rDock/src/rDock_2013.1_src/data/scripts/dock_solv.prm

>  <Rbt.Receptor>
prm/pocket_docking_2.prm

>  <SCORE>
-18.5543

>  <SCORE.INTER>
-18.856

>  <SCORE.INTER.CONST>
1

>  <SCORE.INTER.POLAR>
0

>  <SCORE.INTER.ROT>
8

>  <SCORE.INTER.SOLV>
12.3756

>  <SCORE.INTER.VDW>
-25.6292

>  <SCORE.INTER.norm>
-0.725231

>  <SCORE.INTRA>
0.301698

>  <SCORE.INTRA.DIHEDRAL>
2.39479

>  <SCORE.INTRA.DIHEDRAL.0>
7.88077

>  <SCORE.INTRA.POLAR>
0

>  <SCORE.INTRA.POLAR.0>
0

>  <SCORE.INTRA.REPUL>
0

>  <SCORE.INTRA.REPUL.0>
0

>  <SCORE.INTRA.SOLV>
-1.68895

>  <SCORE.INTRA.SOLV.lig_0>
-63.2542

>  <SCORE.INTRA.VDW>
-0.0512211

>  <SCORE.INTRA.VDW.0>
-3.15072

>  <SCORE.INTRA.norm>
0.0116038

>  <SCORE.RESTR>
0

>  <SCORE.RESTR.CAVITY>
0

>  <SCORE.RESTR.norm>
0

>  <SCORE.SYSTEM>
0

>  <SCORE.SYSTEM.CONST>
0

>  <SCORE.SYSTEM.DIHEDRAL>
0

>  <SCORE.SYSTEM.SOLV>
0

>  <SCORE.SYSTEM.norm>
0

>  <SCORE.heavy>
26

>  <SCORE.norm>
-0.713628

>  <RMSD>
1.029

$$$$
ligand
 OpenBabel11021811473D
libRbt.so/2013.1/901 2013/11/27
 26 27  0  0  0  0  0  0  0  0999 V2000
   -8.1540  -13.8126   23.2166 C   0  0  0  0  0  0  0  0  0  0  0  0
   -9.8735  -16.5221   26.2970 C   0  0  0  0  0  0  0  0  0  0  0  0
   -9.2715  -16.6846   25.0536 C   0  0  0  0  0  0  0  0  0  0  0  0
   -7.8204  -16.2931   24.7641 C   0  0  0  0  0  0  0  0  0  0  0  0
   -7.7120  -15.1402   22.5940 C   0  0  1  0  0  0  0  0  0  0  0  0
  -13.3285  -17.9736   25.5979 C   0  0  0  0  0  0  0  0  0  0  0  0
  -11.8862  -17.5019   25.4069 C   0  0  0  0  0  0  0  0  0  0  0  0
  -10.0262  -17.2535   24.0328 C   0  0  0  0  0  0  0  0  0  0  0  0
   -7.1494  -17.3449   22.6717 C   0  0  0  0  0  0  0  0  0  0  0  0
   -7.4251  -15.2615   21.2396 C   0  0  2  0  0  0  0  0  0  0  0  0
   -7.4544  -14.2272   20.1114 C   0  0  0  0  0  0  0  0  0  0  0  0
   -6.2481  -13.2857   20.1344 C   0  0  0  0  0  0  0  0  0  0  0  0
  -11.1947  -16.9330   26.4847 N   0  0  0  0  0  0  0  0  0  0  0  0
   -7.5617  -16.2532   23.3176 N   0  0  0  0  0  0  0  0  0  0  0  0
  -11.2746  -17.6388   24.2216 N   0  0  0  0  0  0  0  0  0  0  0  0
   -9.2468  -16.0223   27.2314 O   0  0  0  0  0  0  0  0  0  0  0  0
   -3.0079  -13.8740   18.9875 O   0  5  0  0  0  0  0  0  0  0  0  0
   -5.0932  -10.0040   18.6465 O   0  0  0  0  0  0  0  0  0  0  0  0
   -5.0543  -13.9628   20.5395 O   0  0  0  0  0  0  0  0  0  0  0  0
   -3.8468  -11.7258   20.0696 O   0  0  0  0  0  0  0  0  0  0  0  0
   -2.7149  -10.7530   17.9575 O   0  5  0  0  0  0  0  0  0  0  0  0
   -2.7230  -13.5189   21.5320 O   0  0  0  0  0  0  0  0  0  0  0  0
   -4.6961  -12.3711   17.7465 O   0  0  0  0  0  0  0  0  0  0  0  0
   -7.0176  -16.9350   20.9819 S   0  0  0  0  0  0  0  0  0  0  0  0
   -3.6029  -13.2879   20.3633 P   0  0  2  0  0  0  0  0  0  0  0  0
   -3.9953  -11.1782   18.5657 P   0  0  2  0  0  0  0  0  0  0  0  0
  2 16  2  0  0  0  0
  2  3  1  0  0  0  0
  2 13  1  0  0  0  0
  3  8  2  0  0  0  0
  3  4  1  0  0  0  0
  4 14  1  0  0  0  0
  5  1  1  1  0  0  0
  5 14  1  0  0  0  0
  5 10  1  0  0  0  0
  6  7  1  0  0  0  0
  7 13  1  0  0  0  0
  7 15  2  0  0  0  0
  8 15  1  0  0  0  0
  9 14  1  0  0  0  0
  9 24  1  0  0  0  0
 10 24  1  0  0  0  0
 10 11  1  6  0  0  0
 11 12  1  0  0  0  0
 12 19  1  0  0  0  0
 17 25  1  0  0  0  0
 19 25  1  0  0  0  0
 20 26  1  0  0  0  0
 21 26  1  0  0  0  0
 22 25  2  0  0  0  0
 23 26  2  0  0  0  0
 25 20  1  6  0  0  0
 26 18  1  1  0  0  0
M  CHG  2  17  -1  21  -1
M  END
>  <CHROM.1>
-165.54844846,76.62662565,36.38166509,91.16766747,167.45100689,21.23190911
-96.69200915,143.77503652,-6.77875321,-14.58753347,21.82925417,-2.36289238
-0.45660875,-1.30697242

>  <Name>
ligand

>  <RI>
0

>  <Rbt.Current_Directory>
/home/itssahil/PROJECTS/Mol_Feturizer/New_Systems/rnas/3D2X

>  <Rbt.Executable>
rbdock ($Id: //depot/dev/client3/rdock/2013.1/src/exe/rbdock.cxx#4 $)

>  <Rbt.Library>
libRbt.so (2013.1, Build901 2013/11/27)

>  <Rbt.Parameter_File>
/export/apps/rDock/src/rDock_2013.1_src/data/scripts/dock_solv.prm

>  <Rbt.Receptor>
prm/pocket_docking_2.prm

>  <SCORE>
-16.0312

>  <SCORE.INTER>
-18.8074

>  <SCORE.INTER.CONST>
1

>  <SCORE.INTER.POLAR>
0

>  <SCORE.INTER.ROT>
8

>  <SCORE.INTER.SOLV>
8.73531

>  <SCORE.INTER.VDW>
-24.3834

>  <SCORE.INTER.norm>
-0.723363

>  <SCORE.INTRA>
2.77621

>  <SCORE.INTRA.DIHEDRAL>
4.06822

>  <SCORE.INTRA.DIHEDRAL.0>
7.88077

>  <SCORE.INTRA.POLAR>
0

>  <SCORE.INTRA.POLAR.0>
0

>  <SCORE.INTRA.REPUL>
0

>  <SCORE.INTRA.REPUL.0>
0

>  <SCORE.INTRA.SOLV>
1.17368

>  <SCORE.INTRA.SOLV.lig_0>
-63.2542

>  <SCORE.INTRA.VDW>
0.155263

>  <SCORE.INTRA.VDW.0>
-3.15072

>  <SCORE.INTRA.norm>
0.106777

>  <SCORE.RESTR>
0

>  <SCORE.RESTR.CAVITY>
0

>  <SCORE.RESTR.norm>
0

>  <SCORE.SYSTEM>
0

>  <SCORE.SYSTEM.CONST>
0

>  <SCORE.SYSTEM.DIHEDRAL>
0

>  <SCORE.SYSTEM.SOLV>
0

>  <SCORE.SYSTEM.norm>
0

>  <SCORE.heavy>
26

>  <SCORE.norm>
-0.616585

>  <RMSD>
1.113

$$$$
ligand
 OpenBabel11021811473D
libRbt.so/2013.1/901 2013/11/27
 26 27  0  0  0  0  0  0  0  0999 V2000
   -8.5233  -14.0328   23.3234 C   0  0  0  0  0  0  0  0  0  0  0  0
   -9.7664  -16.7261   26.4877 C   0  0  0  0  0  0  0  0  0  0  0  0
   -9.2361  -16.7681   25.2026 C   0  0  0  0  0  0  0  0  0  0  0  0
   -7.7816  -16.4166   24.8810 C   0  0  0  0  0  0  0  0  0  0  0  0
   -7.8953  -15.2833   22.7009 C   0  0  1  0  0  0  0  0  0  0  0  0
  -13.3266  -17.9120   25.8160 C   0  0  0  0  0  0  0  0  0  0  0  0
  -11.8716  -17.4923   25.6020 C   0  0  0  0  0  0  0  0  0  0  0  0
  -10.0704  -17.1731   24.1655 C   0  0  0  0  0  0  0  0  0  0  0  0
   -6.9995  -17.3747   22.7821 C   0  0  0  0  0  0  0  0  0  0  0  0
   -7.6207  -15.3731   21.3415 C   0  0  2  0  0  0  0  0  0  0  0  0
   -7.8312  -14.3672   20.2069 C   0  0  0  0  0  0  0  0  0  0  0  0
   -6.6518  -13.4071   20.0350 C   0  0  0  0  0  0  0  0  0  0  0  0
  -11.0976  -17.0910   26.6990 N   0  0  0  0  0  0  0  0  0  0  0  0
   -7.5613  -16.3525   23.4290 N   0  0  0  0  0  0  0  0  0  0  0  0
  -11.3274  -17.5165   24.3768 N   0  0  0  0  0  0  0  0  0  0  0  0
   -9.0680  -16.3729   27.4381 O   0  0  0  0  0  0  0  0  0  0  0  0
   -3.1034  -14.3755   18.6671 O   0  5  0  0  0  0  0  0  0  0  0  0
   -2.8083  -10.3828   18.9409 O   0  0  0  0  0  0  0  0  0  0  0  0
   -5.4539  -14.0987   19.6686 O   0  0  0  0  0  0  0  0  0  0  0  0
   -4.4105  -12.2376   18.2088 O   0  0  0  0  0  0  0  0  0  0  0  0
   -2.1652  -11.9231   16.9645 O   0  5  0  0  0  0  0  0  0  0  0  0
   -3.5088  -12.6812   20.5767 O   0  0  0  0  0  0  0  0  0  0  0  0
   -4.0509  -10.2010   16.7063 O   0  0  0  0  0  0  0  0  0  0  0  0
   -6.9664  -16.9669   21.0870 S   0  0  0  0  0  0  0  0  0  0  0  0
   -4.0848  -13.3073   19.3644 P   0  0  2  0  0  0  0  0  0  0  0  0
   -3.2773  -11.2382   17.6607 P   0  0  2  0  0  0  0  0  0  0  0  0
  2 16  2  0  0  0  0
  2  3  1  0  0  0  0
  2 13  1  0  0  0  0
  3  8  2  0  0  0  0
  3  4  1  0  0  0  0
  4 14  1  0  0  0  0
  5  1  1  1  0  0  0
  5 14  1  0  0  0  0
  5 10  1  0  0  0  0
  6  7  1  0  0  0  0
  7 13  1  0  0  0  0
  7 15  2  0  0  0  0
  8 15  1  0  0  0  0
  9 14  1  0  0  0  0
  9 24  1  0  0  0  0
 10 24  1  0  0  0  0
 10 11  1  6  0  0  0
 11 12  1  0  0  0  0
 12 19  1  0  0  0  0
 17 25  1  0  0  0  0
 19 25  1  0  0  0  0
 20 26  1  0  0  0  0
 21 26  1  0  0  0  0
 22 25  2  0  0  0  0
 23 26  2  0  0  0  0
 25 20  1  6  0  0  0
 26 18  1  1  0  0  0
M  CHG  2  17  -1  21  -1
M  END
>  <CHROM.1>
-171.37162063,87.22780976,63.07943340,80.34582757,177.27982038,-69.07992569
-167.00606749,-59.95529477,-6.72810393,-14.63416671,21.54566603,-3.03192066
-0.90763374,-2.38324545

>  <Name>
ligand

>  <RI>
0

>  <Rbt.Current_Directory>
/home/itssahil/PROJECTS/Mol_Feturizer/New_Systems/rnas/3D2X

>  <Rbt.Executable>
rbdock ($Id: //depot/dev/client3/rdock/2013.1/src/exe/rbdock.cxx#4 $)

>  <Rbt.Library>
libRbt.so (2013.1, Build901 2013/11/27)

>  <Rbt.Parameter_File>
/export/apps/rDock/src/rDock_2013.1_src/data/scripts/dock_solv.prm

>  <Rbt.Receptor>
prm/pocket_docking_3.prm

>  <SCORE>
-22.3627

>  <SCORE.INTER>
-19.4972

>  <SCORE.INTER.CONST>
1

>  <SCORE.INTER.POLAR>
0

>  <SCORE.INTER.ROT>
8

>  <SCORE.INTER.SOLV>
13.4459

>  <SCORE.INTER.VDW>
-26.4134

>  <SCORE.INTER.norm>
-0.749892

>  <SCORE.INTRA>
-2.86556

>  <SCORE.INTRA.DIHEDRAL>
-2.68589

>  <SCORE.INTRA.DIHEDRAL.0>
7.88077

>  <SCORE.INTRA.POLAR>
0

>  <SCORE.INTRA.POLAR.0>
0

>  <SCORE.INTRA.REPUL>
0

>  <SCORE.INTRA.REPUL.0>
0

>  <SCORE.INTRA.SOLV>
-1.73638

>  <SCORE.INTRA.SOLV.lig_0>
-63.2542

>  <SCORE.INTRA.VDW>
-0.654428

>  <SCORE.INTRA.VDW.0>
-3.15072

>  <SCORE.INTRA.norm>
-0.110214

>  <SCORE.RESTR>
0

>  <SCORE.RESTR.CAVITY>
0

>  <SCORE.RESTR.norm>
0

>  <SCORE.SYSTEM>
0

>  <SCORE.SYSTEM.CONST>
0

>  <SCORE.SYSTEM.DIHEDRAL>
0

>  <SCORE.SYSTEM.SOLV>
0

>  <SCORE.SYSTEM.norm>
0

>  <SCORE.heavy>
26

>  <SCORE.norm>
-0.860105

>  <RMSD>
1.118

$$$$
ligand
 OpenBabel11021811473D
libRbt.so/2013.1/901 2013/11/27
 26 27  0  0  0  0  0  0  0  0999 V2000
   -8.3517  -13.9875   23.5363 C   0  0  0  0  0  0  0  0  0  0  0  0
   -9.8923  -16.8064   26.4136 C   0  0  0  0  0  0  0  0  0  0  0  0
   -9.2556  -16.8478   25.1777 C   0  0  0  0  0  0  0  0  0  0  0  0
   -7.7813  -16.4881   24.9787 C   0  0  0  0  0  0  0  0  0  0  0  0
   -7.7164  -15.2144   22.8754 C   0  0  1  0  0  0  0  0  0  0  0  0
  -13.3764  -18.0153   25.4479 C   0  0  0  0  0  0  0  0  0  0  0  0
  -11.9110  -17.5872   25.3560 C   0  0  0  0  0  0  0  0  0  0  0  0
   -9.9973  -17.2600   24.0752 C   0  0  0  0  0  0  0  0  0  0  0  0
   -6.8842  -17.3335   22.8774 C   0  0  0  0  0  0  0  0  0  0  0  0
   -7.3526  -15.2254   21.5342 C   0  0  2  0  0  0  0  0  0  0  0  0
   -7.4587  -14.1428   20.4570 C   0  0  0  0  0  0  0  0  0  0  0  0
   -6.7820  -12.8310   20.8616 C   0  0  0  0  0  0  0  0  0  0  0  0
  -11.2344  -17.1789   26.5131 N   0  0  0  0  0  0  0  0  0  0  0  0
   -7.4612  -16.3379   23.5518 N   0  0  0  0  0  0  0  0  0  0  0  0
  -11.2656  -17.6105   24.1810 N   0  0  0  0  0  0  0  0  0  0  0  0
   -9.2784  -16.4470   27.4185 O   0  0  0  0  0  0  0  0  0  0  0  0
   -4.9638  -13.9392   18.8291 O   0  5  0  0  0  0  0  0  0  0  0  0
   -3.2490  -12.3814   17.1504 O   0  0  0  0  0  0  0  0  0  0  0  0
   -5.4029  -13.0250   21.1905 O   0  0  0  0  0  0  0  0  0  0  0  0
   -4.0238  -11.6627   19.4800 O   0  0  0  0  0  0  0  0  0  0  0  0
   -2.8131   -9.9614   17.9541 O   0  5  0  0  0  0  0  0  0  0  0  0
   -3.0331  -13.7863   20.5410 O   0  0  0  0  0  0  0  0  0  0  0  0
   -1.5278  -11.9247   18.9943 O   0  0  0  0  0  0  0  0  0  0  0  0
   -6.7251  -16.8191   21.2188 S   0  0  0  0  0  0  0  0  0  0  0  0
   -4.2743  -13.1461   20.0481 P   0  0  2  0  0  0  0  0  0  0  0  0
   -2.9029  -11.3810   18.3629 P   0  0  2  0  0  0  0  0  0  0  0  0
  2 16  2  0  0  0  0
  2  3  1  0  0  0  0
  2 13  1  0  0  0  0
  3  8  2  0  0  0  0
  3  4  1  0  0  0  0
  4 14  1  0  0  0  0
  5  1  1  1  0  0  0
  5 14  1  0  0  0  0
  5 10  1  0  0  0  0
  6  7  1  0  0  0  0
  7 13  1  0  0  0  0
  7 15  2  0  0  0  0
  8 15  1  0  0  0  0
  9 14  1  0  0  0  0
  9 24  1  0  0  0  0
 10 24  1  0  0  0  0
 10 11  1  6  0  0  0
 11 12  1  0  0  0  0
 12 19  1  0  0  0  0
 17 25  1  0  0  0  0
 19 25  1  0  0  0  0
 20 26  1  0  0  0  0
 21 26  1  0  0  0  0
 22 25  2  0  0  0  0
 23 26  2  0  0  0  0
 25 20  1  6  0  0  0
 26 18  1  6  0  0  0
M  CHG  2  17  -1  21  -1
M  END
>  <CHROM.1>
-167.60134379,54.76559447,56.77105105,81.72809150,80.12784013,-70.82914405
-35.99658156,54.71655715,-6.65934796,-14.63981578,21.85067649,-2.75153469
-0.78863031,-1.94859598

>  <Name>
ligand

>  <RI>
0

>  <Rbt.Current_Directory>
/home/itssahil/PROJECTS/Mol_Feturizer/New_Systems/rnas/3D2X

>  <Rbt.Executable>
rbdock ($Id: //depot/dev/client3/rdock/2013.1/src/exe/rbdock.cxx#4 $)

>  <Rbt.Library>
libRbt.so (2013.1, Build901 2013/11/27)

>  <Rbt.Parameter_File>
/export/apps/rDock/src/rDock_2013.1_src/data/scripts/dock_solv.prm

>  <Rbt.Receptor>
prm/pocket_docking_2.prm

>  <SCORE>
-19.7281

>  <SCORE.INTER>
-19.0112

>  <SCORE.INTER.CONST>
1

>  <SCORE.INTER.POLAR>
0

>  <SCORE.INTER.ROT>
8

>  <SCORE.INTER.SOLV>
10.9993

>  <SCORE.INTER.VDW>
-25.2739

>  <SCORE.INTER.norm>
-0.7312

>  <SCORE.INTRA>
-0.716924

>  <SCORE.INTRA.DIHEDRAL>
-0.77891

>  <SCORE.INTRA.DIHEDRAL.0>
7.88077

>  <SCORE.INTRA.POLAR>
0

>  <SCORE.INTRA.POLAR.0>
0

>  <SCORE.INTRA.REPUL>
0

>  <SCORE.INTRA.REPUL.0>
0

>  <SCORE.INTRA.SOLV>
-0.0488927

>  <SCORE.INTRA.SOLV.lig_0>
-63.2542

>  <SCORE.INTRA.VDW>
-0.303023

>  <SCORE.INTRA.VDW.0>
-3.15072

>  <SCORE.INTRA.norm>
-0.027574

>  <SCORE.RESTR>
0

>  <SCORE.RESTR.CAVITY>
0

>  <SCORE.RESTR.norm>
0

>  <SCORE.SYSTEM>
0

>  <SCORE.SYSTEM.CONST>
0

>  <SCORE.SYSTEM.DIHEDRAL>
0

>  <SCORE.SYSTEM.SOLV>
0

>  <SCORE.SYSTEM.norm>
0

>  <SCORE.heavy>
26

>  <SCORE.norm>
-0.758774

>  <RMSD>
1.123

$$$$
ligand
 OpenBabel11021811473D
libRbt.so/2013.1/901 2013/11/27
 26 27  0  0  0  0  0  0  0  0999 V2000
   -8.3143  -13.9112   23.3261 C   0  0  0  0  0  0  0  0  0  0  0  0
   -9.6830  -16.8123   26.5041 C   0  0  0  0  0  0  0  0  0  0  0  0
   -9.2106  -16.7286   25.1985 C   0  0  0  0  0  0  0  0  0  0  0  0
   -7.7647  -16.3685   24.8487 C   0  0  0  0  0  0  0  0  0  0  0  0
   -7.8196  -15.2088   22.6802 C   0  0  1  0  0  0  0  0  0  0  0  0
  -13.2928  -17.8654   25.8772 C   0  0  0  0  0  0  0  0  0  0  0  0
  -11.8402  -17.4488   25.6413 C   0  0  0  0  0  0  0  0  0  0  0  0
  -10.0978  -17.0102   24.1645 C   0  0  0  0  0  0  0  0  0  0  0  0
   -7.1215  -17.3753   22.7256 C   0  0  0  0  0  0  0  0  0  0  0  0
   -7.5843  -15.3108   21.3144 C   0  0  2  0  0  0  0  0  0  0  0  0
   -7.7247  -14.2789   20.1923 C   0  0  0  0  0  0  0  0  0  0  0  0
   -6.3946  -13.9604   19.5056 C   0  0  0  0  0  0  0  0  0  0  0  0
  -11.0108  -17.1761   26.7373 N   0  0  0  0  0  0  0  0  0  0  0  0
   -7.5712  -16.3113   23.3926 N   0  0  0  0  0  0  0  0  0  0  0  0
  -11.3510  -17.3538   24.3966 N   0  0  0  0  0  0  0  0  0  0  0  0
   -8.9363  -16.5711   27.4529 O   0  0  0  0  0  0  0  0  0  0  0  0
   -3.3853  -13.9285   18.9269 O   0  5  0  0  0  0  0  0  0  0  0  0
   -2.6270  -11.8974   17.1860 O   0  0  0  0  0  0  0  0  0  0  0  0
   -5.4172  -13.4855   20.4367 O   0  0  0  0  0  0  0  0  0  0  0  0
   -4.3823  -11.5862   19.0206 O   0  0  0  0  0  0  0  0  0  0  0  0
   -3.7254   -9.5800   17.5265 O   0  5  0  0  0  0  0  0  0  0  0  0
   -3.1247  -12.5042   21.0681 O   0  0  0  0  0  0  0  0  0  0  0  0
   -2.0798  -10.5034   19.2665 O   0  0  0  0  0  0  0  0  0  0  0  0
   -7.0875  -16.9562   21.0332 S   0  0  0  0  0  0  0  0  0  0  0  0
   -4.0210  -12.8535   19.9421 P   0  0  2  0  0  0  0  0  0  0  0  0
   -3.2421  -10.8072   18.1980 P   0  0  2  0  0  0  0  0  0  0  0  0
  2 16  2  0  0  0  0
  2  3  1  0  0  0  0
  2 13  1  0  0  0  0
  3  8  2  0  0  0  0
  3  4  1  0  0  0  0
  4 14  1  0  0  0  0
  5  1  1  1  0  0  0
  5 14  1  0  0  0  0
  5 10  1  0  0  0  0
  6  7  1  0  0  0  0
  7 13  1  0  0  0  0
  7 15  2  0  0  0  0
  8 15  1  0  0  0  0
  9 14  1  0  0  0  0
  9 24  1  0  0  0  0
 10 24  1  0  0  0  0
 10 11  1  6  0  0  0
 11 12  1  0  0  0  0
 12 19  1  0  0  0  0
 17 25  1  0  0  0  0
 19 25  1  0  0  0  0
 20 26  1  0  0  0  0
 21 26  1  0  0  0  0
 22 25  2  0  0  0  0
 23 26  2  0  0  0  0
 25 20  1  6  0  0  0
 26 18  1  6  0  0  0
M  CHG  2  17  -1  21  -1
M  END
>  <CHROM.1>
-178.01023598,117.16568058,-57.45503666,86.17976228,-169.77385942,-60.32936457
-51.93262200,61.36870314,-6.67002808,-14.47924573,21.74735262,-2.69002673
-0.80499936,-1.86035579

>  <Name>
ligand

>  <RI>
0

>  <Rbt.Current_Directory>
/home/itssahil/PROJECTS/Mol_Feturizer/New_Systems/rnas/3D2X

>  <Rbt.Executable>
rbdock ($Id: //depot/dev/client3/rdock/2013.1/src/exe/rbdock.cxx#4 $)

>  <Rbt.Library>
libRbt.so (2013.1, Build901 2013/11/27)

>  <Rbt.Parameter_File>
/export/apps/rDock/src/rDock_2013.1_src/data/scripts/dock_solv.prm

>  <Rbt.Receptor>
prm/pocket_docking_2.prm

>  <SCORE>
-21.7033

>  <SCORE.INTER>
-19.7754

>  <SCORE.INTER.CONST>
1

>  <SCORE.INTER.POLAR>
0

>  <SCORE.INTER.ROT>
8

>  <SCORE.INTER.SOLV>
11.6664

>  <SCORE.INTER.VDW>
-26.0057

>  <SCORE.INTER.norm>
-0.760593

>  <SCORE.INTRA>
-1.92789

>  <SCORE.INTRA.DIHEDRAL>
-2.01566

>  <SCORE.INTRA.DIHEDRAL.0>
7.88077

>  <SCORE.INTRA.POLAR>
0

>  <SCORE.INTRA.POLAR.0>
0

>  <SCORE.INTRA.REPUL>
0

>  <SCORE.INTRA.REPUL.0>
0

>  <SCORE.INTRA.SOLV>
-0.919079

>  <SCORE.INTRA.SOLV.lig_0>
-63.2542

>  <SCORE.INTRA.VDW>
-0.460527

>  <SCORE.INTRA.VDW.0>
-3.15072

>  <SCORE.INTRA.norm>
-0.0741498

>  <SCORE.RESTR>
0

>  <SCORE.RESTR.CAVITY>
0

>  <SCORE.RESTR.norm>
0

>  <SCORE.SYSTEM>
0

>  <SCORE.SYSTEM.CONST>
0

>  <SCORE.SYSTEM.DIHEDRAL>
0

>  <SCORE.SYSTEM.SOLV>
0

>  <SCORE.SYSTEM.norm>
0

>  <SCORE.heavy>
26

>  <SCORE.norm>
-0.834743

>  <RMSD>
1.132

$$$$
ligand
 OpenBabel11021811473D
libRbt.so/2013.1/901 2013/11/27
 26 27  0  0  0  0  0  0  0  0999 V2000
   -8.4154  -13.9870   23.3415 C   0  0  0  0  0  0  0  0  0  0  0  0
   -9.7460  -16.7244   26.4992 C   0  0  0  0  0  0  0  0  0  0  0  0
   -9.2221  -16.7481   25.2109 C   0  0  0  0  0  0  0  0  0  0  0  0
   -7.7659  -16.4043   24.8887 C   0  0  0  0  0  0  0  0  0  0  0  0
   -7.8381  -15.2589   22.7132 C   0  0  1  0  0  0  0  0  0  0  0  0
  -13.3203  -17.8648   25.8233 C   0  0  0  0  0  0  0  0  0  0  0  0
  -11.8624  -17.4549   25.6099 C   0  0  0  0  0  0  0  0  0  0  0  0
  -10.0650  -17.1265   24.1708 C   0  0  0  0  0  0  0  0  0  0  0  0
   -7.0253  -17.3843   22.7849 C   0  0  0  0  0  0  0  0  0  0  0  0
   -7.5693  -15.3542   21.3530 C   0  0  2  0  0  0  0  0  0  0  0  0
   -7.7417  -14.3364   20.2226 C   0  0  0  0  0  0  0  0  0  0  0  0
   -6.6668  -13.2470   20.2323 C   0  0  0  0  0  0  0  0  0  0  0  0
  -11.0796  -17.0807   26.7102 N   0  0  0  0  0  0  0  0  0  0  0  0
   -7.5454  -16.3432   23.4366 N   0  0  0  0  0  0  0  0  0  0  0  0
  -11.3242  -17.4618   24.3819 N   0  0  0  0  0  0  0  0  0  0  0  0
   -9.0399  -16.3951   27.4524 O   0  0  0  0  0  0  0  0  0  0  0  0
   -2.9325  -13.7329   19.1609 O   0  5  0  0  0  0  0  0  0  0  0  0
   -2.4122  -10.2346   19.3153 O   0  0  0  0  0  0  0  0  0  0  0  0
   -5.3628  -13.7863   19.9947 O   0  0  0  0  0  0  0  0  0  0  0  0
   -4.4299  -11.7094   18.7702 O   0  0  0  0  0  0  0  0  0  0  0  0
   -2.4739  -11.5459   17.0862 O   0  5  0  0  0  0  0  0  0  0  0  0
   -3.6513  -12.2593   21.1593 O   0  0  0  0  0  0  0  0  0  0  0  0
   -4.0425   -9.5489   17.4599 O   0  0  0  0  0  0  0  0  0  0  0  0
   -6.9787  -16.9715   21.0913 S   0  0  0  0  0  0  0  0  0  0  0  0
   -4.0704  -12.8351   19.8607 P   0  0  2  0  0  0  0  0  0  0  0  0
   -3.2796  -10.8160   18.0904 P   0  0  2  0  0  0  0  0  0  0  0  0
  2 16  2  0  0  0  0
  2  3  1  0  0  0  0
  2 13  1  0  0  0  0
  3  8  2  0  0  0  0
  3  4  1  0  0  0  0
  4 14  1  0  0  0  0
  5  1  1  1  0  0  0
  5 14  1  0  0  0  0
  5 10  1  0  0  0  0
  6  7  1  0  0  0  0
  7 13  1  0  0  0  0
  7 15  2  0  0  0  0
  8 15  1  0  0  0  0
  9 14  1  0  0  0  0
  9 24  1  0  0  0  0
 10 24  1  0  0  0  0
 10 11  1  6  0  0  0
 11 12  1  0  0  0  0
 12 19  1  0  0  0  0
 17 25  1  0  0  0  0
 19 25  1  0  0  0  0
 20 26  1  0  0  0  0
 21 26  1  0  0  0  0
 22 25  2  0  0  0  0
 23 26  2  0  0  0  0
 25 20  1  6  0  0  0
 26 18  1  1  0  0  0
M  CHG  2  17  -1  21  -1
M  END
>  <CHROM.1>
-172.54551574,75.48213802,63.99955414,82.34205612,175.99254757,-51.95670645
-162.82857083,-50.96683071,-6.70753315,-14.43553346,21.74792639,-2.96863299
-0.89481650,-2.22882452

>  <Name>
ligand

>  <RI>
0

>  <Rbt.Current_Directory>
/home/itssahil/PROJECTS/Mol_Feturizer/New_Systems/rnas/3D2X

>  <Rbt.Executable>
rbdock ($Id: //depot/dev/client3/rdock/2013.1/src/exe/rbdock.cxx#4 $)

>  <Rbt.Library>
libRbt.so (2013.1, Build901 2013/11/27)

>  <Rbt.Parameter_File>
/export/apps/rDock/src/rDock_2013.1_src/data/scripts/dock_solv.prm

>  <Rbt.Receptor>
prm/pocket_docking_2.prm

>  <SCORE>
-22.0592

>  <SCORE.INTER>
-19.4777

>  <SCORE.INTER.CONST>
1

>  <SCORE.INTER.POLAR>
0

>  <SCORE.INTER.ROT>
8

>  <SCORE.INTER.SOLV>
13.0211

>  <SCORE.INTER.VDW>
-26.2588

>  <SCORE.INTER.norm>
-0.749142

>  <SCORE.INTRA>
-2.58151

>  <SCORE.INTRA.DIHEDRAL>
-2.2268

>  <SCORE.INTRA.DIHEDRAL.0>
7.88077

>  <SCORE.INTRA.POLAR>
0

>  <SCORE.INTRA.POLAR.0>
0

>  <SCORE.INTRA.REPUL>
0

>  <SCORE.INTRA.REPUL.0>
0

>  <SCORE.INTRA.SOLV>
-1.88913

>  <SCORE.INTRA.SOLV.lig_0>
-63.2542

>  <SCORE.INTRA.VDW>
-0.52355

>  <SCORE.INTRA.VDW.0>
-3.15072

>  <SCORE.INTRA.norm>
-0.099289

>  <SCORE.RESTR>
0

>  <SCORE.RESTR.CAVITY>
0

>  <SCORE.RESTR.norm>
0

>  <SCORE.SYSTEM>
0

>  <SCORE.SYSTEM.CONST>
0

>  <SCORE.SYSTEM.DIHEDRAL>
0

>  <SCORE.SYSTEM.SOLV>
0

>  <SCORE.SYSTEM.norm>
0

>  <SCORE.heavy>
26

>  <SCORE.norm>
-0.848431

>  <RMSD>
1.145

$$$$
ligand
 OpenBabel11021811473D
libRbt.so/2013.1/901 2013/11/27
 26 27  0  0  0  0  0  0  0  0999 V2000
   -8.4234  -13.9373   23.4405 C   0  0  0  0  0  0  0  0  0  0  0  0
   -9.8297  -16.4954   26.5517 C   0  0  0  0  0  0  0  0  0  0  0  0
   -9.2158  -16.6900   25.3188 C   0  0  0  0  0  0  0  0  0  0  0  0
   -7.7581  -16.3179   25.0370 C   0  0  0  0  0  0  0  0  0  0  0  0
   -7.7936  -15.2004   22.8461 C   0  0  1  0  0  0  0  0  0  0  0  0
  -13.2903  -17.9301   25.8457 C   0  0  0  0  0  0  0  0  0  0  0  0
  -11.8417  -17.4757   25.6606 C   0  0  0  0  0  0  0  0  0  0  0  0
   -9.9648  -17.2738   24.3021 C   0  0  0  0  0  0  0  0  0  0  0  0
   -6.9274  -17.3023   22.9692 C   0  0  0  0  0  0  0  0  0  0  0  0
   -7.4805  -15.3044   21.4961 C   0  0  2  0  0  0  0  0  0  0  0  0
   -7.6449  -14.3049   20.3483 C   0  0  0  0  0  0  0  0  0  0  0  0
   -6.4560  -14.3033   19.3844 C   0  0  0  0  0  0  0  0  0  0  0  0
  -11.1567  -16.8901   26.7336 N   0  0  0  0  0  0  0  0  0  0  0  0
   -7.4947  -16.2680   23.5916 N   0  0  0  0  0  0  0  0  0  0  0  0
  -11.2186  -17.6436   24.4854 N   0  0  0  0  0  0  0  0  0  0  0  0
   -9.2086  -15.9813   27.4821 O   0  0  0  0  0  0  0  0  0  0  0  0
   -3.9589  -14.4603   17.8570 O   0  5  0  0  0  0  0  0  0  0  0  0
   -1.9444  -12.0401   17.3824 O   0  0  0  0  0  0  0  0  0  0  0  0
   -5.2151  -14.1206   20.0731 O   0  0  0  0  0  0  0  0  0  0  0  0
   -3.9647  -12.1579   18.9471 O   0  0  0  0  0  0  0  0  0  0  0  0
   -4.3339  -12.0099   16.3916 O   0  5  0  0  0  0  0  0  0  0  0  0
   -2.6433  -14.0708   20.0477 O   0  0  0  0  0  0  0  0  0  0  0  0
   -3.4468   -9.9875   17.6999 O   0  0  0  0  0  0  0  0  0  0  0  0
   -6.8395  -16.9083   21.2728 S   0  0  0  0  0  0  0  0  0  0  0  0
   -3.8662  -13.7267   19.2866 P   0  0  2  0  0  0  0  0  0  0  0  0
   -3.4819  -11.5854   17.5249 P   0  0  2  0  0  0  0  0  0  0  0  0
  2 16  2  0  0  0  0
  2  3  1  0  0  0  0
  2 13  1  0  0  0  0
  3  8  2  0  0  0  0
  3  4  1  0  0  0  0
  4 14  1  0  0  0  0
  5  1  1  1  0  0  0
  5 14  1  0  0  0  0
  5 10  1  0  0  0  0
  6  7  1  0  0  0  0
  7 13  1  0  0  0  0
  7 15  2  0  0  0  0
  8 15  1  0  0  0  0
  9 14  1  0  0  0  0
  9 24  1  0  0  0  0
 10 24  1  0  0  0  0
 10 11  1  6  0  0  0
 11 12  1  0  0  0  0
 12 19  1  0  0  0  0
 17 25  1  0  0  0  0
 19 25  1  0  0  0  0
 20 26  1  0  0  0  0
 21 26  1  0  0  0  0
 22 25  2  0  0  0  0
 23 26  2  0  0  0  0
 25 20  1  6  0  0  0
 26 18  1  6  0  0  0
M  CHG  2  17  -1  21  -1
M  END
>  <CHROM.1>
-163.67079068,139.80852392,-52.98344664,82.05381344,-164.97434432,-27.18789404
-34.12032446,-56.83775884,-6.68907379,-14.78717061,21.52327953,-3.05780731
-0.90941988,-2.48587827

>  <Name>
ligand

>  <RI>
0

>  <Rbt.Current_Directory>
/home/itssahil/PROJECTS/Mol_Feturizer/New_Systems/rnas/3D2X

>  <Rbt.Executable>
rbdock ($Id: //depot/dev/client3/rdock/2013.1/src/exe/rbdock.cxx#4 $)

>  <Rbt.Library>
libRbt.so (2013.1, Build901 2013/11/27)

>  <Rbt.Parameter_File>
/export/apps/rDock/src/rDock_2013.1_src/data/scripts/dock_solv.prm

>  <Rbt.Receptor>
prm/pocket_docking_4.prm

>  <SCORE>
-20.5166

>  <SCORE.INTER>
-20.1877

>  <SCORE.INTER.CONST>
1

>  <SCORE.INTER.POLAR>
0

>  <SCORE.INTER.ROT>
8

>  <SCORE.INTER.SOLV>
11.0044

>  <SCORE.INTER.VDW>
-26.0599

>  <SCORE.INTER.norm>
-0.776449

>  <SCORE.INTRA>
-0.328969

>  <SCORE.INTRA.DIHEDRAL>
0.713316

>  <SCORE.INTRA.DIHEDRAL.0>
7.88077

>  <SCORE.INTRA.POLAR>
0

>  <SCORE.INTRA.POLAR.0>
0

>  <SCORE.INTRA.REPUL>
0

>  <SCORE.INTRA.REPUL.0>
0

>  <SCORE.INTRA.SOLV>
-1.22665

>  <SCORE.INTRA.SOLV.lig_0>
-63.2542

>  <SCORE.INTRA.VDW>
-0.0723008

>  <SCORE.INTRA.VDW.0>
-3.15072

>  <SCORE.INTRA.norm>
-0.0126527

>  <SCORE.RESTR>
0

>  <SCORE.RESTR.CAVITY>
0

>  <SCORE.RESTR.norm>
0

>  <SCORE.SYSTEM>
0

>  <SCORE.SYSTEM.CONST>
0

>  <SCORE.SYSTEM.DIHEDRAL>
0

>  <SCORE.SYSTEM.SOLV>
0

>  <SCORE.SYSTEM.norm>
0

>  <SCORE.heavy>
26

>  <SCORE.norm>
-0.789102

>  <RMSD>
1.232

$$$$
ligand
 OpenBabel11021811473D
libRbt.so/2013.1/901 2013/11/27
 26 27  0  0  0  0  0  0  0  0999 V2000
   -6.9083  -13.8675   23.2011 C   0  0  0  0  0  0  0  0  0  0  0  0
  -10.1834  -16.9565   26.2472 C   0  0  0  0  0  0  0  0  0  0  0  0
   -9.7725  -16.5111   24.9952 C   0  0  0  0  0  0  0  0  0  0  0  0
   -8.3980  -15.8910   24.7326 C   0  0  0  0  0  0  0  0  0  0  0  0
   -7.2846  -15.2411   22.6378 C   0  0  1  0  0  0  0  0  0  0  0  0
  -13.6487  -18.3059   25.4083 C   0  0  0  0  0  0  0  0  0  0  0  0
  -12.2707  -17.6569   25.2696 C   0  0  0  0  0  0  0  0  0  0  0  0
  -10.6526  -16.6610   23.9283 C   0  0  0  0  0  0  0  0  0  0  0  0
   -8.2085  -17.3178   22.7671 C   0  0  0  0  0  0  0  0  0  0  0  0
   -6.9341  -15.6329   21.3513 C   0  0  2  0  0  0  0  0  0  0  0  0
   -6.1556  -14.8992   20.2562 C   0  0  0  0  0  0  0  0  0  0  0  0
   -6.5071  -13.4122   20.1692 C   0  0  0  0  0  0  0  0  0  0  0  0
  -11.4445  -17.5375   26.3950 N   0  0  0  0  0  0  0  0  0  0  0  0
   -7.9569  -16.1467   23.3538 N   0  0  0  0  0  0  0  0  0  0  0  0
  -11.8424  -17.2123   24.0794 N   0  0  0  0  0  0  0  0  0  0  0  0
   -9.4404  -16.8445   27.2225 O   0  0  0  0  0  0  0  0  0  0  0  0
   -3.3909  -14.0348   20.1305 O   0  5  0  0  0  0  0  0  0  0  0  0
   -4.7713   -9.8110   19.4178 O   0  0  0  0  0  0  0  0  0  0  0  0
   -5.4756  -12.6602   19.5227 O   0  0  0  0  0  0  0  0  0  0  0  0
   -3.1036  -11.7240   19.0975 O   0  0  0  0  0  0  0  0  0  0  0  0
   -2.6004   -9.4041   18.0711 O   0  5  0  0  0  0  0  0  0  0  0  0
   -4.0010  -11.9287   21.4995 O   0  0  0  0  0  0  0  0  0  0  0  0
   -4.4672  -10.8787   17.1073 O   0  0  0  0  0  0  0  0  0  0  0  0
   -7.6033  -17.2261   21.1343 S   0  0  0  0  0  0  0  0  0  0  0  0
   -3.9980  -12.5443   20.1525 P   0  0  2  0  0  0  0  0  0  0  0  0
   -3.6584  -10.3834   18.4057 P   0  0  2  0  0  0  0  0  0  0  0  0
  2 16  2  0  0  0  0
  2  3  1  0  0  0  0
  2 13  1  0  0  0  0
  3  8  2  0  0  0  0
  3  4  1  0  0  0  0
  4 14  1  0  0  0  0
  5  1  1  1  0  0  0
  5 14  1  0  0  0  0
  5 10  1  0  0  0  0
  6  7  1  0  0  0  0
  7 13  1  0  0  0  0
  7 15  2  0  0  0  0
  8 15  1  0  0  0  0
  9 14  1  0  0  0  0
  9 24  1  0  0  0  0
 10 24  1  0  0  0  0
 10 11  1  6  0  0  0
 11 12  1  0  0  0  0
 12 19  1  0  0  0  0
 17 25  1  0  0  0  0
 19 25  1  0  0  0  0
 20 26  1  0  0  0  0
 21 26  1  0  0  0  0
 22 25  2  0  0  0  0
 23 26  2  0  0  0  0
 25 20  1  6  0  0  0
 26 18  1  1  0  0  0
M  CHG  2  17  -1  21  -1
M  END
>  <CHROM.1>
150.63800705,-39.80068595,158.75527672,142.57789477,-63.22209070,157.54301795
64.59416521,24.42376253,-6.90872449,-14.34520484,21.77736140,-2.97358536
-0.88428369,-2.14353300

>  <Name>
ligand

>  <RI>
0

>  <Rbt.Current_Directory>
/home/itssahil/PROJECTS/Mol_Feturizer/New_Systems/rnas/3D2X

>  <Rbt.Executable>
rbdock ($Id: //depot/dev/client3/rdock/2013.1/src/exe/rbdock.cxx#4 $)

>  <Rbt.Library>
libRbt.so (2013.1, Build901 2013/11/27)

>  <Rbt.Parameter_File>
/export/apps/rDock/src/rDock_2013.1_src/data/scripts/dock_solv.prm

>  <Rbt.Receptor>
prm/pocket_docking_2.prm

>  <SCORE>
-13.4397

>  <SCORE.INTER>
-15.1169

>  <SCORE.INTER.CONST>
1

>  <SCORE.INTER.POLAR>
0

>  <SCORE.INTER.ROT>
8

>  <SCORE.INTER.SOLV>
11.5367

>  <SCORE.INTER.VDW>
-22.8568

>  <SCORE.INTER.norm>
-0.581418

>  <SCORE.INTRA>
1.63788

>  <SCORE.INTRA.DIHEDRAL>
0.322494

>  <SCORE.INTRA.DIHEDRAL.0>
7.88077

>  <SCORE.INTRA.POLAR>
0

>  <SCORE.INTRA.POLAR.0>
0

>  <SCORE.INTRA.REPUL>
0

>  <SCORE.INTRA.REPUL.0>
0

>  <SCORE.INTRA.SOLV>
-0.810512

>  <SCORE.INTRA.SOLV.lig_0>
-63.2542

>  <SCORE.INTRA.VDW>
1.88189

>  <SCORE.INTRA.VDW.0>
-3.15072

>  <SCORE.INTRA.norm>
0.0629954

>  <SCORE.RESTR>
0.0392617

>  <SCORE.RESTR.CAVITY>
0.0392617

>  <SCORE.RESTR.norm>
0.00151007

>  <SCORE.SYSTEM>
0

>  <SCORE.SYSTEM.CONST>
0

>  <SCORE.SYSTEM.DIHEDRAL>
0

>  <SCORE.SYSTEM.SOLV>
0

>  <SCORE.SYSTEM.norm>
0

>  <SCORE.heavy>
26

>  <SCORE.norm>
-0.516913

>  <RMSD>
1.269

$$$$
ligand
 OpenBabel11021811473D
libRbt.so/2013.1/901 2013/11/27
 26 27  0  0  0  0  0  0  0  0999 V2000
   -6.4893  -14.0775   24.4335 C   0  0  0  0  0  0  0  0  0  0  0  0
   -9.8511  -16.7420   25.9706 C   0  0  0  0  0  0  0  0  0  0  0  0
   -9.3549  -16.9375   24.6860 C   0  0  0  0  0  0  0  0  0  0  0  0
   -7.9029  -16.6545   24.2932 C   0  0  0  0  0  0  0  0  0  0  0  0
   -7.2035  -14.5785   23.1746 C   0  0  1  0  0  0  0  0  0  0  0  0
  -13.4486  -17.9198   25.5191 C   0  0  0  0  0  0  0  0  0  0  0  0
  -11.9920  -17.5572   25.2255 C   0  0  0  0  0  0  0  0  0  0  0  0
  -10.2229  -17.4374   23.7205 C   0  0  0  0  0  0  0  0  0  0  0  0
   -8.4011  -16.0978   21.9744 C   0  0  0  0  0  0  0  0  0  0  0  0
   -7.2233  -13.8439   21.9951 C   0  0  2  0  0  0  0  0  0  0  0  0
   -6.6046  -12.4876   21.6474 C   0  0  0  0  0  0  0  0  0  0  0  0
   -5.0790  -12.5392   21.5360 C   0  0  0  0  0  0  0  0  0  0  0  0
  -11.1829  -17.0531   26.2525 N   0  0  0  0  0  0  0  0  0  0  0  0
   -7.8345  -15.7553   23.1323 N   0  0  0  0  0  0  0  0  0  0  0  0
  -11.4801  -17.7286   23.9982 N   0  0  0  0  0  0  0  0  0  0  0  0
   -9.1221  -16.3003   26.8590 O   0  0  0  0  0  0  0  0  0  0  0  0
   -3.0524  -14.1661   18.5791 O   0  5  0  0  0  0  0  0  0  0  0  0
   -4.7114  -10.7838   18.9518 O   0  0  0  0  0  0  0  0  0  0  0  0
   -4.6566  -13.2040   20.3413 O   0  0  0  0  0  0  0  0  0  0  0  0
   -2.5254  -11.9149   19.6486 O   0  0  0  0  0  0  0  0  0  0  0  0
   -2.4508   -9.7541   18.2296 O   0  5  0  0  0  0  0  0  0  0  0  0
   -2.3388  -14.0566   21.0612 O   0  0  0  0  0  0  0  0  0  0  0  0
   -3.2578  -11.9625   17.2000 O   0  0  0  0  0  0  0  0  0  0  0  0
   -8.1760  -14.7689   20.8681 S   0  0  0  0  0  0  0  0  0  0  0  0
   -3.0965  -13.3805   19.9832 P   0  0  2  0  0  0  0  0  0  0  0  0
   -3.1851  -11.0115   18.4944 P   0  0  2  0  0  0  0  0  0  0  0  0
  2 16  2  0  0  0  0
  2  3  1  0  0  0  0
  2 13  1  0  0  0  0
  3  8  2  0  0  0  0
  3  4  1  0  0  0  0
  4 14  1  0  0  0  0
  5  1  1  6  0  0  0
  5 14  1  0  0  0  0
  5 10  1  0  0  0  0
  6  7  1  0  0  0  0
  7 13  1  0  0  0  0
  7 15  2  0  0  0  0
  8 15  1  0  0  0  0
  9 14  1  0  0  0  0
  9 24  1  0  0  0  0
 10 24  1  0  0  0  0
 10 11  1  1  0  0  0
 11 12  1  0  0  0  0
 12 19  1  0  0  0  0
 17 25  1  0  0  0  0
 19 25  1  0  0  0  0
 20 26  1  0  0  0  0
 21 26  1  0  0  0  0
 22 25  2  0  0  0  0
 23 26  2  0  0  0  0
 25 20  1  6  0  0  0
 26 18  1  1  0  0  0
M  CHG  2  17  -1  21  -1
M  END
>  <CHROM.1>
-126.36350017,71.08072855,73.21520009,121.35997436,179.53075368,55.30848304
-179.91255518,60.76267372,-6.52912750,-14.26859550,21.80325366,-2.37491042
-0.32313815,-1.18557745

>  <Name>
ligand

>  <RI>
0

>  <Rbt.Current_Directory>
/home/itssahil/PROJECTS/Mol_Feturizer/New_Systems/rnas/3D2X

>  <Rbt.Executable>
rbdock ($Id: //depot/dev/client3/rdock/2013.1/src/exe/rbdock.cxx#4 $)

>  <Rbt.Library>
libRbt.so (2013.1, Build901 2013/11/27)

>  <Rbt.Parameter_File>
/export/apps/rDock/src/rDock_2013.1_src/data/scripts/dock_solv.prm

>  <Rbt.Receptor>
prm/pocket_docking_2.prm

>  <SCORE>
-15.7135

>  <SCORE.INTER>
-14.1545

>  <SCORE.INTER.CONST>
1

>  <SCORE.INTER.POLAR>
0

>  <SCORE.INTER.ROT>
8

>  <SCORE.INTER.SOLV>
10.1351

>  <SCORE.INTER.VDW>
-21.748

>  <SCORE.INTER.norm>
-0.544403

>  <SCORE.INTRA>
-2.32033

>  <SCORE.INTRA.DIHEDRAL>
-2.4846

>  <SCORE.INTRA.DIHEDRAL.0>
7.88077

>  <SCORE.INTRA.POLAR>
0

>  <SCORE.INTRA.POLAR.0>
0

>  <SCORE.INTRA.REPUL>
0

>  <SCORE.INTRA.REPUL.0>
0

>  <SCORE.INTRA.SOLV>
-1.58019

>  <SCORE.INTRA.SOLV.lig_0>
-63.2542

>  <SCORE.INTRA.VDW>
-0.287932

>  <SCORE.INTRA.VDW.0>
-3.15072

>  <SCORE.INTRA.norm>
-0.0892433

>  <SCORE.RESTR>
0.761307

>  <SCORE.RESTR.CAVITY>
0.761307

>  <SCORE.RESTR.norm>
0.0292811

>  <SCORE.SYSTEM>
0

>  <SCORE.SYSTEM.CONST>
0

>  <SCORE.SYSTEM.DIHEDRAL>
0

>  <SCORE.SYSTEM.SOLV>
0

>  <SCORE.SYSTEM.norm>
0

>  <SCORE.heavy>
26

>  <SCORE.norm>
-0.604366

>  <RMSD>
1.332

$$$$
ligand
 OpenBabel11021811473D
libRbt.so/2013.1/901 2013/11/27
 26 27  0  0  0  0  0  0  0  0999 V2000
   -7.7494  -13.7581   23.6602 C   0  0  0  0  0  0  0  0  0  0  0  0
   -9.9789  -16.9638   26.4457 C   0  0  0  0  0  0  0  0  0  0  0  0
   -9.4032  -16.8107   25.1888 C   0  0  0  0  0  0  0  0  0  0  0  0
   -7.9493  -16.3825   24.9762 C   0  0  0  0  0  0  0  0  0  0  0  0
   -7.5457  -15.0862   22.9251 C   0  0  1  0  0  0  0  0  0  0  0  0
  -13.4776  -18.1273   25.4771 C   0  0  0  0  0  0  0  0  0  0  0  0
  -12.0288  -17.6470   25.3805 C   0  0  0  0  0  0  0  0  0  0  0  0
  -10.1888  -17.0845   24.0737 C   0  0  0  0  0  0  0  0  0  0  0  0
   -7.4156  -17.3561   22.8078 C   0  0  0  0  0  0  0  0  0  0  0  0
   -7.2386  -15.1410   21.5708 C   0  0  2  0  0  0  0  0  0  0  0  0
   -7.0301  -14.0255   20.5434 C   0  0  0  0  0  0  0  0  0  0  0  0
   -5.6898  -14.1314   19.8122 C   0  0  0  0  0  0  0  0  0  0  0  0
  -11.3055  -17.3867   26.5520 N   0  0  0  0  0  0  0  0  0  0  0  0
   -7.6358  -16.2664   23.5447 N   0  0  0  0  0  0  0  0  0  0  0  0
  -11.4419  -17.4843   24.1860 N   0  0  0  0  0  0  0  0  0  0  0  0
   -9.3245  -16.7323   27.4625 O   0  0  0  0  0  0  0  0  0  0  0  0
   -4.3725  -13.2244   16.8151 O   0  5  0  0  0  0  0  0  0  0  0  0
   -2.1280   -9.3669   19.0924 O   0  0  0  0  0  0  0  0  0  0  0  0
   -5.3338  -12.9000   19.1762 O   0  0  0  0  0  0  0  0  0  0  0  0
   -3.6732  -11.1887   18.1775 O   0  0  0  0  0  0  0  0  0  0  0  0
   -4.5664   -9.5225   19.9423 O   0  5  0  0  0  0  0  0  0  0  0  0
   -2.8547  -13.5221   18.8862 O   0  0  0  0  0  0  0  0  0  0  0  0
   -2.8490  -11.3154   20.5940 O   0  0  0  0  0  0  0  0  0  0  0  0
   -7.1476  -16.8325   21.1662 S   0  0  0  0  0  0  0  0  0  0  0  0
   -3.9854  -12.7609   18.3070 P   0  0  2  0  0  0  0  0  0  0  0  0
   -3.3886  -10.2899   19.4793 P   0  0  2  0  0  0  0  0  0  0  0  0
  2 16  2  0  0  0  0
  2  3  1  0  0  0  0
  2 13  1  0  0  0  0
  3  8  2  0  0  0  0
  3  4  1  0  0  0  0
  4 14  1  0  0  0  0
  5  1  1  1  0  0  0
  5 14  1  0  0  0  0
  5 10  1  0  0  0  0
  6  7  1  0  0  0  0
  7 13  1  0  0  0  0
  7 15  2  0  0  0  0
  8 15  1  0  0  0  0
  9 14  1  0  0  0  0
  9 24  1  0  0  0  0
 10 24  1  0  0  0  0
 10 11  1  6  0  0  0
 11 12  1  0  0  0  0
 12 19  1  0  0  0  0
 17 25  1  0  0  0  0
 19 25  1  0  0  0  0
 20 26  1  0  0  0  0
 21 26  1  0  0  0  0
 22 25  2  0  0  0  0
 23 26  2  0  0  0  0
 25 20  1  6  0  0  0
 26 18  1  6  0  0  0
M  CHG  2  17  -1  21  -1
M  END
>  <CHROM.1>
-178.26986677,125.76089543,-162.29352675,103.41673717,-178.35514474,173.62276224
87.27808625,136.12509719,-6.71051026,-14.35494517,21.72372739,-2.98938205
-0.88853626,-2.20775633

>  <Name>
ligand

>  <RI>
0

>  <Rbt.Current_Directory>
/home/itssahil/PROJECTS/Mol_Feturizer/New_Systems/rnas/3D2X

>  <Rbt.Executable>
rbdock ($Id: //depot/dev/client3/rdock/2013.1/src/exe/rbdock.cxx#4 $)

>  <Rbt.Library>
libRbt.so (2013.1, Build901 2013/11/27)

>  <Rbt.Parameter_File>
/export/apps/rDock/src/rDock_2013.1_src/data/scripts/dock_solv.prm

>  <Rbt.Receptor>
prm/pocket_docking_2.prm

>  <SCORE>
-17.5107

>  <SCORE.INTER>
-18.6227

>  <SCORE.INTER.CONST>
1

>  <SCORE.INTER.POLAR>
0

>  <SCORE.INTER.ROT>
8

>  <SCORE.INTER.SOLV>
6.09715

>  <SCORE.INTER.VDW>
-23.3808

>  <SCORE.INTER.norm>
-0.716258

>  <SCORE.INTRA>
0.329556

>  <SCORE.INTRA.DIHEDRAL>
0.923488

>  <SCORE.INTRA.DIHEDRAL.0>
7.88077

>  <SCORE.INTRA.POLAR>
0

>  <SCORE.INTRA.POLAR.0>
0

>  <SCORE.INTRA.REPUL>
0

>  <SCORE.INTRA.REPUL.0>
0

>  <SCORE.INTRA.SOLV>
-0.564373

>  <SCORE.INTRA.SOLV.lig_0>
-63.2542

>  <SCORE.INTRA.VDW>
0.149998

>  <SCORE.INTRA.VDW.0>
-3.15072

>  <SCORE.INTRA.norm>
0.0126752

>  <SCORE.RESTR>
0.78244

>  <SCORE.RESTR.CAVITY>
0.78244

>  <SCORE.RESTR.norm>
0.0300938

>  <SCORE.SYSTEM>
0

>  <SCORE.SYSTEM.CONST>
0

>  <SCORE.SYSTEM.DIHEDRAL>
0

>  <SCORE.SYSTEM.SOLV>
0

>  <SCORE.SYSTEM.norm>
0

>  <SCORE.heavy>
26

>  <SCORE.norm>
-0.673488

>  <RMSD>
1.386

$$$$
ligand
 OpenBabel11021811473D
libRbt.so/2013.1/901 2013/11/27
 26 27  0  0  0  0  0  0  0  0999 V2000
   -7.7858  -13.9191   23.6202 C   0  0  0  0  0  0  0  0  0  0  0  0
  -10.3533  -16.8527   26.4884 C   0  0  0  0  0  0  0  0  0  0  0  0
   -9.7569  -16.8737   25.2320 C   0  0  0  0  0  0  0  0  0  0  0  0
   -8.2999  -16.4744   24.9859 C   0  0  0  0  0  0  0  0  0  0  0  0
   -7.7705  -15.2736   22.9055 C   0  0  1  0  0  0  0  0  0  0  0  0
  -13.8341  -18.1511   25.6335 C   0  0  0  0  0  0  0  0  0  0  0  0
  -12.3844  -17.6840   25.4949 C   0  0  0  0  0  0  0  0  0  0  0  0
  -10.5234  -17.3024   24.1531 C   0  0  0  0  0  0  0  0  0  0  0  0
   -7.9388  -17.5426   22.8265 C   0  0  0  0  0  0  0  0  0  0  0  0
   -7.4990  -15.3890   21.5475 C   0  0  2  0  0  0  0  0  0  0  0  0
   -7.1669  -14.3261   20.4969 C   0  0  0  0  0  0  0  0  0  0  0  0
   -5.6761  -14.2709   20.1554 C   0  0  0  0  0  0  0  0  0  0  0  0
  -11.6811  -17.2611   26.6307 N   0  0  0  0  0  0  0  0  0  0  0  0
   -8.0014  -16.4223   23.5475 N   0  0  0  0  0  0  0  0  0  0  0  0
  -11.7778  -17.6868   24.2992 N   0  0  0  0  0  0  0  0  0  0  0  0
   -9.7162  -16.4800   27.4738 O   0  0  0  0  0  0  0  0  0  0  0  0
   -3.4513  -13.9712   17.9522 O   0  5  0  0  0  0  0  0  0  0  0  0
   -4.4102   -9.0433   17.4001 O   0  0  0  0  0  0  0  0  0  0  0  0
   -5.3377  -13.0734   19.4489 O   0  0  0  0  0  0  0  0  0  0  0  0
   -3.8840  -11.4625   18.0436 O   0  0  0  0  0  0  0  0  0  0  0  0
   -5.4834  -10.0660   19.5201 O   0  5  0  0  0  0  0  0  0  0  0  0
   -2.8856  -12.6455   20.0979 O   0  0  0  0  0  0  0  0  0  0  0  0
   -2.9714   -9.5417   19.4622 O   0  0  0  0  0  0  0  0  0  0  0  0
   -7.6364  -17.0839   21.1715 S   0  0  0  0  0  0  0  0  0  0  0  0
   -3.8302  -12.7792   18.9651 P   0  0  2  0  0  0  0  0  0  0  0  0
   -4.2774  -10.0324   18.6629 P   0  0  2  0  0  0  0  0  0  0  0  0
  2 16  2  0  0  0  0
  2  3  1  0  0  0  0
  2 13  1  0  0  0  0
  3  8  2  0  0  0  0
  3  4  1  0  0  0  0
  4 14  1  0  0  0  0
  5  1  1  1  0  0  0
  5 14  1  0  0  0  0
  5 10  1  0  0  0  0
  6  7  1  0  0  0  0
  7 13  1  0  0  0  0
  7 15  2  0  0  0  0
  8 15  1  0  0  0  0
  9 14  1  0  0  0  0
  9 24  1  0  0  0  0
 10 24  1  0  0  0  0
 10 11  1  6  0  0  0
 11 12  1  0  0  0  0
 12 19  1  0  0  0  0
 17 25  1  0  0  0  0
 19 25  1  0  0  0  0
 20 26  1  0  0  0  0
 21 26  1  0  0  0  0
 22 25  2  0  0  0  0
 23 26  2  0  0  0  0
 25 20  1  6  0  0  0
 26 18  1  6  0  0  0
M  CHG  2  17  -1  21  -1
M  END
>  <CHROM.1>
-172.38925180,102.46207150,-165.12285961,110.29852988,-179.57147896,178.16419294
61.06939301,-172.49514696,-7.05263826,-14.35562552,21.71220170,2.74408526
-0.85794900,-2.90050488

>  <Name>
ligand

>  <RI>
0

>  <Rbt.Current_Directory>
/home/itssahil/PROJECTS/Mol_Feturizer/New_Systems/rnas/3D2X

>  <Rbt.Executable>
rbdock ($Id: //depot/dev/client3/rdock/2013.1/src/exe/rbdock.cxx#4 $)

>  <Rbt.Library>
libRbt.so (2013.1, Build901 2013/11/27)

>  <Rbt.Parameter_File>
/export/apps/rDock/src/rDock_2013.1_src/data/scripts/dock_solv.prm

>  <Rbt.Receptor>
prm/pocket_docking_2.prm

>  <SCORE>
-20.2037

>  <SCORE.INTER>
-19.0439

>  <SCORE.INTER.CONST>
1

>  <SCORE.INTER.POLAR>
0

>  <SCORE.INTER.ROT>
8

>  <SCORE.INTER.SOLV>
7.02621

>  <SCORE.INTER.VDW>
-23.9713

>  <SCORE.INTER.norm>
-0.732458

>  <SCORE.INTRA>
-1.17912

>  <SCORE.INTRA.DIHEDRAL>
-1.69166

>  <SCORE.INTRA.DIHEDRAL.0>
7.88077

>  <SCORE.INTRA.POLAR>
0

>  <SCORE.INTRA.POLAR.0>
0

>  <SCORE.INTRA.REPUL>
0

>  <SCORE.INTRA.REPUL.0>
0

>  <SCORE.INTRA.SOLV>
-0.665705

>  <SCORE.INTRA.SOLV.lig_0>
-63.2542

>  <SCORE.INTRA.VDW>
-0.00044159

>  <SCORE.INTRA.VDW.0>
-3.15072

>  <SCORE.INTRA.norm>
-0.0453509

>  <SCORE.RESTR>
0.0193679

>  <SCORE.RESTR.CAVITY>
0.0193679

>  <SCORE.RESTR.norm>
0.000744919

>  <SCORE.SYSTEM>
0

>  <SCORE.SYSTEM.CONST>
0

>  <SCORE.SYSTEM.DIHEDRAL>
0

>  <SCORE.SYSTEM.SOLV>
0

>  <SCORE.SYSTEM.norm>
0

>  <SCORE.heavy>
26

>  <SCORE.norm>
-0.777064

>  <RMSD>
1.474

$$$$
ligand
 OpenBabel11021811473D
libRbt.so/2013.1/901 2013/11/27
 26 27  0  0  0  0  0  0  0  0999 V2000
   -8.2585  -13.8311   23.5440 C   0  0  0  0  0  0  0  0  0  0  0  0
  -10.1169  -16.9277   26.6018 C   0  0  0  0  0  0  0  0  0  0  0  0
   -9.5077  -16.7085   25.3708 C   0  0  0  0  0  0  0  0  0  0  0  0
   -8.0581  -16.2406   25.2212 C   0  0  0  0  0  0  0  0  0  0  0  0
   -7.7282  -15.1729   23.0300 C   0  0  1  0  0  0  0  0  0  0  0  0
  -13.5580  -18.1229   25.4779 C   0  0  0  0  0  0  0  0  0  0  0  0
  -12.1182  -17.6080   25.4463 C   0  0  0  0  0  0  0  0  0  0  0  0
  -10.2533  -16.9509   24.2215 C   0  0  0  0  0  0  0  0  0  0  0  0
   -7.1416  -17.3604   23.2614 C   0  0  0  0  0  0  0  0  0  0  0  0
   -7.2908  -15.3418   21.7218 C   0  0  2  0  0  0  0  0  0  0  0  0
   -7.2115  -14.3539   20.5550 C   0  0  0  0  0  0  0  0  0  0  0  0
   -5.8728  -14.4109   19.8155 C   0  0  0  0  0  0  0  0  0  0  0  0
  -11.4361  -17.3829   26.6494 N   0  0  0  0  0  0  0  0  0  0  0  0
   -7.6409  -16.2528   23.8116 N   0  0  0  0  0  0  0  0  0  0  0  0
  -11.4998  -17.3817   24.2783 N   0  0  0  0  0  0  0  0  0  0  0  0
   -9.4985  -16.7261   27.6471 O   0  0  0  0  0  0  0  0  0  0  0  0
   -4.6167  -11.9989   16.9921 O   0  5  0  0  0  0  0  0  0  0  0  0
   -1.1494  -11.8742   19.4238 O   0  0  0  0  0  0  0  0  0  0  0  0
   -5.7496  -13.3537   18.8591 O   0  0  0  0  0  0  0  0  0  0  0  0
   -3.7067  -11.8530   19.3670 O   0  0  0  0  0  0  0  0  0  0  0  0
   -2.3779  -10.4883   17.6176 O   0  5  0  0  0  0  0  0  0  0  0  0
   -3.4096  -14.0331   18.0345 O   0  0  0  0  0  0  0  0  0  0  0  0
   -2.4329   -9.7533   20.0762 O   0  0  0  0  0  0  0  0  0  0  0  0
   -6.8297  -17.0153   21.5808 S   0  0  0  0  0  0  0  0  0  0  0  0
   -4.3133  -12.8897   18.2979 P   0  0  2  0  0  0  0  0  0  0  0  0
   -2.4137  -10.9641   19.0185 P   0  0  2  0  0  0  0  0  0  0  0  0
  2 16  2  0  0  0  0
  2  3  1  0  0  0  0
  2 13  1  0  0  0  0
  3  8  2  0  0  0  0
  3  4  1  0  0  0  0
  4 14  1  0  0  0  0
  5  1  1  1  0  0  0
  5 14  1  0  0  0  0
  5 10  1  0  0  0  0
  6  7  1  0  0  0  0
  7 13  1  0  0  0  0
  7 15  2  0  0  0  0
  8 15  1  0  0  0  0
  9 14  1  0  0  0  0
  9 24  1  0  0  0  0
 10 24  1  0  0  0  0
 10 11  1  6  0  0  0
 11 12  1  0  0  0  0
 12 19  1  0  0  0  0
 17 25  1  0  0  0  0
 19 25  1  0  0  0  0
 20 26  1  0  0  0  0
 21 26  1  0  0  0  0
 22 25  2  0  0  0  0
 23 26  2  0  0  0  0
 25 20  1  1  0  0  0
 26 18  1  1  0  0  0
M  CHG  2  17  -1  21  -1
M  END
>  <CHROM.1>
173.09425224,133.56500435,-171.60793218,93.60605558,160.01313533,-56.18479496
164.91418117,-87.41051216,-6.60984860,-14.52942315,21.69548939,-2.63055991
-0.73446605,-1.77243868

>  <Name>
ligand

>  <RI>
0

>  <Rbt.Current_Directory>
/home/itssahil/PROJECTS/Mol_Feturizer/New_Systems/rnas/3D2X

>  <Rbt.Executable>
rbdock ($Id: //depot/dev/client3/rdock/2013.1/src/exe/rbdock.cxx#4 $)

>  <Rbt.Library>
libRbt.so (2013.1, Build901 2013/11/27)

>  <Rbt.Parameter_File>
/export/apps/rDock/src/rDock_2013.1_src/data/scripts/dock_solv.prm

>  <Rbt.Receptor>
prm/pocket_docking_2.prm

>  <SCORE>
-18.7947

>  <SCORE.INTER>
-18.8236

>  <SCORE.INTER.CONST>
1

>  <SCORE.INTER.POLAR>
0

>  <SCORE.INTER.ROT>
8

>  <SCORE.INTER.SOLV>
9.91523

>  <SCORE.INTER.VDW>
-24.7875

>  <SCORE.INTER.norm>
-0.723985

>  <SCORE.INTRA>
-0.0228903

>  <SCORE.INTRA.DIHEDRAL>
0.728955

>  <SCORE.INTRA.DIHEDRAL.0>
7.88077

>  <SCORE.INTRA.POLAR>
0

>  <SCORE.INTRA.POLAR.0>
0

>  <SCORE.INTRA.REPUL>
0

>  <SCORE.INTRA.REPUL.0>
0

>  <SCORE.INTRA.SOLV>
-1.08506

>  <SCORE.INTRA.SOLV.lig_0>
-63.2542

>  <SCORE.INTRA.VDW>
0.155161

>  <SCORE.INTRA.VDW.0>
-3.15072

>  <SCORE.INTRA.norm>
-0.000880398

>  <SCORE.RESTR>
0.05184

>  <SCORE.RESTR.CAVITY>
0.05184

>  <SCORE.RESTR.norm>
0.00199385

>  <SCORE.SYSTEM>
0

>  <SCORE.SYSTEM.CONST>
0

>  <SCORE.SYSTEM.DIHEDRAL>
0

>  <SCORE.SYSTEM.SOLV>
0

>  <SCORE.SYSTEM.norm>
0

>  <SCORE.heavy>
26

>  <SCORE.norm>
-0.722872

>  <RMSD>
1.530

$$$$
ligand
 OpenBabel11021811473D
libRbt.so/2013.1/901 2013/11/27
 26 27  0  0  0  0  0  0  0  0999 V2000
   -8.2100  -13.6766   23.8015 C   0  0  0  0  0  0  0  0  0  0  0  0
  -10.4873  -16.9463   24.0283 C   0  0  0  0  0  0  0  0  0  0  0  0
   -9.6578  -16.8291   25.1387 C   0  0  0  0  0  0  0  0  0  0  0  0
   -8.2108  -16.3368   25.0593 C   0  0  0  0  0  0  0  0  0  0  0  0
   -7.7880  -14.9540   23.0695 C   0  0  1  0  0  0  0  0  0  0  0  0
  -13.7084  -18.1384   25.6823 C   0  0  0  0  0  0  0  0  0  0  0  0
  -12.2626  -17.6822   25.4809 C   0  0  0  0  0  0  0  0  0  0  0  0
  -10.1848  -17.1562   26.3840 C   0  0  0  0  0  0  0  0  0  0  0  0
   -7.3807  -17.1898   22.9337 C   0  0  0  0  0  0  0  0  0  0  0  0
   -7.3609  -14.9405   21.7471 C   0  0  2  0  0  0  0  0  0  0  0  0
   -7.1980  -13.7842   20.7572 C   0  0  0  0  0  0  0  0  0  0  0  0
   -6.4579  -12.5861   21.3566 C   0  0  0  0  0  0  0  0  0  0  0  0
  -11.8056  -17.3763   24.1920 N   0  0  0  0  0  0  0  0  0  0  0  0
   -7.7909  -16.1510   23.6628 N   0  0  0  0  0  0  0  0  0  0  0  0
  -11.4330  -17.5612   26.5272 N   0  0  0  0  0  0  0  0  0  0  0  0
  -10.0663  -16.6698   22.9049 O   0  0  0  0  0  0  0  0  0  0  0  0
   -4.4462  -14.5693   20.4835 O   0  5  0  0  0  0  0  0  0  0  0  0
   -4.6466  -10.8387   17.9012 O   0  0  0  0  0  0  0  0  0  0  0  0
   -5.3658  -12.1701   20.5308 O   0  0  0  0  0  0  0  0  0  0  0  0
   -3.4064  -12.8050   18.9685 O   0  0  0  0  0  0  0  0  0  0  0  0
   -2.5238  -10.3985   19.3126 O   0  5  0  0  0  0  0  0  0  0  0  0
   -3.0382  -12.6602   21.5102 O   0  0  0  0  0  0  0  0  0  0  0  0
   -2.3433  -11.5377   17.0196 O   0  0  0  0  0  0  0  0  0  0  0  0
   -7.0360  -16.5997   21.3294 S   0  0  0  0  0  0  0  0  0  0  0  0
   -4.0024  -13.0227   20.4461 P   0  0  2  0  0  0  0  0  0  0  0  0
   -3.1874  -11.3286   18.3719 P   0  0  2  0  0  0  0  0  0  0  0  0
  2 16  2  0  0  0  0
  2  3  1  0  0  0  0
  2 13  1  0  0  0  0
  3  8  2  0  0  0  0
  3  4  1  0  0  0  0
  4 14  1  0  0  0  0
  5  1  1  1  0  0  0
  5 14  1  0  0  0  0
  5 10  1  0  0  0  0
  6  7  1  0  0  0  0
  7 13  1  0  0  0  0
  7 15  2  0  0  0  0
  8 15  1  0  0  0  0
  9 14  1  0  0  0  0
  9 24  1  0  0  0  0
 10 24  1  0  0  0  0
 10 11  1  6  0  0  0
 11 12  1  0  0  0  0
 12 19  1  0  0  0  0
 17 25  1  0  0  0  0
 19 25  1  0  0  0  0
 20 26  1  0  0  0  0
 21 26  1  0  0  0  0
 22 25  2  0  0  0  0
 23 26  2  0  0  0  0
 25 20  1  6  0  0  0
 26 18  1  6  0  0  0
M  CHG  2  17  -1  21  -1
M  END
>  <CHROM.1>
-6.02022407,47.30858390,128.25293977,98.79708289,-73.91958843,164.36440400
37.95645475,-78.64979792,-6.84042117,-14.50414846,21.84284216,-2.50341931
-0.56685471,-1.45919791

>  <Name>
ligand

>  <RI>
0

>  <Rbt.Current_Directory>
/home/itssahil/PROJECTS/Mol_Feturizer/New_Systems/rnas/3D2X

>  <Rbt.Executable>
rbdock ($Id: //depot/dev/client3/rdock/2013.1/src/exe/rbdock.cxx#4 $)

>  <Rbt.Library>
libRbt.so (2013.1, Build901 2013/11/27)

>  <Rbt.Parameter_File>
/export/apps/rDock/src/rDock_2013.1_src/data/scripts/dock_solv.prm

>  <Rbt.Receptor>
prm/pocket_docking_2.prm

>  <SCORE>
-13.2244

>  <SCORE.INTER>
-15.9587

>  <SCORE.INTER.CONST>
1

>  <SCORE.INTER.POLAR>
0

>  <SCORE.INTER.ROT>
8

>  <SCORE.INTER.SOLV>
10.3626

>  <SCORE.INTER.VDW>
-23.0267

>  <SCORE.INTER.norm>
-0.613796

>  <SCORE.INTRA>
2.67755

>  <SCORE.INTRA.DIHEDRAL>
4.43167

>  <SCORE.INTRA.DIHEDRAL.0>
7.88077

>  <SCORE.INTRA.POLAR>
0

>  <SCORE.INTRA.POLAR.0>
0

>  <SCORE.INTRA.REPUL>
0

>  <SCORE.INTRA.REPUL.0>
0

>  <SCORE.INTRA.SOLV>
-0.199718

>  <SCORE.INTRA.SOLV.lig_0>
-63.2542

>  <SCORE.INTRA.VDW>
0.561575

>  <SCORE.INTRA.VDW.0>
-3.15072

>  <SCORE.INTRA.norm>
0.102983

>  <SCORE.RESTR>
0.056725

>  <SCORE.RESTR.CAVITY>
0.056725

>  <SCORE.RESTR.norm>
0.00218173

>  <SCORE.SYSTEM>
0

>  <SCORE.SYSTEM.CONST>
0

>  <SCORE.SYSTEM.DIHEDRAL>
0

>  <SCORE.SYSTEM.SOLV>
0

>  <SCORE.SYSTEM.norm>
0

>  <SCORE.heavy>
26

>  <SCORE.norm>
-0.508631

>  <RMSD>
1.599

$$$$
ligand
 OpenBabel11021811473D
libRbt.so/2013.1/901 2013/11/27
 26 27  0  0  0  0  0  0  0  0999 V2000
   -8.0892  -13.9042   23.4714 C   0  0  0  0  0  0  0  0  0  0  0  0
  -10.0679  -16.7979   26.4746 C   0  0  0  0  0  0  0  0  0  0  0  0
   -9.4739  -16.8334   25.2174 C   0  0  0  0  0  0  0  0  0  0  0  0
   -8.0168  -16.4390   24.9643 C   0  0  0  0  0  0  0  0  0  0  0  0
   -7.7568  -15.2524   22.8254 C   0  0  1  0  0  0  0  0  0  0  0  0
  -13.5523  -18.1001   25.6403 C   0  0  0  0  0  0  0  0  0  0  0  0
  -12.1022  -17.6367   25.4940 C   0  0  0  0  0  0  0  0  0  0  0  0
  -10.2431  -17.2725   24.1446 C   0  0  0  0  0  0  0  0  0  0  0  0
   -7.3996  -17.5006   22.8603 C   0  0  0  0  0  0  0  0  0  0  0  0
   -7.4530  -15.3690   21.4743 C   0  0  2  0  0  0  0  0  0  0  0  0
   -7.3634  -14.3112   20.3713 C   0  0  0  0  0  0  0  0  0  0  0  0
   -5.9392  -14.1175   19.8455 C   0  0  0  0  0  0  0  0  0  0  0  0
  -11.3960  -17.2027   26.6238 N   0  0  0  0  0  0  0  0  0  0  0  0
   -7.7243  -16.3905   23.5244 N   0  0  0  0  0  0  0  0  0  0  0  0
  -11.4978  -17.6533   24.2972 N   0  0  0  0  0  0  0  0  0  0  0  0
   -9.4284  -16.4156   27.4547 O   0  0  0  0  0  0  0  0  0  0  0  0
   -4.1505  -13.5438   17.1231 O   0  5  0  0  0  0  0  0  0  0  0  0
   -6.0191   -8.9274   17.4921 O   0  0  0  0  0  0  0  0  0  0  0  0
   -5.8449  -12.9870   18.9733 O   0  0  0  0  0  0  0  0  0  0  0  0
   -4.6852  -11.1057   17.6320 O   0  0  0  0  0  0  0  0  0  0  0  0
   -5.8065  -10.1545   19.7596 O   0  5  0  0  0  0  0  0  0  0  0  0
   -3.3486  -12.4868   19.3415 O   0  0  0  0  0  0  0  0  0  0  0  0
   -3.7715   -8.9824   18.7236 O   0  0  0  0  0  0  0  0  0  0  0  0
   -7.1945  -17.0666   21.1839 S   0  0  0  0  0  0  0  0  0  0  0  0
   -4.4376  -12.5287   18.3387 P   0  0  2  0  0  0  0  0  0  0  0  0
   -5.1244   -9.8192   18.4896 P   0  0  2  0  0  0  0  0  0  0  0  0
  2 16  2  0  0  0  0
  2  3  1  0  0  0  0
  2 13  1  0  0  0  0
  3  8  2  0  0  0  0
  3  4  1  0  0  0  0
  4 14  1  0  0  0  0
  5  1  1  1  0  0  0
  5 14  1  0  0  0  0
  5 10  1  0  0  0  0
  6  7  1  0  0  0  0
  7 13  1  0  0  0  0
  7 15  2  0  0  0  0
  8 15  1  0  0  0  0
  9 14  1  0  0  0  0
  9 24  1  0  0  0  0
 10 24  1  0  0  0  0
 10 11  1  6  0  0  0
 11 12  1  0  0  0  0
 12 19  1  0  0  0  0
 17 25  1  0  0  0  0
 19 25  1  0  0  0  0
 20 26  1  0  0  0  0
 21 26  1  0  0  0  0
 22 25  2  0  0  0  0
 23 26  2  0  0  0  0
 25 20  1  6  0  0  0
 26 18  1  6  0  0  0
M  CHG  2  17  -1  21  -1
M  END
>  <CHROM.1>
-171.85382550,112.97601620,-170.84368901,96.56834219,177.22893617,175.14592316
78.07360895,-149.48806003,-7.24239764,-14.23557261,21.51793048,2.50987992
-0.86932241,3.10638782

>  <Name>
ligand

>  <RI>
0

>  <Rbt.Current_Directory>
/home/itssahil/PROJECTS/Mol_Feturizer/New_Systems/rnas/3D2X

>  <Rbt.Executable>
rbdock ($Id: //depot/dev/client3/rdock/2013.1/src/exe/rbdock.cxx#4 $)

>  <Rbt.Library>
libRbt.so (2013.1, Build901 2013/11/27)

>  <Rbt.Parameter_File>
/export/apps/rDock/src/rDock_2013.1_src/data/scripts/dock_solv.prm

>  <Rbt.Receptor>
prm/pocket_docking_3.prm

>  <SCORE>
-22.1528

>  <SCORE.INTER>
-21.3166

>  <SCORE.INTER.CONST>
1

>  <SCORE.INTER.POLAR>
0

>  <SCORE.INTER.ROT>
8

>  <SCORE.INTER.SOLV>
8.10965

>  <SCORE.INTER.VDW>
-25.8476

>  <SCORE.INTER.norm>
-0.819868

>  <SCORE.INTRA>
-0.836228

>  <SCORE.INTRA.DIHEDRAL>
-0.533843

>  <SCORE.INTRA.DIHEDRAL.0>
7.88077

>  <SCORE.INTRA.POLAR>
0

>  <SCORE.INTRA.POLAR.0>
0

>  <SCORE.INTRA.REPUL>
0

>  <SCORE.INTRA.REPUL.0>
0

>  <SCORE.INTRA.SOLV>
-0.67743

>  <SCORE.INTRA.SOLV.lig_0>
-63.2542

>  <SCORE.INTRA.VDW>
-0.230591

>  <SCORE.INTRA.VDW.0>
-3.15072

>  <SCORE.INTRA.norm>
-0.0321626

>  <SCORE.RESTR>
0

>  <SCORE.RESTR.CAVITY>
0

>  <SCORE.RESTR.norm>
0

>  <SCORE.SYSTEM>
0

>  <SCORE.SYSTEM.CONST>
0

>  <SCORE.SYSTEM.DIHEDRAL>
0

>  <SCORE.SYSTEM.SOLV>
0

>  <SCORE.SYSTEM.norm>
0

>  <SCORE.heavy>
26

>  <SCORE.norm>
-0.852031

>  <RMSD>
1.622

$$$$
ligand
 OpenBabel11021811473D
libRbt.so/2013.1/901 2013/11/27
 26 27  0  0  0  0  0  0  0  0999 V2000
   -6.4375  -17.3183   23.1740 C   0  0  0  0  0  0  0  0  0  0  0  0
  -10.1291  -17.0356   26.5786 C   0  0  0  0  0  0  0  0  0  0  0  0
   -9.5721  -16.6264   25.3715 C   0  0  0  0  0  0  0  0  0  0  0  0
   -8.1408  -16.1000   25.2413 C   0  0  0  0  0  0  0  0  0  0  0  0
   -7.1597  -15.9804   22.9889 C   0  0  1  0  0  0  0  0  0  0  0  0
  -13.5803  -18.1592   25.4127 C   0  0  0  0  0  0  0  0  0  0  0  0
  -12.1555  -17.6033   25.4062 C   0  0  0  0  0  0  0  0  0  0  0  0
  -10.3544  -16.7251   24.2254 C   0  0  0  0  0  0  0  0  0  0  0  0
   -8.5305  -14.2903   23.6577 C   0  0  0  0  0  0  0  0  0  0  0  0
   -7.0656  -15.2471   21.8121 C   0  0  2  0  0  0  0  0  0  0  0  0
   -6.3117  -15.5313   20.5105 C   0  0  0  0  0  0  0  0  0  0  0  0
   -6.5669  -14.4765   19.4313 C   0  0  0  0  0  0  0  0  0  0  0  0
  -11.4343  -17.5313   26.6053 N   0  0  0  0  0  0  0  0  0  0  0  0
   -7.9329  -15.4488   23.9399 N   0  0  0  0  0  0  0  0  0  0  0  0
  -11.5872  -17.1957   24.2622 N   0  0  0  0  0  0  0  0  0  0  0  0
   -9.4767  -16.9663   27.6204 O   0  0  0  0  0  0  0  0  0  0  0  0
   -3.9449  -15.2042   18.5820 O   0  5  0  0  0  0  0  0  0  0  0  0
   -3.6026  -10.9489   19.9492 O   0  0  0  0  0  0  0  0  0  0  0  0
   -5.5863  -13.4349   19.4652 O   0  0  0  0  0  0  0  0  0  0  0  0
   -3.4865  -12.7401   18.1267 O   0  0  0  0  0  0  0  0  0  0  0  0
   -1.4990  -11.1177   18.4530 O   0  5  0  0  0  0  0  0  0  0  0  0
   -3.2509  -13.6447   20.5231 O   0  0  0  0  0  0  0  0  0  0  0  0
   -3.7201  -10.2786   17.4778 O   0  0  0  0  0  0  0  0  0  0  0  0
   -7.9974  -13.7988   22.0718 S   0  0  0  0  0  0  0  0  0  0  0  0
   -4.0197  -13.7470   19.2614 P   0  0  2  0  0  0  0  0  0  0  0  0
   -2.9709  -11.2649   18.5030 P   0  0  2  0  0  0  0  0  0  0  0  0
  2 16  2  0  0  0  0
  2  3  1  0  0  0  0
  2 13  1  0  0  0  0
  3  8  2  0  0  0  0
  3  4  1  0  0  0  0
  4 14  1  0  0  0  0
  5  1  1  6  0  0  0
  5 14  1  0  0  0  0
  5 10  1  0  0  0  0
  6  7  1  0  0  0  0
  7 13  1  0  0  0  0
  7 15  2  0  0  0  0
  8 15  1  0  0  0  0
  9 14  1  0  0  0  0
  9 24  1  0  0  0  0
 10 24  1  0  0  0  0
 10 11  1  1  0  0  0
 11 12  1  0  0  0  0
 12 19  1  0  0  0  0
 17 25  1  0  0  0  0
 19 25  1  0  0  0  0
 20 26  1  0  0  0  0
 21 26  1  0  0  0  0
 22 25  2  0  0  0  0
 23 26  2  0  0  0  0
 25 20  1  6  0  0  0
 26 18  1  1  0  0  0
M  CHG  2  17  -1  21  -1
M  END
>  <CHROM.1>
-166.33777840,176.25701615,92.53406259,-110.20639728,59.63513488,-161.09571732
17.86601104,-19.70354406,-6.74752665,-14.59295217,21.83308325,-2.34773301
-0.36179427,-1.28109940

>  <Name>
ligand

>  <RI>
0

>  <Rbt.Current_Directory>
/home/itssahil/PROJECTS/Mol_Feturizer/New_Systems/rnas/3D2X

>  <Rbt.Executable>
rbdock ($Id: //depot/dev/client3/rdock/2013.1/src/exe/rbdock.cxx#4 $)

>  <Rbt.Library>
libRbt.so (2013.1, Build901 2013/11/27)

>  <Rbt.Parameter_File>
/export/apps/rDock/src/rDock_2013.1_src/data/scripts/dock_solv.prm

>  <Rbt.Receptor>
prm/pocket_docking_2.prm

>  <SCORE>
-16.0199

>  <SCORE.INTER>
-19.0047

>  <SCORE.INTER.CONST>
1

>  <SCORE.INTER.POLAR>
0

>  <SCORE.INTER.ROT>
8

>  <SCORE.INTER.SOLV>
12.5057

>  <SCORE.INTER.VDW>
-25.7717

>  <SCORE.INTER.norm>
-0.730948

>  <SCORE.INTRA>
2.98322

>  <SCORE.INTRA.DIHEDRAL>
4.64567

>  <SCORE.INTRA.DIHEDRAL.0>
7.88077

>  <SCORE.INTRA.POLAR>
0

>  <SCORE.INTRA.POLAR.0>
0

>  <SCORE.INTRA.REPUL>
0

>  <SCORE.INTRA.REPUL.0>
0

>  <SCORE.INTRA.SOLV>
-1.48278

>  <SCORE.INTRA.SOLV.lig_0>
-63.2542

>  <SCORE.INTRA.VDW>
1.40177

>  <SCORE.INTRA.VDW.0>
-3.15072

>  <SCORE.INTRA.norm>
0.114739

>  <SCORE.RESTR>
0.00156113

>  <SCORE.RESTR.CAVITY>
0.00156113

>  <SCORE.RESTR.norm>
6.00435e-05

>  <SCORE.SYSTEM>
0

>  <SCORE.SYSTEM.CONST>
0

>  <SCORE.SYSTEM.DIHEDRAL>
0

>  <SCORE.SYSTEM.SOLV>
0

>  <SCORE.SYSTEM.norm>
0

>  <SCORE.heavy>
26

>  <SCORE.norm>
-0.616149

>  <RMSD>
1.668

$$$$
ligand
 OpenBabel11021811473D
libRbt.so/2013.1/901 2013/11/27
 26 27  0  0  0  0  0  0  0  0999 V2000
   -8.3072  -13.8962   23.5287 C   0  0  0  0  0  0  0  0  0  0  0  0
  -10.0076  -17.0173   26.4697 C   0  0  0  0  0  0  0  0  0  0  0  0
   -9.4297  -16.8312   25.2183 C   0  0  0  0  0  0  0  0  0  0  0  0
   -7.9715  -16.4110   25.0193 C   0  0  0  0  0  0  0  0  0  0  0  0
   -7.7875  -15.1889   22.8926 C   0  0  1  0  0  0  0  0  0  0  0  0
  -13.5171  -18.1157   25.4648 C   0  0  0  0  0  0  0  0  0  0  0  0
  -12.0635  -17.6469   25.3835 C   0  0  0  0  0  0  0  0  0  0  0  0
  -10.2174  -17.0627   24.0951 C   0  0  0  0  0  0  0  0  0  0  0  0
   -7.1547  -17.3754   22.9366 C   0  0  0  0  0  0  0  0  0  0  0  0
   -7.4252  -15.2589   21.5528 C   0  0  2  0  0  0  0  0  0  0  0  0
   -7.4299  -14.1918   20.4552 C   0  0  0  0  0  0  0  0  0  0  0  0
   -6.1398  -14.1777   19.6319 C   0  0  0  0  0  0  0  0  0  0  0  0
  -11.3383  -17.4301   26.5626 N   0  0  0  0  0  0  0  0  0  0  0  0
   -7.6378  -16.3181   23.5907 N   0  0  0  0  0  0  0  0  0  0  0  0
  -11.4744  -17.4533   24.1947 N   0  0  0  0  0  0  0  0  0  0  0  0
   -9.3515  -16.8237   27.4934 O   0  0  0  0  0  0  0  0  0  0  0  0
   -5.4953  -11.9757   16.4359 O   0  5  0  0  0  0  0  0  0  0  0  0
   -5.4281  -10.9081   19.6745 O   0  0  0  0  0  0  0  0  0  0  0  0
   -6.1920  -13.2084   18.5806 O   0  0  0  0  0  0  0  0  0  0  0  0
   -3.7866  -12.3046   18.2964 O   0  0  0  0  0  0  0  0  0  0  0  0
   -2.8902  -10.4356   19.8430 O   0  5  0  0  0  0  0  0  0  0  0  0
   -4.5726  -14.3387   16.9322 O   0  0  0  0  0  0  0  0  0  0  0  0
   -4.1791   -9.8495   17.7021 O   0  0  0  0  0  0  0  0  0  0  0  0
   -6.9475  -16.9095   21.2690 S   0  0  0  0  0  0  0  0  0  0  0  0
   -4.9868  -13.0463   17.5249 P   0  0  2  0  0  0  0  0  0  0  0  0
   -3.9933  -10.8495   18.9473 P   0  0  2  0  0  0  0  0  0  0  0  0
  2 16  2  0  0  0  0
  2  3  1  0  0  0  0
  2 13  1  0  0  0  0
  3  8  2  0  0  0  0
  3  4  1  0  0  0  0
  4 14  1  0  0  0  0
  5  1  1  1  0  0  0
  5 14  1  0  0  0  0
  5 10  1  0  0  0  0
  6  7  1  0  0  0  0
  7 13  1  0  0  0  0
  7 15  2  0  0  0  0
  8 15  1  0  0  0  0
  9 14  1  0  0  0  0
  9 24  1  0  0  0  0
 10 24  1  0  0  0  0
 10 11  1  6  0  0  0
 11 12  1  0  0  0  0
 12 19  1  0  0  0  0
 17 25  1  0  0  0  0
 19 25  1  0  0  0  0
 20 26  1  0  0  0  0
 21 26  1  0  0  0  0
 22 25  2  0  0  0  0
 23 26  2  0  0  0  0
 25 20  1  1  0  0  0
 26 18  1  1  0  0  0
M  CHG  2  17  -1  21  -1
M  END
>  <CHROM.1>
178.94083658,133.93123854,177.67976409,90.02547420,-176.91812345,52.92441021
174.34497634,43.23959638,-7.13312864,-14.52503627,21.43117209,-2.73042765
-0.92512550,-1.99588416

>  <Name>
ligand

>  <RI>
0

>  <Rbt.Current_Directory>
/home/itssahil/PROJECTS/Mol_Feturizer/New_Systems/rnas/3D2X

>  <Rbt.Executable>
rbdock ($Id: //depot/dev/client3/rdock/2013.1/src/exe/rbdock.cxx#4 $)

>  <Rbt.Library>
libRbt.so (2013.1, Build901 2013/11/27)

>  <Rbt.Parameter_File>
/export/apps/rDock/src/rDock_2013.1_src/data/scripts/dock_solv.prm

>  <Rbt.Receptor>
prm/pocket_docking_3.prm

>  <SCORE>
-22.3777

>  <SCORE.INTER>
-20.0702

>  <SCORE.INTER.CONST>
1

>  <SCORE.INTER.POLAR>
0

>  <SCORE.INTER.ROT>
8

>  <SCORE.INTER.SOLV>
9.16162

>  <SCORE.INTER.VDW>
-25.3673

>  <SCORE.INTER.norm>
-0.77193

>  <SCORE.INTRA>
-2.3075

>  <SCORE.INTRA.DIHEDRAL>
-2.28085

>  <SCORE.INTRA.DIHEDRAL.0>
7.88077

>  <SCORE.INTRA.POLAR>
0

>  <SCORE.INTRA.POLAR.0>
0

>  <SCORE.INTRA.REPUL>
0

>  <SCORE.INTRA.REPUL.0>
0

>  <SCORE.INTRA.SOLV>
-2.04183

>  <SCORE.INTRA.SOLV.lig_0>
-63.2542

>  <SCORE.INTRA.VDW>
-0.146159

>  <SCORE.INTRA.VDW.0>
-3.15072

>  <SCORE.INTRA.norm>
-0.08875

>  <SCORE.RESTR>
0

>  <SCORE.RESTR.CAVITY>
0

>  <SCORE.RESTR.norm>
0

>  <SCORE.SYSTEM>
0

>  <SCORE.SYSTEM.CONST>
0

>  <SCORE.SYSTEM.DIHEDRAL>
0

>  <SCORE.SYSTEM.SOLV>
0

>  <SCORE.SYSTEM.norm>
0

>  <SCORE.heavy>
26

>  <SCORE.norm>
-0.86068

>  <RMSD>
1.671

$$$$
ligand
 OpenBabel11021811473D
libRbt.so/2013.1/901 2013/11/27
 26 27  0  0  0  0  0  0  0  0999 V2000
   -7.9126  -17.2049   22.3121 C   0  0  0  0  0  0  0  0  0  0  0  0
  -10.1491  -17.0084   26.5214 C   0  0  0  0  0  0  0  0  0  0  0  0
   -9.6253  -16.6809   25.2752 C   0  0  0  0  0  0  0  0  0  0  0  0
   -8.1853  -16.2060   25.0665 C   0  0  0  0  0  0  0  0  0  0  0  0
   -7.9622  -15.7157   22.6665 C   0  0  1  0  0  0  0  0  0  0  0  0
  -13.6715  -18.0865   25.5399 C   0  0  0  0  0  0  0  0  0  0  0  0
  -12.2326  -17.5754   25.4533 C   0  0  0  0  0  0  0  0  0  0  0  0
  -10.4517  -16.8162   24.1642 C   0  0  0  0  0  0  0  0  0  0  0  0
   -8.1474  -13.9655   24.1106 C   0  0  0  0  0  0  0  0  0  0  0  0
   -7.8909  -14.7230   21.6965 C   0  0  2  0  0  0  0  0  0  0  0  0
   -7.7662  -14.8156   20.1736 C   0  0  0  0  0  0  0  0  0  0  0  0
   -6.7341  -13.8421   19.5997 C   0  0  0  0  0  0  0  0  0  0  0  0
  -11.4660  -17.4619   26.6207 N   0  0  0  0  0  0  0  0  0  0  0  0
   -8.0922  -15.2851   23.9244 N   0  0  0  0  0  0  0  0  0  0  0  0
  -11.6952  -17.2464   24.2698 N   0  0  0  0  0  0  0  0  0  0  0  0
   -9.4572  -16.9040   27.5344 O   0  0  0  0  0  0  0  0  0  0  0  0
   -3.7939  -13.7147   18.2566 O   0  5  0  0  0  0  0  0  0  0  0  0
   -4.8259   -9.3448   18.3900 O   0  0  0  0  0  0  0  0  0  0  0  0
   -5.4473  -14.0184   20.2004 O   0  0  0  0  0  0  0  0  0  0  0  0
   -4.6830  -11.6591   19.4704 O   0  0  0  0  0  0  0  0  0  0  0  0
   -2.5347  -10.5317   18.5746 O   0  5  0  0  0  0  0  0  0  0  0  0
   -3.0467  -13.2301   20.6833 O   0  0  0  0  0  0  0  0  0  0  0  0
   -4.3213  -11.4063   16.9525 O   0  0  0  0  0  0  0  0  0  0  0  0
   -7.9367  -13.2079   22.5542 S   0  0  0  0  0  0  0  0  0  0  0  0
   -4.1703  -13.1625   19.7208 P   0  0  2  0  0  0  0  0  0  0  0  0
   -3.9881  -10.7190   18.3673 P   0  0  2  0  0  0  0  0  0  0  0  0
  2 16  2  0  0  0  0
  2  3  1  0  0  0  0
  2 13  1  0  0  0  0
  3  8  2  0  0  0  0
  3  4  1  0  0  0  0
  4 14  1  0  0  0  0
  5  1  1  6  0  0  0
  5 14  1  0  0  0  0
  5 10  1  0  0  0  0
  6  7  1  0  0  0  0
  7 13  1  0  0  0  0
  7 15  2  0  0  0  0
  8 15  1  0  0  0  0
  9 14  1  0  0  0  0
  9 24  1  0  0  0  0
 10 24  1  0  0  0  0
 10 11  1  1  0  0  0
 11 12  1  0  0  0  0
 12 19  1  0  0  0  0
 17 25  1  0  0  0  0
 19 25  1  0  0  0  0
 20 26  1  0  0  0  0
 21 26  1  0  0  0  0
 22 25  2  0  0  0  0
 23 26  2  0  0  0  0
 25 20  1  6  0  0  0
 26 18  1  1  0  0  0
M  CHG  2  17  -1  21  -1
M  END
>  <CHROM.1>
-149.21496658,-135.40870348,55.75447103,-84.68799467,177.06658172,-37.70069816
-70.58423280,177.64588964,-7.12813377,-14.24680666,21.84673061,2.30070395
0.40608818,1.90568461

>  <Name>
ligand

>  <RI>
0

>  <Rbt.Current_Directory>
/home/itssahil/PROJECTS/Mol_Feturizer/New_Systems/rnas/3D2X

>  <Rbt.Executable>
rbdock ($Id: //depot/dev/client3/rdock/2013.1/src/exe/rbdock.cxx#4 $)

>  <Rbt.Library>
libRbt.so (2013.1, Build901 2013/11/27)

>  <Rbt.Parameter_File>
/export/apps/rDock/src/rDock_2013.1_src/data/scripts/dock_solv.prm

>  <Rbt.Receptor>
prm/pocket_docking_2.prm

>  <SCORE>
-19.8511

>  <SCORE.INTER>
-19.4399

>  <SCORE.INTER.CONST>
1

>  <SCORE.INTER.POLAR>
0

>  <SCORE.INTER.ROT>
8

>  <SCORE.INTER.SOLV>
9.27379

>  <SCORE.INTER.VDW>
-24.9845

>  <SCORE.INTER.norm>
-0.747689

>  <SCORE.INTRA>
-0.419595

>  <SCORE.INTRA.DIHEDRAL>
-1.3644

>  <SCORE.INTRA.DIHEDRAL.0>
7.88077

>  <SCORE.INTRA.POLAR>
0

>  <SCORE.INTRA.POLAR.0>
0

>  <SCORE.INTRA.REPUL>
0

>  <SCORE.INTRA.REPUL.0>
0

>  <SCORE.INTRA.SOLV>
0.586881

>  <SCORE.INTRA.SOLV.lig_0>
-63.2542

>  <SCORE.INTRA.VDW>
-0.0308367

>  <SCORE.INTRA.VDW.0>
-3.15072

>  <SCORE.INTRA.norm>
-0.0161383

>  <SCORE.RESTR>
0.00837908

>  <SCORE.RESTR.CAVITY>
0.00837908

>  <SCORE.RESTR.norm>
0.000322272

>  <SCORE.SYSTEM>
0

>  <SCORE.SYSTEM.CONST>
0

>  <SCORE.SYSTEM.DIHEDRAL>
0

>  <SCORE.SYSTEM.SOLV>
0

>  <SCORE.SYSTEM.norm>
0

>  <SCORE.heavy>
26

>  <SCORE.norm>
-0.763505

>  <RMSD>
1.680

$$$$
ligand
 OpenBabel11021811473D
libRbt.so/2013.1/901 2013/11/27
 26 27  0  0  0  0  0  0  0  0999 V2000
   -7.6245  -13.7483   23.8658 C   0  0  0  0  0  0  0  0  0  0  0  0
  -10.2348  -16.7803   26.5161 C   0  0  0  0  0  0  0  0  0  0  0  0
   -9.5444  -16.7635   25.3088 C   0  0  0  0  0  0  0  0  0  0  0  0
   -8.0790  -16.3397   25.1838 C   0  0  0  0  0  0  0  0  0  0  0  0
   -7.4634  -15.0946   23.1537 C   0  0  1  0  0  0  0  0  0  0  0  0
  -13.6212  -18.1024   25.3685 C   0  0  0  0  0  0  0  0  0  0  0  0
  -12.1721  -17.6135   25.3518 C   0  0  0  0  0  0  0  0  0  0  0  0
  -10.2204  -17.1760   24.1649 C   0  0  0  0  0  0  0  0  0  0  0  0
   -7.4764  -17.3693   23.0597 C   0  0  0  0  0  0  0  0  0  0  0  0
   -7.0766  -15.1840   21.8219 C   0  0  2  0  0  0  0  0  0  0  0  0
   -6.7312  -14.0955   20.8023 C   0  0  0  0  0  0  0  0  0  0  0  0
   -5.7809  -13.0344   21.3621 C   0  0  0  0  0  0  0  0  0  0  0  0
  -11.5634  -17.2090   26.5472 N   0  0  0  0  0  0  0  0  0  0  0  0
   -7.6697  -16.2597   23.7741 N   0  0  0  0  0  0  0  0  0  0  0  0
  -11.4764  -17.5799   24.2061 N   0  0  0  0  0  0  0  0  0  0  0  0
   -9.6800  -16.4232   27.5555 O   0  0  0  0  0  0  0  0  0  0  0  0
   -5.1864   -9.8726   19.1271 O   0  5  0  0  0  0  0  0  0  0  0  0
   -3.0729  -10.8505   17.2981 O   0  0  0  0  0  0  0  0  0  0  0  0
   -5.9206  -11.7844   20.6798 O   0  0  0  0  0  0  0  0  0  0  0  0
   -3.5536  -11.7594   19.6404 O   0  0  0  0  0  0  0  0  0  0  0  0
   -1.7558   -9.9273   19.3242 O   0  5  0  0  0  0  0  0  0  0  0  0
   -5.6075  -12.2352   18.1666 O   0  0  0  0  0  0  0  0  0  0  0  0
   -1.3412  -12.3185   18.4884 O   0  0  0  0  0  0  0  0  0  0  0  0
   -7.0724  -16.8820   21.4348 S   0  0  0  0  0  0  0  0  0  0  0  0
   -5.1039  -11.4673   19.3286 P   0  0  2  0  0  0  0  0  0  0  0  0
   -2.3909  -11.1248   18.7300 P   0  0  2  0  0  0  0  0  0  0  0  0
  2 16  2  0  0  0  0
  2  3  1  0  0  0  0
  2 13  1  0  0  0  0
  3  8  2  0  0  0  0
  3  4  1  0  0  0  0
  4 14  1  0  0  0  0
  5  1  1  1  0  0  0
  5 14  1  0  0  0  0
  5 10  1  0  0  0  0
  6  7  1  0  0  0  0
  7 13  1  0  0  0  0
  7 15  2  0  0  0  0
  8 15  1  0  0  0  0
  9 14  1  0  0  0  0
  9 24  1  0  0  0  0
 10 24  1  0  0  0  0
 10 11  1  6  0  0  0
 11 12  1  0  0  0  0
 12 19  1  0  0  0  0
 17 25  1  0  0  0  0
 19 25  1  0  0  0  0
 20 26  1  0  0  0  0
 21 26  1  0  0  0  0
 22 25  2  0  0  0  0
 23 26  2  0  0  0  0
 25 20  1  1  0  0  0
 26 18  1  6  0  0  0
M  CHG  2  17  -1  21  -1
M  END
>  <CHROM.1>
-172.84332956,46.65302980,-154.52869517,107.31494540,-86.43672373,-47.87178922
-163.70174735,-25.04234146,-6.77238924,-14.18289136,21.87644842,3.09946792
-0.88516025,-2.45204209

>  <Name>
ligand

>  <RI>
0

>  <Rbt.Current_Directory>
/home/itssahil/PROJECTS/Mol_Feturizer/New_Systems/rnas/3D2X

>  <Rbt.Executable>
rbdock ($Id: //depot/dev/client3/rdock/2013.1/src/exe/rbdock.cxx#4 $)

>  <Rbt.Library>
libRbt.so (2013.1, Build901 2013/11/27)

>  <Rbt.Parameter_File>
/export/apps/rDock/src/rDock_2013.1_src/data/scripts/dock_solv.prm

>  <Rbt.Receptor>
prm/pocket_docking_2.prm

>  <SCORE>
-15.6228

>  <SCORE.INTER>
-18.0454

>  <SCORE.INTER.CONST>
1

>  <SCORE.INTER.POLAR>
0

>  <SCORE.INTER.ROT>
8

>  <SCORE.INTER.SOLV>
8.42899

>  <SCORE.INTER.VDW>
-23.7732

>  <SCORE.INTER.norm>
-0.694053

>  <SCORE.INTRA>
2.24348

>  <SCORE.INTRA.DIHEDRAL>
4.16014

>  <SCORE.INTRA.DIHEDRAL.0>
7.88077

>  <SCORE.INTRA.POLAR>
0

>  <SCORE.INTRA.POLAR.0>
0

>  <SCORE.INTRA.REPUL>
0

>  <SCORE.INTRA.REPUL.0>
0

>  <SCORE.INTRA.SOLV>
-1.33232

>  <SCORE.INTRA.SOLV.lig_0>
-63.2542

>  <SCORE.INTRA.VDW>
0.829568

>  <SCORE.INTRA.VDW.0>
-3.15072

>  <SCORE.INTRA.norm>
0.0862876

>  <SCORE.RESTR>
0.179069

>  <SCORE.RESTR.CAVITY>
0.179069

>  <SCORE.RESTR.norm>
0.00688727

>  <SCORE.SYSTEM>
0

>  <SCORE.SYSTEM.CONST>
0

>  <SCORE.SYSTEM.DIHEDRAL>
0

>  <SCORE.SYSTEM.SOLV>
0

>  <SCORE.SYSTEM.norm>
0

>  <SCORE.heavy>
26

>  <SCORE.norm>
-0.600878

>  <RMSD>
1.687

$$$$
ligand
 OpenBabel11021811473D
libRbt.so/2013.1/901 2013/11/27
 26 27  0  0  0  0  0  0  0  0999 V2000
   -8.3374  -13.8347   23.1686 C   0  0  0  0  0  0  0  0  0  0  0  0
   -9.9005  -16.6750   26.4229 C   0  0  0  0  0  0  0  0  0  0  0  0
   -9.3533  -16.6413   25.1446 C   0  0  0  0  0  0  0  0  0  0  0  0
   -7.9140  -16.2073   24.8570 C   0  0  0  0  0  0  0  0  0  0  0  0
   -7.8215  -15.1715   22.6279 C   0  0  1  0  0  0  0  0  0  0  0  0
  -13.3898  -18.0055   25.6568 C   0  0  0  0  0  0  0  0  0  0  0  0
  -11.9546  -17.5077   25.4793 C   0  0  0  0  0  0  0  0  0  0  0  0
  -10.1541  -17.0458   24.0813 C   0  0  0  0  0  0  0  0  0  0  0  0
   -7.1560  -17.3386   22.8370 C   0  0  0  0  0  0  0  0  0  0  0  0
   -7.5048  -15.3529   21.2869 C   0  0  2  0  0  0  0  0  0  0  0  0
   -7.5629  -14.3847   20.1025 C   0  0  0  0  0  0  0  0  0  0  0  0
   -6.5182  -13.2699   20.1921 C   0  0  0  0  0  0  0  0  0  0  0  0
  -11.2146  -17.1121   26.6015 N   0  0  0  0  0  0  0  0  0  0  0  0
   -7.6314  -16.2344   23.4146 N   0  0  0  0  0  0  0  0  0  0  0  0
  -11.3952  -17.4577   24.2618 N   0  0  0  0  0  0  0  0  0  0  0  0
   -9.2317  -16.3256   27.3957 O   0  0  0  0  0  0  0  0  0  0  0  0
   -5.6619  -15.3231   18.0489 O   0  5  0  0  0  0  0  0  0  0  0  0
   -4.3307  -11.8458   14.6304 O   0  0  0  0  0  0  0  0  0  0  0  0
   -6.0005  -12.9233   18.9038 O   0  0  0  0  0  0  0  0  0  0  0  0
   -4.8984  -13.3663   16.6076 O   0  0  0  0  0  0  0  0  0  0  0  0
   -4.8382  -10.8026   16.9426 O   0  5  0  0  0  0  0  0  0  0  0  0
   -3.6266  -13.9059   18.7774 O   0  0  0  0  0  0  0  0  0  0  0  0
   -2.6677  -12.1187   16.5620 O   0  0  0  0  0  0  0  0  0  0  0  0
   -7.0134  -17.0163   21.1292 S   0  0  0  0  0  0  0  0  0  0  0  0
   -4.9588  -13.8776   18.1310 P   0  0  2  0  0  0  0  0  0  0  0  0
   -4.2328  -11.9519   16.2335 P   0  0  2  0  0  0  0  0  0  0  0  0
  2 16  2  0  0  0  0
  2  3  1  0  0  0  0
  2 13  1  0  0  0  0
  3  8  2  0  0  0  0
  3  4  1  0  0  0  0
  4 14  1  0  0  0  0
  5  1  1  1  0  0  0
  5 14  1  0  0  0  0
  5 10  1  0  0  0  0
  6  7  1  0  0  0  0
  7 13  1  0  0  0  0
  7 15  2  0  0  0  0
  8 15  1  0  0  0  0
  9 14  1  0  0  0  0
  9 24  1  0  0  0  0
 10 24  1  0  0  0  0
 10 11  1  6  0  0  0
 11 12  1  0  0  0  0
 12 19  1  0  0  0  0
 17 25  1  0  0  0  0
 19 25  1  0  0  0  0
 20 26  1  0  0  0  0
 21 26  1  0  0  0  0
 22 25  2  0  0  0  0
 23 26  2  0  0  0  0
 25 20  1  6  0  0  0
 26 18  1  6  0  0  0
M  CHG  2  17  -1  21  -1
M  END
>  <CHROM.1>
-178.28946235,68.82963005,143.94468594,90.70027086,-74.47840476,-178.77702092
54.78383340,178.14389470,-7.12721514,-14.86475313,20.96929450,-2.50834674
-0.85765133,-1.89369479

>  <Name>
ligand

>  <RI>
0

>  <Rbt.Current_Directory>
/home/itssahil/PROJECTS/Mol_Feturizer/New_Systems/rnas/3D2X

>  <Rbt.Executable>
rbdock ($Id: //depot/dev/client3/rdock/2013.1/src/exe/rbdock.cxx#4 $)

>  <Rbt.Library>
libRbt.so (2013.1, Build901 2013/11/27)

>  <Rbt.Parameter_File>
/export/apps/rDock/src/rDock_2013.1_src/data/scripts/dock_solv.prm

>  <Rbt.Receptor>
prm/pocket_docking_5.prm

>  <SCORE>
-21.4051

>  <SCORE.INTER>
-22.2037

>  <SCORE.INTER.CONST>
1

>  <SCORE.INTER.POLAR>
0

>  <SCORE.INTER.ROT>
8

>  <SCORE.INTER.SOLV>
11.056

>  <SCORE.INTER.VDW>
-27.4211

>  <SCORE.INTER.norm>
-0.853988

>  <SCORE.INTRA>
0.798608

>  <SCORE.INTRA.DIHEDRAL>
1.61525

>  <SCORE.INTRA.DIHEDRAL.0>
7.88077

>  <SCORE.INTRA.POLAR>
0

>  <SCORE.INTRA.POLAR.0>
0

>  <SCORE.INTRA.REPUL>
0

>  <SCORE.INTRA.REPUL.0>
0

>  <SCORE.INTRA.SOLV>
0.632585

>  <SCORE.INTRA.SOLV.lig_0>
-63.2542

>  <SCORE.INTRA.VDW>
-0.32531

>  <SCORE.INTRA.VDW.0>
-3.15072

>  <SCORE.INTRA.norm>
0.0307157

>  <SCORE.RESTR>
0

>  <SCORE.RESTR.CAVITY>
0

>  <SCORE.RESTR.norm>
0

>  <SCORE.SYSTEM>
0

>  <SCORE.SYSTEM.CONST>
0

>  <SCORE.SYSTEM.DIHEDRAL>
0

>  <SCORE.SYSTEM.SOLV>
0

>  <SCORE.SYSTEM.norm>
0

>  <SCORE.heavy>
26

>  <SCORE.norm>
-0.823272

>  <RMSD>
1.690

$$$$
ligand
 OpenBabel11021811473D
libRbt.so/2013.1/901 2013/11/27
 26 27  0  0  0  0  0  0  0  0999 V2000
   -7.6921  -13.5684   23.8275 C   0  0  0  0  0  0  0  0  0  0  0  0
  -10.0220  -17.0706   26.6150 C   0  0  0  0  0  0  0  0  0  0  0  0
   -9.4370  -16.6129   25.4390 C   0  0  0  0  0  0  0  0  0  0  0  0
   -8.0139  -16.0538   25.3697 C   0  0  0  0  0  0  0  0  0  0  0  0
   -7.3569  -14.9547   23.2695 C   0  0  1  0  0  0  0  0  0  0  0  0
  -13.4112  -18.2273   25.3080 C   0  0  0  0  0  0  0  0  0  0  0  0
  -11.9990  -17.6426   25.3630 C   0  0  0  0  0  0  0  0  0  0  0  0
  -10.1816  -16.6918   24.2664 C   0  0  0  0  0  0  0  0  0  0  0  0
   -7.1596  -17.2186   23.4080 C   0  0  0  0  0  0  0  0  0  0  0  0
   -6.8620  -15.1332   21.9832 C   0  0  2  0  0  0  0  0  0  0  0  0
   -6.5374  -14.1189   20.8835 C   0  0  0  0  0  0  0  0  0  0  0  0
   -5.0342  -13.9613   20.6428 C   0  0  0  0  0  0  0  0  0  0  0  0
  -11.3166  -17.5932   26.5858 N   0  0  0  0  0  0  0  0  0  0  0  0
   -7.5058  -16.0697   23.9904 N   0  0  0  0  0  0  0  0  0  0  0  0
  -11.4046  -17.1883   24.2503 N   0  0  0  0  0  0  0  0  0  0  0  0
   -9.4035  -17.0204   27.6784 O   0  0  0  0  0  0  0  0  0  0  0  0
   -6.8075  -13.0668   17.8898 O   0  5  0  0  0  0  0  0  0  0  0  0
   -2.9081  -11.4246   18.1527 O   0  0  0  0  0  0  0  0  0  0  0  0
   -4.7628  -13.2403   19.4369 O   0  0  0  0  0  0  0  0  0  0  0  0
   -4.4700  -13.0004   16.8796 O   0  0  0  0  0  0  0  0  0  0  0  0
   -3.6326  -10.8349   15.7403 O   0  5  0  0  0  0  0  0  0  0  0  0
   -5.3497  -15.2013   17.8789 O   0  0  0  0  0  0  0  0  0  0  0  0
   -5.3254  -10.7237   17.6665 O   0  0  0  0  0  0  0  0  0  0  0  0
   -6.6764  -16.8521   21.7731 S   0  0  0  0  0  0  0  0  0  0  0  0
   -5.3450  -13.7267   18.0165 P   0  0  2  0  0  0  0  0  0  0  0  0
   -4.0490  -11.4553   17.0178 P   0  0  2  0  0  0  0  0  0  0  0  0
  2 16  2  0  0  0  0
  2  3  1  0  0  0  0
  2 13  1  0  0  0  0
  3  8  2  0  0  0  0
  3  4  1  0  0  0  0
  4 14  1  0  0  0  0
  5  1  1  1  0  0  0
  5 14  1  0  0  0  0
  5 10  1  0  0  0  0
  6  7  1  0  0  0  0
  7 13  1  0  0  0  0
  7 15  2  0  0  0  0
  8 15  1  0  0  0  0
  9 14  1  0  0  0  0
  9 24  1  0  0  0  0
 10 24  1  0  0  0  0
 10 11  1  6  0  0  0
 11 12  1  0  0  0  0
 12 19  1  0  0  0  0
 17 25  1  0  0  0  0
 19 25  1  0  0  0  0
 20 26  1  0  0  0  0
 21 26  1  0  0  0  0
 22 25  2  0  0  0  0
 23 26  2  0  0  0  0
 25 20  1  6  0  0  0
 26 18  1  1  0  0  0
M  CHG  2  17  -1  21  -1
M  END
>  <CHROM.1>
161.07413710,109.03606705,167.47187177,107.74099540,-56.14330483,70.23153775
87.01963142,73.06497234,-7.04302957,-14.72195941,21.35733522,-2.21938047
-0.51378288,-1.38104690

>  <Name>
ligand

>  <RI>
0

>  <Rbt.Current_Directory>
/home/itssahil/PROJECTS/Mol_Feturizer/New_Systems/rnas/3D2X

>  <Rbt.Executable>
rbdock ($Id: //depot/dev/client3/rdock/2013.1/src/exe/rbdock.cxx#4 $)

>  <Rbt.Library>
libRbt.so (2013.1, Build901 2013/11/27)

>  <Rbt.Parameter_File>
/export/apps/rDock/src/rDock_2013.1_src/data/scripts/dock_solv.prm

>  <Rbt.Receptor>
prm/pocket_docking_3.prm

>  <SCORE>
-18.8809

>  <SCORE.INTER>
-18.6435

>  <SCORE.INTER.CONST>
1

>  <SCORE.INTER.POLAR>
0

>  <SCORE.INTER.ROT>
8

>  <SCORE.INTER.SOLV>
13.7277

>  <SCORE.INTER.VDW>
-25.9382

>  <SCORE.INTER.norm>
-0.717056

>  <SCORE.INTRA>
-0.237472

>  <SCORE.INTRA.DIHEDRAL>
-0.466636

>  <SCORE.INTRA.DIHEDRAL.0>
7.88077

>  <SCORE.INTRA.POLAR>
0

>  <SCORE.INTRA.POLAR.0>
0

>  <SCORE.INTRA.REPUL>
0

>  <SCORE.INTRA.REPUL.0>
0

>  <SCORE.INTRA.SOLV>
0.120188

>  <SCORE.INTRA.SOLV.lig_0>
-63.2542

>  <SCORE.INTRA.VDW>
-0.0642483

>  <SCORE.INTRA.VDW.0>
-3.15072

>  <SCORE.INTRA.norm>
-0.00913354

>  <SCORE.RESTR>
0

>  <SCORE.RESTR.CAVITY>
0

>  <SCORE.RESTR.norm>
0

>  <SCORE.SYSTEM>
0

>  <SCORE.SYSTEM.CONST>
0

>  <SCORE.SYSTEM.DIHEDRAL>
0

>  <SCORE.SYSTEM.SOLV>
0

>  <SCORE.SYSTEM.norm>
0

>  <SCORE.heavy>
26

>  <SCORE.norm>
-0.72619

>  <RMSD>
1.729

$$$$
ligand
 OpenBabel11021811473D
libRbt.so/2013.1/901 2013/11/27
 26 27  0  0  0  0  0  0  0  0999 V2000
   -7.0833  -17.2256   22.5415 C   0  0  0  0  0  0  0  0  0  0  0  0
   -9.8986  -16.8758   26.5927 C   0  0  0  0  0  0  0  0  0  0  0  0
   -9.3631  -16.5955   25.3399 C   0  0  0  0  0  0  0  0  0  0  0  0
   -7.9281  -16.1069   25.1287 C   0  0  0  0  0  0  0  0  0  0  0  0
   -7.4403  -15.7502   22.7444 C   0  0  1  0  0  0  0  0  0  0  0  0
  -13.3899  -18.0538   25.6152 C   0  0  0  0  0  0  0  0  0  0  0  0
  -11.9582  -17.5237   25.5243 C   0  0  0  0  0  0  0  0  0  0  0  0
  -10.1721  -16.7936   24.2256 C   0  0  0  0  0  0  0  0  0  0  0  0
   -8.1355  -13.9687   23.9799 C   0  0  0  0  0  0  0  0  0  0  0  0
   -7.3984  -14.8303   21.7035 C   0  0  2  0  0  0  0  0  0  0  0  0
   -7.0359  -15.0028   20.2262 C   0  0  0  0  0  0  0  0  0  0  0  0
   -5.5308  -14.9048   19.9664 C   0  0  0  0  0  0  0  0  0  0  0  0
  -11.2094  -17.3459   26.6952 N   0  0  0  0  0  0  0  0  0  0  0  0
   -7.8271  -15.2653   23.9277 N   0  0  0  0  0  0  0  0  0  0  0  0
  -11.4100  -17.2390   24.3342 N   0  0  0  0  0  0  0  0  0  0  0  0
   -9.2222  -16.7151   27.6088 O   0  0  0  0  0  0  0  0  0  0  0  0
   -2.6463  -14.7267   20.1719 O   0  5  0  0  0  0  0  0  0  0  0  0
   -5.5650  -11.4807   18.8614 O   0  0  0  0  0  0  0  0  0  0  0  0
   -4.9781  -13.6972   20.4992 O   0  0  0  0  0  0  0  0  0  0  0  0
   -3.2883  -12.6469   18.8485 O   0  0  0  0  0  0  0  0  0  0  0  0
   -3.4122  -10.0888   19.2085 O   0  5  0  0  0  0  0  0  0  0  0  0
   -2.9047  -12.4589   21.3851 O   0  0  0  0  0  0  0  0  0  0  0  0
   -3.9406  -11.1093   16.9134 O   0  0  0  0  0  0  0  0  0  0  0  0
   -7.8307  -13.2942   22.4010 S   0  0  0  0  0  0  0  0  0  0  0  0
   -3.4243  -13.3237   20.3008 P   0  0  2  0  0  0  0  0  0  0  0  0
   -4.0104  -11.2505   18.5135 P   0  0  2  0  0  0  0  0  0  0  0  0
  2 16  2  0  0  0  0
  2  3  1  0  0  0  0
  2 13  1  0  0  0  0
  3  8  2  0  0  0  0
  3  4  1  0  0  0  0
  4 14  1  0  0  0  0
  5  1  1  6  0  0  0
  5 14  1  0  0  0  0
  5 10  1  0  0  0  0
  6  7  1  0  0  0  0
  7 13  1  0  0  0  0
  7 15  2  0  0  0  0
  8 15  1  0  0  0  0
  9 14  1  0  0  0  0
  9 24  1  0  0  0  0
 10 24  1  0  0  0  0
 10 11  1  1  0  0  0
 11 12  1  0  0  0  0
 12 19  1  0  0  0  0
 17 25  1  0  0  0  0
 19 25  1  0  0  0  0
 20 26  1  0  0  0  0
 21 26  1  0  0  0  0
 22 25  2  0  0  0  0
 23 26  2  0  0  0  0
 25 20  1  6  0  0  0
 26 18  1  1  0  0  0
M  CHG  2  17  -1  21  -1
M  END
>  <CHROM.1>
-150.71738367,-85.38624051,-53.62423646,-96.18844638,-177.24862476,176.31480901
-28.28769756,-55.02057351,-6.78516132,-14.41394759,22.05739217,-2.26559836
-0.01598731,-0.93525291

>  <Name>
ligand

>  <RI>
0

>  <Rbt.Current_Directory>
/home/itssahil/PROJECTS/Mol_Feturizer/New_Systems/rnas/3D2X

>  <Rbt.Executable>
rbdock ($Id: //depot/dev/client3/rdock/2013.1/src/exe/rbdock.cxx#4 $)

>  <Rbt.Library>
libRbt.so (2013.1, Build901 2013/11/27)

>  <Rbt.Parameter_File>
/export/apps/rDock/src/rDock_2013.1_src/data/scripts/dock_solv.prm

>  <Rbt.Receptor>
prm/pocket_docking_2.prm

>  <SCORE>
-20.6665

>  <SCORE.INTER>
-17.5138

>  <SCORE.INTER.CONST>
1

>  <SCORE.INTER.POLAR>
0

>  <SCORE.INTER.ROT>
8

>  <SCORE.INTER.SOLV>
10.5973

>  <SCORE.INTER.VDW>
-24.1416

>  <SCORE.INTER.norm>
-0.673607

>  <SCORE.INTRA>
-3.15271

>  <SCORE.INTRA.DIHEDRAL>
-1.81573

>  <SCORE.INTRA.DIHEDRAL.0>
7.88077

>  <SCORE.INTRA.POLAR>
0

>  <SCORE.INTRA.POLAR.0>
0

>  <SCORE.INTRA.REPUL>
0

>  <SCORE.INTRA.REPUL.0>
0

>  <SCORE.INTRA.SOLV>
-2.85548

>  <SCORE.INTRA.SOLV.lig_0>
-63.2542

>  <SCORE.INTRA.VDW>
-0.817101

>  <SCORE.INTRA.VDW.0>
-3.15072

>  <SCORE.INTRA.norm>
-0.121258

>  <SCORE.RESTR>
0

>  <SCORE.RESTR.CAVITY>
0

>  <SCORE.RESTR.norm>
0

>  <SCORE.SYSTEM>
0

>  <SCORE.SYSTEM.CONST>
0

>  <SCORE.SYSTEM.DIHEDRAL>
0

>  <SCORE.SYSTEM.SOLV>
0

>  <SCORE.SYSTEM.norm>
0

>  <SCORE.heavy>
26

>  <SCORE.norm>
-0.794865

>  <RMSD>
1.733

$$$$
ligand
 OpenBabel11021811473D
libRbt.so/2013.1/901 2013/11/27
 26 27  0  0  0  0  0  0  0  0999 V2000
   -8.3872  -13.9215   23.4730 C   0  0  0  0  0  0  0  0  0  0  0  0
  -10.0097  -16.9206   26.5276 C   0  0  0  0  0  0  0  0  0  0  0  0
   -9.4405  -16.7819   25.2661 C   0  0  0  0  0  0  0  0  0  0  0  0
   -7.9814  -16.3779   25.0416 C   0  0  0  0  0  0  0  0  0  0  0  0
   -7.8433  -15.2222   22.8747 C   0  0  1  0  0  0  0  0  0  0  0  0
  -13.5332  -18.0321   25.5884 C   0  0  0  0  0  0  0  0  0  0  0  0
  -12.0776  -17.5754   25.4797 C   0  0  0  0  0  0  0  0  0  0  0  0
  -10.2382  -17.0478   24.1577 C   0  0  0  0  0  0  0  0  0  0  0  0
   -7.1601  -17.3911   22.9840 C   0  0  0  0  0  0  0  0  0  0  0  0
   -7.4907  -15.3277   21.5346 C   0  0  2  0  0  0  0  0  0  0  0  0
   -7.5291  -14.2975   20.4029 C   0  0  0  0  0  0  0  0  0  0  0  0
   -6.2026  -14.1930   19.6466 C   0  0  0  0  0  0  0  0  0  0  0  0
  -11.3421  -17.3218   26.6450 N   0  0  0  0  0  0  0  0  0  0  0  0
   -7.6619  -16.3243   23.6077 N   0  0  0  0  0  0  0  0  0  0  0  0
  -11.4966  -17.4270   24.2804 N   0  0  0  0  0  0  0  0  0  0  0  0
   -9.3446  -16.6953   27.5389 O   0  0  0  0  0  0  0  0  0  0  0  0
   -5.5353  -11.9411   16.4885 O   0  5  0  0  0  0  0  0  0  0  0  0
   -2.9139  -11.1514   16.3720 O   0  0  0  0  0  0  0  0  0  0  0  0
   -6.2993  -13.3087   18.5258 O   0  0  0  0  0  0  0  0  0  0  0  0
   -3.9147  -12.3162   18.4179 O   0  0  0  0  0  0  0  0  0  0  0  0
   -1.6817  -11.0310   18.6435 O   0  5  0  0  0  0  0  0  0  0  0  0
   -4.5595  -14.2974   16.9094 O   0  0  0  0  0  0  0  0  0  0  0  0
   -1.7883  -13.2405   17.3414 O   0  0  0  0  0  0  0  0  0  0  0  0
   -6.9776  -16.9755   21.3003 S   0  0  0  0  0  0  0  0  0  0  0  0
   -5.0475  -13.0523   17.5458 P   0  0  2  0  0  0  0  0  0  0  0  0
   -2.5190  -11.8699   17.7571 P   0  0  2  0  0  0  0  0  0  0  0  0
  2 16  2  0  0  0  0
  2  3  1  0  0  0  0
  2 13  1  0  0  0  0
  3  8  2  0  0  0  0
  3  4  1  0  0  0  0
  4 14  1  0  0  0  0
  5  1  1  1  0  0  0
  5 14  1  0  0  0  0
  5 10  1  0  0  0  0
  6  7  1  0  0  0  0
  7 13  1  0  0  0  0
  7 15  2  0  0  0  0
  8 15  1  0  0  0  0
  9 14  1  0  0  0  0
  9 24  1  0  0  0  0
 10 24  1  0  0  0  0
 10 11  1  6  0  0  0
 11 12  1  0  0  0  0
 12 19  1  0  0  0  0
 17 25  1  0  0  0  0
 19 25  1  0  0  0  0
 20 26  1  0  0  0  0
 21 26  1  0  0  0  0
 22 25  2  0  0  0  0
 23 26  2  0  0  0  0
 25 20  1  1  0  0  0
 26 18  1  6  0  0  0
M  CHG  2  17  -1  21  -1
M  END
>  <CHROM.1>
179.49747828,128.80631452,175.05894970,88.25222952,-178.58594911,-66.57759123
-176.50448114,46.21081156,-6.82404769,-14.75653039,21.18361338,-2.29312826
-0.42778431,-1.37685337

>  <Name>
ligand

>  <RI>
0

>  <Rbt.Current_Directory>
/home/itssahil/PROJECTS/Mol_Feturizer/New_Systems/rnas/3D2X

>  <Rbt.Executable>
rbdock ($Id: //depot/dev/client3/rdock/2013.1/src/exe/rbdock.cxx#4 $)

>  <Rbt.Library>
libRbt.so (2013.1, Build901 2013/11/27)

>  <Rbt.Parameter_File>
/export/apps/rDock/src/rDock_2013.1_src/data/scripts/dock_solv.prm

>  <Rbt.Receptor>
prm/pocket_docking_3.prm

>  <SCORE>
-23.8009

>  <SCORE.INTER>
-21.9085

>  <SCORE.INTER.CONST>
1

>  <SCORE.INTER.POLAR>
0

>  <SCORE.INTER.ROT>
8

>  <SCORE.INTER.SOLV>
9.5098

>  <SCORE.INTER.VDW>
-26.7089

>  <SCORE.INTER.norm>
-0.842634

>  <SCORE.INTRA>
-1.89238

>  <SCORE.INTRA.DIHEDRAL>
-2.45035

>  <SCORE.INTRA.DIHEDRAL.0>
7.88077

>  <SCORE.INTRA.POLAR>
0

>  <SCORE.INTRA.POLAR.0>
0

>  <SCORE.INTRA.REPUL>
0

>  <SCORE.INTRA.REPUL.0>
0

>  <SCORE.INTRA.SOLV>
-1.28002

>  <SCORE.INTRA.SOLV.lig_0>
-63.2542

>  <SCORE.INTRA.VDW>
-0.027198

>  <SCORE.INTRA.VDW.0>
-3.15072

>  <SCORE.INTRA.norm>
-0.072784

>  <SCORE.RESTR>
0

>  <SCORE.RESTR.CAVITY>
0

>  <SCORE.RESTR.norm>
0

>  <SCORE.SYSTEM>
0

>  <SCORE.SYSTEM.CONST>
0

>  <SCORE.SYSTEM.DIHEDRAL>
0

>  <SCORE.SYSTEM.SOLV>
0

>  <SCORE.SYSTEM.norm>
0

>  <SCORE.heavy>
26

>  <SCORE.norm>
-0.915418

>  <RMSD>
1.733

$$$$
ligand
 OpenBabel11021811473D
libRbt.so/2013.1/901 2013/11/27
 26 27  0  0  0  0  0  0  0  0999 V2000
   -8.0811  -13.6926   23.6426 C   0  0  0  0  0  0  0  0  0  0  0  0
  -10.3935  -16.8017   24.1857 C   0  0  0  0  0  0  0  0  0  0  0  0
   -9.6324  -16.6465   25.3396 C   0  0  0  0  0  0  0  0  0  0  0  0
   -8.2047  -16.0949   25.3375 C   0  0  0  0  0  0  0  0  0  0  0  0
   -7.5607  -15.0632   23.1994 C   0  0  1  0  0  0  0  0  0  0  0  0
  -13.6494  -18.1210   25.6661 C   0  0  0  0  0  0  0  0  0  0  0  0
  -12.2147  -17.6058   25.5422 C   0  0  0  0  0  0  0  0  0  0  0  0
  -10.2136  -16.9911   26.5557 C   0  0  0  0  0  0  0  0  0  0  0  0
   -7.1165  -17.2750   23.5050 C   0  0  0  0  0  0  0  0  0  0  0  0
   -6.9782  -15.2644   21.9539 C   0  0  2  0  0  0  0  0  0  0  0  0
   -6.7098  -14.2916   20.8028 C   0  0  0  0  0  0  0  0  0  0  0  0
   -5.2187  -14.1161   20.5059 C   0  0  0  0  0  0  0  0  0  0  0  0
  -11.7001  -17.2855   24.2789 N   0  0  0  0  0  0  0  0  0  0  0  0
   -7.6222  -16.1395   23.9885 N   0  0  0  0  0  0  0  0  0  0  0  0
  -11.4501  -17.4471   26.6320 N   0  0  0  0  0  0  0  0  0  0  0  0
   -9.9227  -16.5116   23.0857 O   0  0  0  0  0  0  0  0  0  0  0  0
   -3.2085  -14.3649   17.9767 O   0  5  0  0  0  0  0  0  0  0  0  0
   -2.3478   -9.8333   18.4012 O   0  0  0  0  0  0  0  0  0  0  0  0
   -4.9971  -13.2129   19.4183 O   0  0  0  0  0  0  0  0  0  0  0  0
   -3.6744  -11.8833   17.6390 O   0  0  0  0  0  0  0  0  0  0  0  0
   -4.4763   -9.5187   16.9651 O   0  5  0  0  0  0  0  0  0  0  0  0
   -2.5121  -12.6659   19.7962 O   0  0  0  0  0  0  0  0  0  0  0  0
   -4.6598  -10.3129   19.3990 O   0  0  0  0  0  0  0  0  0  0  0  0
   -6.5879  -16.9599   21.8735 S   0  0  0  0  0  0  0  0  0  0  0  0
   -3.5332  -13.0082   18.7795 P   0  0  2  0  0  0  0  0  0  0  0  0
   -3.8309  -10.3300   18.0213 P   0  0  2  0  0  0  0  0  0  0  0  0
  2 16  2  0  0  0  0
  2  3  1  0  0  0  0
  2 13  1  0  0  0  0
  3  8  2  0  0  0  0
  3  4  1  0  0  0  0
  4 14  1  0  0  0  0
  5  1  1  1  0  0  0
  5 14  1  0  0  0  0
  5 10  1  0  0  0  0
  6  7  1  0  0  0  0
  7 13  1  0  0  0  0
  7 15  2  0  0  0  0
  8 15  1  0  0  0  0
  9 14  1  0  0  0  0
  9 24  1  0  0  0  0
 10 24  1  0  0  0  0
 10 11  1  6  0  0  0
 11 12  1  0  0  0  0
 12 19  1  0  0  0  0
 17 25  1  0  0  0  0
 19 25  1  0  0  0  0
 20 26  1  0  0  0  0
 21 26  1  0  0  0  0
 22 25  2  0  0  0  0
 23 26  2  0  0  0  0
 25 20  1  6  0  0  0
 26 18  1  1  0  0  0
M  CHG  2  17  -1  21  -1
M  END
>  <CHROM.1>
-16.96998439,116.50222218,179.42061720,100.33316808,-171.68746799,-172.76412289
71.14603847,78.19899479,-6.71555707,-14.38079852,21.54537901,2.38561285,-0.54594095
2.77938774

>  <Name>
ligand

>  <RI>
0

>  <Rbt.Current_Directory>
/home/itssahil/PROJECTS/Mol_Feturizer/New_Systems/rnas/3D2X

>  <Rbt.Executable>
rbdock ($Id: //depot/dev/client3/rdock/2013.1/src/exe/rbdock.cxx#4 $)

>  <Rbt.Library>
libRbt.so (2013.1, Build901 2013/11/27)

>  <Rbt.Parameter_File>
/export/apps/rDock/src/rDock_2013.1_src/data/scripts/dock_solv.prm

>  <Rbt.Receptor>
prm/pocket_docking_2.prm

>  <SCORE>
-19.203

>  <SCORE.INTER>
-18.2072

>  <SCORE.INTER.CONST>
1

>  <SCORE.INTER.POLAR>
0

>  <SCORE.INTER.ROT>
8

>  <SCORE.INTER.SOLV>
10.5485

>  <SCORE.INTER.VDW>
-24.5876

>  <SCORE.INTER.norm>
-0.700276

>  <SCORE.INTRA>
-0.99583

>  <SCORE.INTRA.DIHEDRAL>
-1.32746

>  <SCORE.INTRA.DIHEDRAL.0>
7.88077

>  <SCORE.INTRA.POLAR>
0

>  <SCORE.INTRA.POLAR.0>
0

>  <SCORE.INTRA.REPUL>
0

>  <SCORE.INTRA.REPUL.0>
0

>  <SCORE.INTRA.SOLV>
-0.439268

>  <SCORE.INTRA.SOLV.lig_0>
-63.2542

>  <SCORE.INTRA.VDW>
-0.112463

>  <SCORE.INTRA.VDW.0>
-3.15072

>  <SCORE.INTRA.norm>
-0.0383011

>  <SCORE.RESTR>
0

>  <SCORE.RESTR.CAVITY>
0

>  <SCORE.RESTR.norm>
0

>  <SCORE.SYSTEM>
0

>  <SCORE.SYSTEM.CONST>
0

>  <SCORE.SYSTEM.DIHEDRAL>
0

>  <SCORE.SYSTEM.SOLV>
0

>  <SCORE.SYSTEM.norm>
0

>  <SCORE.heavy>
26

>  <SCORE.norm>
-0.738577

>  <RMSD>
1.742

$$$$
ligand
 OpenBabel11021811473D
libRbt.so/2013.1/901 2013/11/27
 26 27  0  0  0  0  0  0  0  0999 V2000
   -8.6021  -13.9940   23.2712 C   0  0  0  0  0  0  0  0  0  0  0  0
   -9.7065  -16.7596   26.5270 C   0  0  0  0  0  0  0  0  0  0  0  0
   -9.1933  -16.6742   25.2370 C   0  0  0  0  0  0  0  0  0  0  0  0
   -7.7494  -16.2689   24.9314 C   0  0  0  0  0  0  0  0  0  0  0  0
   -7.8853  -15.2249   22.7084 C   0  0  1  0  0  0  0  0  0  0  0  0
  -13.2555  -17.9419   25.7925 C   0  0  0  0  0  0  0  0  0  0  0  0
  -11.8107  -17.4786   25.6003 C   0  0  0  0  0  0  0  0  0  0  0  0
  -10.0350  -16.9972   24.1774 C   0  0  0  0  0  0  0  0  0  0  0  0
   -6.8648  -17.2523   22.8856 C   0  0  0  0  0  0  0  0  0  0  0  0
   -7.5764  -15.3468   21.3590 C   0  0  2  0  0  0  0  0  0  0  0  0
   -7.8237  -14.3978   20.1835 C   0  0  0  0  0  0  0  0  0  0  0  0
   -6.5522  -13.6877   19.7130 C   0  0  0  0  0  0  0  0  0  0  0  0
  -11.0285  -17.1659   26.7200 N   0  0  0  0  0  0  0  0  0  0  0  0
   -7.5021  -16.2441   23.4825 N   0  0  0  0  0  0  0  0  0  0  0  0
  -11.2831  -17.3807   24.3716 N   0  0  0  0  0  0  0  0  0  0  0  0
   -9.0010  -16.4827   27.4972 O   0  0  0  0  0  0  0  0  0  0  0  0
   -6.1883  -10.5285   17.5360 O   0  5  0  0  0  0  0  0  0  0  0  0
   -3.2735  -10.0696   17.4107 O   0  0  0  0  0  0  0  0  0  0  0  0
   -6.8260  -12.7428   18.6738 O   0  0  0  0  0  0  0  0  0  0  0  0
   -4.4474  -11.7624   18.9273 O   0  0  0  0  0  0  0  0  0  0  0  0
   -2.0839  -10.9146   19.5468 O   0  5  0  0  0  0  0  0  0  0  0  0
   -5.2018  -12.7587   16.6790 O   0  0  0  0  0  0  0  0  0  0  0  0
   -2.4224  -12.4839   17.5440 O   0  0  0  0  0  0  0  0  0  0  0  0
   -6.8202  -16.9051   21.1773 S   0  0  0  0  0  0  0  0  0  0  0  0
   -5.6394  -12.0030   17.8751 P   0  0  2  0  0  0  0  0  0  0  0  0
   -2.9953  -11.2768   18.4384 P   0  0  2  0  0  0  0  0  0  0  0  0
  2 16  2  0  0  0  0
  2  3  1  0  0  0  0
  2 13  1  0  0  0  0
  3  8  2  0  0  0  0
  3  4  1  0  0  0  0
  4 14  1  0  0  0  0
  5  1  1  1  0  0  0
  5 14  1  0  0  0  0
  5 10  1  0  0  0  0
  6  7  1  0  0  0  0
  7 13  1  0  0  0  0
  7 15  2  0  0  0  0
  8 15  1  0  0  0  0
  9 14  1  0  0  0  0
  9 24  1  0  0  0  0
 10 24  1  0  0  0  0
 10 11  1  6  0  0  0
 11 12  1  0  0  0  0
 12 19  1  0  0  0  0
 17 25  1  0  0  0  0
 19 25  1  0  0  0  0
 20 26  1  0  0  0  0
 21 26  1  0  0  0  0
 22 25  2  0  0  0  0
 23 26  2  0  0  0  0
 25 20  1  1  0  0  0
 26 18  1  6  0  0  0
M  CHG  2  17  -1  21  -1
M  END
>  <CHROM.1>
-179.00369081,105.60992966,-176.15973644,79.34157121,-171.97347524,-78.61380436
-146.02263926,46.35293528,-6.97513746,-14.35015090,21.36815567,2.19835872
0.32981823,1.98108808

>  <Name>
ligand

>  <RI>
0

>  <Rbt.Current_Directory>
/home/itssahil/PROJECTS/Mol_Feturizer/New_Systems/rnas/3D2X

>  <Rbt.Executable>
rbdock ($Id: //depot/dev/client3/rdock/2013.1/src/exe/rbdock.cxx#4 $)

>  <Rbt.Library>
libRbt.so (2013.1, Build901 2013/11/27)

>  <Rbt.Parameter_File>
/export/apps/rDock/src/rDock_2013.1_src/data/scripts/dock_solv.prm

>  <Rbt.Receptor>
prm/pocket_docking_3.prm

>  <SCORE>
-22.8309

>  <SCORE.INTER>
-21.6634

>  <SCORE.INTER.CONST>
1

>  <SCORE.INTER.POLAR>
0

>  <SCORE.INTER.ROT>
8

>  <SCORE.INTER.SOLV>
8.58614

>  <SCORE.INTER.VDW>
-26.2376

>  <SCORE.INTER.norm>
-0.833207

>  <SCORE.INTRA>
-1.16748

>  <SCORE.INTRA.DIHEDRAL>
-0.703335

>  <SCORE.INTRA.DIHEDRAL.0>
7.88077

>  <SCORE.INTRA.POLAR>
0

>  <SCORE.INTRA.POLAR.0>
0

>  <SCORE.INTRA.REPUL>
0

>  <SCORE.INTRA.REPUL.0>
0

>  <SCORE.INTRA.SOLV>
-1.45546

>  <SCORE.INTRA.SOLV.lig_0>
-63.2542

>  <SCORE.INTRA.VDW>
-0.0880844

>  <SCORE.INTRA.VDW.0>
-3.15072

>  <SCORE.INTRA.norm>
-0.0449032

>  <SCORE.RESTR>
0

>  <SCORE.RESTR.CAVITY>
0

>  <SCORE.RESTR.norm>
0

>  <SCORE.SYSTEM>
0

>  <SCORE.SYSTEM.CONST>
0

>  <SCORE.SYSTEM.DIHEDRAL>
0

>  <SCORE.SYSTEM.SOLV>
0

>  <SCORE.SYSTEM.norm>
0

>  <SCORE.heavy>
26

>  <SCORE.norm>
-0.87811

>  <RMSD>
1.743

$$$$
ligand
 OpenBabel11021811473D
libRbt.so/2013.1/901 2013/11/27
 26 27  0  0  0  0  0  0  0  0999 V2000
   -8.6651  -14.1442   23.4071 C   0  0  0  0  0  0  0  0  0  0  0  0
   -9.7513  -16.9640   26.6964 C   0  0  0  0  0  0  0  0  0  0  0  0
   -9.2105  -16.7118   25.4400 C   0  0  0  0  0  0  0  0  0  0  0  0
   -7.7595  -16.2771   25.2207 C   0  0  0  0  0  0  0  0  0  0  0  0
   -7.8182  -15.3353   22.9492 C   0  0  1  0  0  0  0  0  0  0  0  0
  -13.2865  -18.0211   25.7385 C   0  0  0  0  0  0  0  0  0  0  0  0
  -11.8369  -17.5439   25.6392 C   0  0  0  0  0  0  0  0  0  0  0  0
  -10.0301  -16.8879   24.3297 C   0  0  0  0  0  0  0  0  0  0  0  0
   -6.6603  -17.2665   23.2848 C   0  0  0  0  0  0  0  0  0  0  0  0
   -7.4066  -15.4852   21.6303 C   0  0  2  0  0  0  0  0  0  0  0  0
   -7.6426  -14.6058   20.3996 C   0  0  0  0  0  0  0  0  0  0  0  0
   -6.3740  -13.8942   19.9234 C   0  0  0  0  0  0  0  0  0  0  0  0
  -11.0780  -17.3855   26.8065 N   0  0  0  0  0  0  0  0  0  0  0  0
   -7.4135  -16.2896   23.7920 N   0  0  0  0  0  0  0  0  0  0  0  0
  -11.2830  -17.2873   24.4454 N   0  0  0  0  0  0  0  0  0  0  0  0
   -9.0660  -16.8211   27.7092 O   0  0  0  0  0  0  0  0  0  0  0  0
   -3.7025  -12.3773   19.7046 O   0  5  0  0  0  0  0  0  0  0  0  0
   -3.5551   -9.9999   18.2440 O   0  0  0  0  0  0  0  0  0  0  0  0
   -5.9338  -12.9091   20.8633 O   0  0  0  0  0  0  0  0  0  0  0  0
   -5.7288  -10.9036   19.2449 O   0  0  0  0  0  0  0  0  0  0  0  0
   -5.8265   -9.0952   17.3986 O   0  5  0  0  0  0  0  0  0  0  0  0
   -4.6061  -10.8181   21.5576 O   0  0  0  0  0  0  0  0  0  0  0  0
   -4.9929   -8.5092   19.7545 O   0  0  0  0  0  0  0  0  0  0  0  0
   -6.5223  -16.9843   21.5696 S   0  0  0  0  0  0  0  0  0  0  0  0
   -4.9717  -11.6955   20.4219 P   0  0  2  0  0  0  0  0  0  0  0  0
   -5.0782   -9.5964   18.5730 P   0  0  2  0  0  0  0  0  0  0  0  0
  2 16  2  0  0  0  0
  2  3  1  0  0  0  0
  2 13  1  0  0  0  0
  3  8  2  0  0  0  0
  3  4  1  0  0  0  0
  4 14  1  0  0  0  0
  5  1  1  1  0  0  0
  5 14  1  0  0  0  0
  5 10  1  0  0  0  0
  6  7  1  0  0  0  0
  7 13  1  0  0  0  0
  7 15  2  0  0  0  0
  8 15  1  0  0  0  0
  9 14  1  0  0  0  0
  9 24  1  0  0  0  0
 10 24  1  0  0  0  0
 10 11  1  6  0  0  0
 11 12  1  0  0  0  0
 12 19  1  0  0  0  0
 17 25  1  0  0  0  0
 19 25  1  0  0  0  0
 20 26  1  0  0  0  0
 21 26  1  0  0  0  0
 22 25  2  0  0  0  0
 23 26  2  0  0  0  0
 25 20  1  6  0  0  0
 26 18  1  6  0  0  0
M  CHG  2  17  -1  21  -1
M  END
>  <CHROM.1>
171.08537205,109.77423097,-67.71598621,76.28492467,-158.58107035,-69.37513143
-53.73515101,47.71505201,-7.18794314,-14.01068500,22.08626080,2.23855923
-0.65319098,2.84052228

>  <Name>
ligand

>  <RI>
0

>  <Rbt.Current_Directory>
/home/itssahil/PROJECTS/Mol_Feturizer/New_Systems/rnas/3D2X

>  <Rbt.Executable>
rbdock ($Id: //depot/dev/client3/rdock/2013.1/src/exe/rbdock.cxx#4 $)

>  <Rbt.Library>
libRbt.so (2013.1, Build901 2013/11/27)

>  <Rbt.Parameter_File>
/export/apps/rDock/src/rDock_2013.1_src/data/scripts/dock_solv.prm

>  <Rbt.Receptor>
prm/pocket_docking_3.prm

>  <SCORE>
-20.8573

>  <SCORE.INTER>
-19.9756

>  <SCORE.INTER.CONST>
1

>  <SCORE.INTER.POLAR>
0

>  <SCORE.INTER.ROT>
8

>  <SCORE.INTER.SOLV>
13.2636

>  <SCORE.INTER.VDW>
-26.6716

>  <SCORE.INTER.norm>
-0.768291

>  <SCORE.INTRA>
-0.883099

>  <SCORE.INTRA.DIHEDRAL>
-0.228562

>  <SCORE.INTRA.DIHEDRAL.0>
7.88077

>  <SCORE.INTRA.POLAR>
0

>  <SCORE.INTRA.POLAR.0>
0

>  <SCORE.INTRA.REPUL>
0

>  <SCORE.INTRA.REPUL.0>
0

>  <SCORE.INTRA.SOLV>
-1.29019

>  <SCORE.INTRA.SOLV.lig_0>
-63.2542

>  <SCORE.INTRA.VDW>
-0.123723

>  <SCORE.INTRA.VDW.0>
-3.15072

>  <SCORE.INTRA.norm>
-0.0339653

>  <SCORE.RESTR>
0.00136219

>  <SCORE.RESTR.CAVITY>
0.00136219

>  <SCORE.RESTR.norm>
5.2392e-05

>  <SCORE.SYSTEM>
0

>  <SCORE.SYSTEM.CONST>
0

>  <SCORE.SYSTEM.DIHEDRAL>
0

>  <SCORE.SYSTEM.SOLV>
0

>  <SCORE.SYSTEM.norm>
0

>  <SCORE.heavy>
26

>  <SCORE.norm>
-0.802204

>  <RMSD>
1.758

$$$$
ligand
 OpenBabel11021811473D
libRbt.so/2013.1/901 2013/11/27
 26 27  0  0  0  0  0  0  0  0999 V2000
   -7.7667  -13.6064   23.8609 C   0  0  0  0  0  0  0  0  0  0  0  0
   -9.9923  -16.9776   26.5813 C   0  0  0  0  0  0  0  0  0  0  0  0
   -9.3565  -16.6773   25.3812 C   0  0  0  0  0  0  0  0  0  0  0  0
   -7.9147  -16.1705   25.2971 C   0  0  0  0  0  0  0  0  0  0  0  0
   -7.3892  -14.9490   23.2278 C   0  0  1  0  0  0  0  0  0  0  0  0
  -13.3744  -18.1830   25.3003 C   0  0  0  0  0  0  0  0  0  0  0  0
  -11.9465  -17.6361   25.3361 C   0  0  0  0  0  0  0  0  0  0  0  0
  -10.0662  -16.8716   24.2005 C   0  0  0  0  0  0  0  0  0  0  0  0
   -7.0825  -17.2047   23.2544 C   0  0  0  0  0  0  0  0  0  0  0  0
   -6.9357  -15.0461   21.9177 C   0  0  2  0  0  0  0  0  0  0  0  0
   -6.7002  -13.9695   20.8552 C   0  0  0  0  0  0  0  0  0  0  0  0
   -7.4683  -14.2340   19.5581 C   0  0  0  0  0  0  0  0  0  0  0  0
  -11.3014  -17.4633   26.5679 N   0  0  0  0  0  0  0  0  0  0  0  0
   -7.4590  -16.1007   23.9012 N   0  0  0  0  0  0  0  0  0  0  0  0
  -11.3035  -17.3319   24.1996 N   0  0  0  0  0  0  0  0  0  0  0  0
   -9.4060  -16.8210   27.6526 O   0  0  0  0  0  0  0  0  0  0  0  0
   -6.0105  -11.8522   16.7918 O   0  5  0  0  0  0  0  0  0  0  0  0
   -2.6874  -12.2033   18.0041 O   0  0  0  0  0  0  0  0  0  0  0  0
   -7.2530  -13.1990   18.5937 O   0  0  0  0  0  0  0  0  0  0  0  0
   -4.9877  -12.0677   19.1149 O   0  0  0  0  0  0  0  0  0  0  0  0
   -4.0197   -9.9873   17.9216 O   0  5  0  0  0  0  0  0  0  0  0  0
   -5.0795  -14.1307   17.5812 O   0  0  0  0  0  0  0  0  0  0  0  0
   -3.0079  -10.8106   20.1322 O   0  0  0  0  0  0  0  0  0  0  0  0
   -6.6791  -16.7431   21.6219 S   0  0  0  0  0  0  0  0  0  0  0  0
   -5.7888  -12.8981   17.9949 P   0  0  2  0  0  0  0  0  0  0  0  0
   -3.7006  -11.1851   18.7303 P   0  0  2  0  0  0  0  0  0  0  0  0
  2 16  2  0  0  0  0
  2  3  1  0  0  0  0
  2 13  1  0  0  0  0
  3  8  2  0  0  0  0
  3  4  1  0  0  0  0
  4 14  1  0  0  0  0
  5  1  1  1  0  0  0
  5 14  1  0  0  0  0
  5 10  1  0  0  0  0
  6  7  1  0  0  0  0
  7 13  1  0  0  0  0
  7 15  2  0  0  0  0
  8 15  1  0  0  0  0
  9 14  1  0  0  0  0
  9 24  1  0  0  0  0
 10 24  1  0  0  0  0
 10 11  1  6  0  0  0
 11 12  1  0  0  0  0
 12 19  1  0  0  0  0
 17 25  1  0  0  0  0
 19 25  1  0  0  0  0
 20 26  1  0  0  0  0
 21 26  1  0  0  0  0
 22 25  2  0  0  0  0
 23 26  2  0  0  0  0
 25 20  1  1  0  0  0
 26 18  1  6  0  0  0
M  CHG  2  17  -1  21  -1
M  END
>  <CHROM.1>
172.85640280,-124.29157685,178.75342732,102.42775557,62.37291729,-47.84203622
170.99091627,-55.83739469,-7.11450418,-14.51204945,21.58392765,-2.29390287
-0.59609004,-1.39844739

>  <Name>
ligand

>  <RI>
0

>  <Rbt.Current_Directory>
/home/itssahil/PROJECTS/Mol_Feturizer/New_Systems/rnas/3D2X

>  <Rbt.Executable>
rbdock ($Id: //depot/dev/client3/rdock/2013.1/src/exe/rbdock.cxx#4 $)

>  <Rbt.Library>
libRbt.so (2013.1, Build901 2013/11/27)

>  <Rbt.Parameter_File>
/export/apps/rDock/src/rDock_2013.1_src/data/scripts/dock_solv.prm

>  <Rbt.Receptor>
prm/pocket_docking_3.prm

>  <SCORE>
-22.5027

>  <SCORE.INTER>
-21.2851

>  <SCORE.INTER.CONST>
1

>  <SCORE.INTER.POLAR>
0

>  <SCORE.INTER.ROT>
8

>  <SCORE.INTER.SOLV>
8.85224

>  <SCORE.INTER.VDW>
-26.0742

>  <SCORE.INTER.norm>
-0.818658

>  <SCORE.INTRA>
-1.21763

>  <SCORE.INTRA.DIHEDRAL>
-1.79313

>  <SCORE.INTRA.DIHEDRAL.0>
7.88077

>  <SCORE.INTRA.POLAR>
0

>  <SCORE.INTRA.POLAR.0>
0

>  <SCORE.INTRA.REPUL>
0

>  <SCORE.INTRA.REPUL.0>
0

>  <SCORE.INTRA.SOLV>
-0.900167

>  <SCORE.INTRA.SOLV.lig_0>
-63.2542

>  <SCORE.INTRA.VDW>
0.129014

>  <SCORE.INTRA.VDW.0>
-3.15072

>  <SCORE.INTRA.norm>
-0.0468321

>  <SCORE.RESTR>
0

>  <SCORE.RESTR.CAVITY>
0

>  <SCORE.RESTR.norm>
0

>  <SCORE.SYSTEM>
0

>  <SCORE.SYSTEM.CONST>
0

>  <SCORE.SYSTEM.DIHEDRAL>
0

>  <SCORE.SYSTEM.SOLV>
0

>  <SCORE.SYSTEM.norm>
0

>  <SCORE.heavy>
26

>  <SCORE.norm>
-0.86549

>  <RMSD>
1.794

$$$$
ligand
 OpenBabel11021811473D
libRbt.so/2013.1/901 2013/11/27
 26 27  0  0  0  0  0  0  0  0999 V2000
   -7.6730  -17.1312   22.0760 C   0  0  0  0  0  0  0  0  0  0  0  0
  -10.2509  -16.6165   26.3904 C   0  0  0  0  0  0  0  0  0  0  0  0
   -9.6303  -16.7999   25.1592 C   0  0  0  0  0  0  0  0  0  0  0  0
   -8.1829  -16.3896   24.8776 C   0  0  0  0  0  0  0  0  0  0  0  0
   -7.8819  -15.6866   22.5398 C   0  0  1  0  0  0  0  0  0  0  0  0
  -13.6703  -18.1480   25.6867 C   0  0  0  0  0  0  0  0  0  0  0  0
  -12.2343  -17.6553   25.5013 C   0  0  0  0  0  0  0  0  0  0  0  0
  -10.3617  -17.4085   24.1442 C   0  0  0  0  0  0  0  0  0  0  0  0
   -8.3073  -14.0842   24.1000 C   0  0  0  0  0  0  0  0  0  0  0  0
   -7.8542  -14.6155   21.6546 C   0  0  2  0  0  0  0  0  0  0  0  0
   -7.6418  -14.5716   20.1392 C   0  0  0  0  0  0  0  0  0  0  0  0
   -6.1704  -14.4172   19.7477 C   0  0  0  0  0  0  0  0  0  0  0  0
  -11.5670  -17.0464   26.5725 N   0  0  0  0  0  0  0  0  0  0  0  0
   -8.1177  -15.3737   23.8170 N   0  0  0  0  0  0  0  0  0  0  0  0
  -11.6053  -17.8114   24.3276 N   0  0  0  0  0  0  0  0  0  0  0  0
   -9.6453  -16.0816   27.3193 O   0  0  0  0  0  0  0  0  0  0  0  0
   -3.1602  -14.3718   20.0765 O   0  5  0  0  0  0  0  0  0  0  0  0
   -1.4150  -12.3305   18.6077 O   0  0  0  0  0  0  0  0  0  0  0  0
   -5.5067  -13.4391   20.5543 O   0  0  0  0  0  0  0  0  0  0  0  0
   -3.9647  -12.3118   18.8121 O   0  0  0  0  0  0  0  0  0  0  0  0
   -2.8227  -10.9455   16.9367 O   0  5  0  0  0  0  0  0  0  0  0  0
   -3.4339  -12.1233   21.3220 O   0  0  0  0  0  0  0  0  0  0  0  0
   -2.6272  -10.2110   19.3883 O   0  0  0  0  0  0  0  0  0  0  0  0
   -8.0882  -13.1860   22.6215 S   0  0  0  0  0  0  0  0  0  0  0  0
   -3.9842  -13.0020   20.2644 P   0  0  2  0  0  0  0  0  0  0  0  0
   -2.7149  -11.4216   18.3338 P   0  0  2  0  0  0  0  0  0  0  0  0
  2 16  2  0  0  0  0
  2  3  1  0  0  0  0
  2 13  1  0  0  0  0
  3  8  2  0  0  0  0
  3  4  1  0  0  0  0
  4 14  1  0  0  0  0
  5  1  1  6  0  0  0
  5 14  1  0  0  0  0
  5 10  1  0  0  0  0
  6  7  1  0  0  0  0
  7 13  1  0  0  0  0
  7 15  2  0  0  0  0
  8 15  1  0  0  0  0
  9 14  1  0  0  0  0
  9 24  1  0  0  0  0
 10 24  1  0  0  0  0
 10 11  1  1  0  0  0
 11 12  1  0  0  0  0
 12 19  1  0  0  0  0
 17 25  1  0  0  0  0
 19 25  1  0  0  0  0
 20 26  1  0  0  0  0
 21 26  1  0  0  0  0
 22 25  2  0  0  0  0
 23 26  2  0  0  0  0
 25 20  1  6  0  0  0
 26 18  1  1  0  0  0
M  CHG  2  17  -1  21  -1
M  END
>  <CHROM.1>
-118.29885386,-90.37597556,-43.70685659,-96.35820992,-174.92443074,-83.60170705
-47.55886575,50.74443095,-6.79274111,-14.35896411,21.98160178,2.68317287
0.69156647,1.32156551

>  <Name>
ligand

>  <RI>
0

>  <Rbt.Current_Directory>
/home/itssahil/PROJECTS/Mol_Feturizer/New_Systems/rnas/3D2X

>  <Rbt.Executable>
rbdock ($Id: //depot/dev/client3/rdock/2013.1/src/exe/rbdock.cxx#4 $)

>  <Rbt.Library>
libRbt.so (2013.1, Build901 2013/11/27)

>  <Rbt.Parameter_File>
/export/apps/rDock/src/rDock_2013.1_src/data/scripts/dock_solv.prm

>  <Rbt.Receptor>
prm/pocket_docking_2.prm

>  <SCORE>
-19.2678

>  <SCORE.INTER>
-17.2337

>  <SCORE.INTER.CONST>
1

>  <SCORE.INTER.POLAR>
0

>  <SCORE.INTER.ROT>
8

>  <SCORE.INTER.SOLV>
11.917

>  <SCORE.INTER.VDW>
-24.3948

>  <SCORE.INTER.norm>
-0.662836

>  <SCORE.INTRA>
-2.03414

>  <SCORE.INTRA.DIHEDRAL>
-1.24465

>  <SCORE.INTRA.DIHEDRAL.0>
7.88077

>  <SCORE.INTRA.POLAR>
0

>  <SCORE.INTRA.POLAR.0>
0

>  <SCORE.INTRA.REPUL>
0

>  <SCORE.INTRA.REPUL.0>
0

>  <SCORE.INTRA.SOLV>
-1.37459

>  <SCORE.INTRA.SOLV.lig_0>
-63.2542

>  <SCORE.INTRA.VDW>
-0.724518

>  <SCORE.INTRA.VDW.0>
-3.15072

>  <SCORE.INTRA.norm>
-0.0782361

>  <SCORE.RESTR>
3.82453e-05

>  <SCORE.RESTR.CAVITY>
3.82453e-05

>  <SCORE.RESTR.norm>
1.47097e-06

>  <SCORE.SYSTEM>
0

>  <SCORE.SYSTEM.CONST>
0

>  <SCORE.SYSTEM.DIHEDRAL>
0

>  <SCORE.SYSTEM.SOLV>
0

>  <SCORE.SYSTEM.norm>
0

>  <SCORE.heavy>
26

>  <SCORE.norm>
-0.74107

>  <RMSD>
1.808

$$$$
ligand
 OpenBabel11021811473D
libRbt.so/2013.1/901 2013/11/27
 26 27  0  0  0  0  0  0  0  0999 V2000
   -6.9437  -14.0102   23.6495 C   0  0  0  0  0  0  0  0  0  0  0  0
  -10.2339  -17.1128   26.5104 C   0  0  0  0  0  0  0  0  0  0  0  0
   -9.7484  -16.7082   25.2713 C   0  0  0  0  0  0  0  0  0  0  0  0
   -8.3216  -16.1993   25.0524 C   0  0  0  0  0  0  0  0  0  0  0  0
   -7.3049  -15.3413   22.9836 C   0  0  1  0  0  0  0  0  0  0  0  0
  -13.7650  -18.1913   25.5613 C   0  0  0  0  0  0  0  0  0  0  0  0
  -12.3366  -17.6531   25.4663 C   0  0  0  0  0  0  0  0  0  0  0  0
  -10.6021  -16.7949   24.1762 C   0  0  0  0  0  0  0  0  0  0  0  0
   -8.1688  -17.4476   22.9660 C   0  0  0  0  0  0  0  0  0  0  0  0
   -6.9926  -15.6118   21.6566 C   0  0  2  0  0  0  0  0  0  0  0  0
   -6.2751  -14.7652   20.6021 C   0  0  0  0  0  0  0  0  0  0  0  0
   -6.9326  -13.4003   20.3851 C   0  0  0  0  0  0  0  0  0  0  0  0
  -11.5410  -17.5923   26.6181 N   0  0  0  0  0  0  0  0  0  0  0  0
   -7.9260  -16.3238   23.6421 N   0  0  0  0  0  0  0  0  0  0  0  0
  -11.8359  -17.2504   24.2895 N   0  0  0  0  0  0  0  0  0  0  0  0
   -9.5169  -17.0536   27.5094 O   0  0  0  0  0  0  0  0  0  0  0  0
   -6.0189  -11.9698   17.5513 O   0  5  0  0  0  0  0  0  0  0  0  0
   -1.8431  -12.7198   19.1049 O   0  0  0  0  0  0  0  0  0  0  0  0
   -5.9667  -12.3877   20.0864 O   0  0  0  0  0  0  0  0  0  0  0  0
   -3.9558  -11.2947   18.8843 O   0  0  0  0  0  0  0  0  0  0  0  0
   -1.8315  -10.2747   19.9498 O   0  5  0  0  0  0  0  0  0  0  0  0
   -4.4699  -13.7907   18.5345 O   0  0  0  0  0  0  0  0  0  0  0  0
   -3.1801  -12.0701   21.1933 O   0  0  0  0  0  0  0  0  0  0  0  0
   -7.6278  -17.1996   21.3269 S   0  0  0  0  0  0  0  0  0  0  0  0
   -5.0645  -12.4522   18.7541 P   0  0  2  0  0  0  0  0  0  0  0  0
   -2.6431  -11.5018   19.7884 P   0  0  2  0  0  0  0  0  0  0  0  0
  2 16  2  0  0  0  0
  2  3  1  0  0  0  0
  2 13  1  0  0  0  0
  3  8  2  0  0  0  0
  3  4  1  0  0  0  0
  4 14  1  0  0  0  0
  5  1  1  1  0  0  0
  5 14  1  0  0  0  0
  5 10  1  0  0  0  0
  6  7  1  0  0  0  0
  7 13  1  0  0  0  0
  7 15  2  0  0  0  0
  8 15  1  0  0  0  0
  9 14  1  0  0  0  0
  9 24  1  0  0  0  0
 10 24  1  0  0  0  0
 10 11  1  6  0  0  0
 11 12  1  0  0  0  0
 12 19  1  0  0  0  0
 17 25  1  0  0  0  0
 19 25  1  0  0  0  0
 20 26  1  0  0  0  0
 21 26  1  0  0  0  0
 22 25  2  0  0  0  0
 23 26  2  0  0  0  0
 25 20  1  1  0  0  0
 26 18  1  6  0  0  0
M  CHG  2  17  -1  21  -1
M  END
>  <CHROM.1>
158.67965926,-55.90373211,145.75624265,134.84857602,63.54440486,-168.65000179
77.64273311,63.16655665,-6.92190632,-14.61678555,21.94667112,-2.49267838
-0.58913489,-1.47699177

>  <Name>
ligand

>  <RI>
0

>  <Rbt.Current_Directory>
/home/itssahil/PROJECTS/Mol_Feturizer/New_Systems/rnas/3D2X

>  <Rbt.Executable>
rbdock ($Id: //depot/dev/client3/rdock/2013.1/src/exe/rbdock.cxx#4 $)

>  <Rbt.Library>
libRbt.so (2013.1, Build901 2013/11/27)

>  <Rbt.Parameter_File>
/export/apps/rDock/src/rDock_2013.1_src/data/scripts/dock_solv.prm

>  <Rbt.Receptor>
prm/pocket_docking_2.prm

>  <SCORE>
-13.8023

>  <SCORE.INTER>
-16.0439

>  <SCORE.INTER.CONST>
1

>  <SCORE.INTER.POLAR>
0

>  <SCORE.INTER.ROT>
8

>  <SCORE.INTER.SOLV>
6.79054

>  <SCORE.INTER.VDW>
-21.8928

>  <SCORE.INTER.norm>
-0.617074

>  <SCORE.INTRA>
1.53063

>  <SCORE.INTRA.DIHEDRAL>
0.940429

>  <SCORE.INTRA.DIHEDRAL.0>
7.88077

>  <SCORE.INTRA.POLAR>
0

>  <SCORE.INTRA.POLAR.0>
0

>  <SCORE.INTRA.REPUL>
0

>  <SCORE.INTRA.REPUL.0>
0

>  <SCORE.INTRA.SOLV>
-0.127548

>  <SCORE.INTRA.SOLV.lig_0>
-63.2542

>  <SCORE.INTRA.VDW>
1.12419

>  <SCORE.INTRA.VDW.0>
-3.15072

>  <SCORE.INTRA.norm>
0.0588704

>  <SCORE.RESTR>
0.711011

>  <SCORE.RESTR.CAVITY>
0.711011

>  <SCORE.RESTR.norm>
0.0273466

>  <SCORE.SYSTEM>
0

>  <SCORE.SYSTEM.CONST>
0

>  <SCORE.SYSTEM.DIHEDRAL>
0

>  <SCORE.SYSTEM.SOLV>
0

>  <SCORE.SYSTEM.norm>
0

>  <SCORE.heavy>
26

>  <SCORE.norm>
-0.530857

>  <RMSD>
1.826

$$$$
ligand
 OpenBabel11021811473D
libRbt.so/2013.1/901 2013/11/27
 26 27  0  0  0  0  0  0  0  0999 V2000
   -7.0978  -17.0728   22.5646 C   0  0  0  0  0  0  0  0  0  0  0  0
   -9.9059  -16.9426   26.5523 C   0  0  0  0  0  0  0  0  0  0  0  0
   -9.3510  -16.5760   25.3306 C   0  0  0  0  0  0  0  0  0  0  0  0
   -7.9316  -16.0225   25.1839 C   0  0  0  0  0  0  0  0  0  0  0  0
   -7.4420  -15.6009   22.8105 C   0  0  1  0  0  0  0  0  0  0  0  0
  -13.3226  -18.1994   25.4211 C   0  0  0  0  0  0  0  0  0  0  0  0
  -11.9111  -17.6109   25.3966 C   0  0  0  0  0  0  0  0  0  0  0  0
  -10.1236  -16.7453   24.1861 C   0  0  0  0  0  0  0  0  0  0  0  0
   -8.1212  -13.8501   24.0977 C   0  0  0  0  0  0  0  0  0  0  0  0
   -7.3927  -14.6516   21.7967 C   0  0  2  0  0  0  0  0  0  0  0  0
   -7.0325  -14.7843   20.3148 C   0  0  0  0  0  0  0  0  0  0  0  0
   -7.1667  -13.4664   19.5484 C   0  0  0  0  0  0  0  0  0  0  0  0
  -11.1993  -17.4672   26.5949 N   0  0  0  0  0  0  0  0  0  0  0  0
   -7.8239  -15.1473   24.0077 N   0  0  0  0  0  0  0  0  0  0  0  0
  -11.3452  -17.2428   24.2381 N   0  0  0  0  0  0  0  0  0  0  0  0
   -9.2619  -16.8104   27.5932 O   0  0  0  0  0  0  0  0  0  0  0  0
   -4.4775  -14.1723   19.0823 O   0  5  0  0  0  0  0  0  0  0  0  0
   -3.9881   -9.4438   17.4042 O   0  0  0  0  0  0  0  0  0  0  0  0
   -6.2067  -12.4990   19.9846 O   0  0  0  0  0  0  0  0  0  0  0  0
   -4.1656  -11.6863   18.6219 O   0  0  0  0  0  0  0  0  0  0  0  0
   -5.5827   -9.6786   19.4276 O   0  5  0  0  0  0  0  0  0  0  0  0
   -3.8511  -12.5747   21.0154 O   0  0  0  0  0  0  0  0  0  0  0  0
   -3.0392   -9.7004   19.7716 O   0  0  0  0  0  0  0  0  0  0  0  0
   -7.8114  -13.1327   22.5388 S   0  0  0  0  0  0  0  0  0  0  0  0
   -4.6273  -12.7214   19.7627 P   0  0  2  0  0  0  0  0  0  0  0  0
   -4.2897  -10.0992   18.8430 P   0  0  2  0  0  0  0  0  0  0  0  0
  2 16  2  0  0  0  0
  2  3  1  0  0  0  0
  2 13  1  0  0  0  0
  3  8  2  0  0  0  0
  3  4  1  0  0  0  0
  4 14  1  0  0  0  0
  5  1  1  6  0  0  0
  5 14  1  0  0  0  0
  5 10  1  0  0  0  0
  6  7  1  0  0  0  0
  7 13  1  0  0  0  0
  7 15  2  0  0  0  0
  8 15  1  0  0  0  0
  9 14  1  0  0  0  0
  9 24  1  0  0  0  0
 10 24  1  0  0  0  0
 10 11  1  1  0  0  0
 11 12  1  0  0  0  0
 12 19  1  0  0  0  0
 17 25  1  0  0  0  0
 19 25  1  0  0  0  0
 20 26  1  0  0  0  0
 21 26  1  0  0  0  0
 22 25  2  0  0  0  0
 23 26  2  0  0  0  0
 25 20  1  6  0  0  0
 26 18  1  6  0  0  0
M  CHG  2  17  -1  21  -1
M  END
>  <CHROM.1>
-152.44469272,177.74853628,66.56446777,-92.57581900,65.39824566,174.37402969
-2.66562645,-169.97407819,-7.11537969,-13.96187757,22.01242456,2.61249761
0.85385727,1.41349433

>  <Name>
ligand

>  <RI>
0

>  <Rbt.Current_Directory>
/home/itssahil/PROJECTS/Mol_Feturizer/New_Systems/rnas/3D2X

>  <Rbt.Executable>
rbdock ($Id: //depot/dev/client3/rdock/2013.1/src/exe/rbdock.cxx#4 $)

>  <Rbt.Library>
libRbt.so (2013.1, Build901 2013/11/27)

>  <Rbt.Parameter_File>
/export/apps/rDock/src/rDock_2013.1_src/data/scripts/dock_solv.prm

>  <Rbt.Receptor>
prm/pocket_docking_2.prm

>  <SCORE>
-19.6131

>  <SCORE.INTER>
-20.3605

>  <SCORE.INTER.CONST>
1

>  <SCORE.INTER.POLAR>
0

>  <SCORE.INTER.ROT>
8

>  <SCORE.INTER.SOLV>
7.21587

>  <SCORE.INTER.VDW>
-24.9123

>  <SCORE.INTER.norm>
-0.783095

>  <SCORE.INTRA>
0.747414

>  <SCORE.INTRA.DIHEDRAL>
-0.423335

>  <SCORE.INTRA.DIHEDRAL.0>
7.88077

>  <SCORE.INTRA.POLAR>
0

>  <SCORE.INTRA.POLAR.0>
0

>  <SCORE.INTRA.REPUL>
0

>  <SCORE.INTRA.REPUL.0>
0

>  <SCORE.INTRA.SOLV>
0.647683

>  <SCORE.INTRA.SOLV.lig_0>
-63.2542

>  <SCORE.INTRA.VDW>
0.63524

>  <SCORE.INTRA.VDW.0>
-3.15072

>  <SCORE.INTRA.norm>
0.0287467

>  <SCORE.RESTR>
0

>  <SCORE.RESTR.CAVITY>
0

>  <SCORE.RESTR.norm>
0

>  <SCORE.SYSTEM>
0

>  <SCORE.SYSTEM.CONST>
0

>  <SCORE.SYSTEM.DIHEDRAL>
0

>  <SCORE.SYSTEM.SOLV>
0

>  <SCORE.SYSTEM.norm>
0

>  <SCORE.heavy>
26

>  <SCORE.norm>
-0.754349

>  <RMSD>
1.838

$$$$
ligand
 OpenBabel11021811473D
libRbt.so/2013.1/901 2013/11/27
 26 27  0  0  0  0  0  0  0  0999 V2000
   -7.4476  -16.7865   21.6407 C   0  0  0  0  0  0  0  0  0  0  0  0
   -9.9244  -16.6626   26.2326 C   0  0  0  0  0  0  0  0  0  0  0  0
   -9.4519  -16.8322   24.9355 C   0  0  0  0  0  0  0  0  0  0  0  0
   -8.0158  -16.5108   24.5147 C   0  0  0  0  0  0  0  0  0  0  0  0
   -7.7125  -15.4402   22.3211 C   0  0  1  0  0  0  0  0  0  0  0  0
  -13.5023  -17.9200   25.8452 C   0  0  0  0  0  0  0  0  0  0  0  0
  -12.0614  -17.5199   25.5245 C   0  0  0  0  0  0  0  0  0  0  0  0
  -10.3288  -17.3418   23.9832 C   0  0  0  0  0  0  0  0  0  0  0  0
   -8.2123  -14.1173   24.1053 C   0  0  0  0  0  0  0  0  0  0  0  0
   -7.7123  -14.2432   21.6149 C   0  0  2  0  0  0  0  0  0  0  0  0
   -7.4839  -13.9551   20.1289 C   0  0  0  0  0  0  0  0  0  0  0  0
   -6.0115  -14.0508   19.7225 C   0  0  0  0  0  0  0  0  0  0  0  0
  -11.2421  -17.0081   26.5395 N   0  0  0  0  0  0  0  0  0  0  0  0
   -7.9741  -15.3395   23.6273 N   0  0  0  0  0  0  0  0  0  0  0  0
  -11.5725  -17.6656   24.2846 N   0  0  0  0  0  0  0  0  0  0  0  0
   -9.1867  -16.2137   27.1102 O   0  0  0  0  0  0  0  0  0  0  0  0
   -3.3259  -13.7929   18.8095 O   0  5  0  0  0  0  0  0  0  0  0  0
   -3.1832   -9.3904   18.3504 O   0  0  0  0  0  0  0  0  0  0  0  0
   -5.2073  -13.0889   20.4123 O   0  0  0  0  0  0  0  0  0  0  0  0
   -3.2776  -11.4653   19.8435 O   0  0  0  0  0  0  0  0  0  0  0  0
   -4.4647  -11.4888   17.5459 O   0  5  0  0  0  0  0  0  0  0  0  0
   -2.8441  -13.5165   21.3340 O   0  0  0  0  0  0  0  0  0  0  0  0
   -5.3855  -10.0670   19.4744 O   0  0  0  0  0  0  0  0  0  0  0  0
   -8.0077  -12.9916   22.7894 S   0  0  0  0  0  0  0  0  0  0  0  0
   -3.6162  -13.0009   20.1802 P   0  0  2  0  0  0  0  0  0  0  0  0
   -4.0978  -10.6629   18.7180 P   0  0  2  0  0  0  0  0  0  0  0  0
  2 16  2  0  0  0  0
  2  3  1  0  0  0  0
  2 13  1  0  0  0  0
  3  8  2  0  0  0  0
  3  4  1  0  0  0  0
  4 14  1  0  0  0  0
  5  1  1  6  0  0  0
  5 14  1  0  0  0  0
  5 10  1  0  0  0  0
  6  7  1  0  0  0  0
  7 13  1  0  0  0  0
  7 15  2  0  0  0  0
  8 15  1  0  0  0  0
  9 14  1  0  0  0  0
  9 24  1  0  0  0  0
 10 24  1  0  0  0  0
 10 11  1  1  0  0  0
 11 12  1  0  0  0  0
 12 19  1  0  0  0  0
 17 25  1  0  0  0  0
 19 25  1  0  0  0  0
 20 26  1  0  0  0  0
 21 26  1  0  0  0  0
 22 25  2  0  0  0  0
 23 26  2  0  0  0  0
 25 20  1  6  0  0  0
 26 18  1  6  0  0  0
M  CHG  2  17  -1  21  -1
M  END
>  <CHROM.1>
-110.86808072,-75.51702237,-61.96989381,-108.02897749,178.93094842,61.96825464
17.23419476,-162.03283536,-6.94622952,-14.10506592,21.95716957,-2.31664360
0.36019149,-0.54059568

>  <Name>
ligand

>  <RI>
0

>  <Rbt.Current_Directory>
/home/itssahil/PROJECTS/Mol_Feturizer/New_Systems/rnas/3D2X

>  <Rbt.Executable>
rbdock ($Id: //depot/dev/client3/rdock/2013.1/src/exe/rbdock.cxx#4 $)

>  <Rbt.Library>
libRbt.so (2013.1, Build901 2013/11/27)

>  <Rbt.Parameter_File>
/export/apps/rDock/src/rDock_2013.1_src/data/scripts/dock_solv.prm

>  <Rbt.Receptor>
prm/pocket_docking_2.prm

>  <SCORE>
-19.3232

>  <SCORE.INTER>
-18.555

>  <SCORE.INTER.CONST>
1

>  <SCORE.INTER.POLAR>
0

>  <SCORE.INTER.ROT>
8

>  <SCORE.INTER.SOLV>
6.9235

>  <SCORE.INTER.VDW>
-23.6111

>  <SCORE.INTER.norm>
-0.713652

>  <SCORE.INTRA>
-0.773511

>  <SCORE.INTRA.DIHEDRAL>
-0.292164

>  <SCORE.INTRA.DIHEDRAL.0>
7.88077

>  <SCORE.INTRA.POLAR>
0

>  <SCORE.INTRA.POLAR.0>
0

>  <SCORE.INTRA.REPUL>
0

>  <SCORE.INTRA.REPUL.0>
0

>  <SCORE.INTRA.SOLV>
0.398781

>  <SCORE.INTRA.SOLV.lig_0>
-63.2542

>  <SCORE.INTRA.VDW>
-0.82682

>  <SCORE.INTRA.VDW.0>
-3.15072

>  <SCORE.INTRA.norm>
-0.0297504

>  <SCORE.RESTR>
0.00526823

>  <SCORE.RESTR.CAVITY>
0.00526823

>  <SCORE.RESTR.norm>
0.000202624

>  <SCORE.SYSTEM>
0

>  <SCORE.SYSTEM.CONST>
0

>  <SCORE.SYSTEM.DIHEDRAL>
0

>  <SCORE.SYSTEM.SOLV>
0

>  <SCORE.SYSTEM.norm>
0

>  <SCORE.heavy>
26

>  <SCORE.norm>
-0.7432

>  <RMSD>
1.856

$$$$
ligand
 OpenBabel11021811473D
libRbt.so/2013.1/901 2013/11/27
 26 27  0  0  0  0  0  0  0  0999 V2000
   -7.1722  -16.4685   21.3916 C   0  0  0  0  0  0  0  0  0  0  0  0
  -10.3590  -16.8316   25.7398 C   0  0  0  0  0  0  0  0  0  0  0  0
   -9.9800  -17.2828   24.4799 C   0  0  0  0  0  0  0  0  0  0  0  0
   -8.5761  -17.0856   23.9031 C   0  0  0  0  0  0  0  0  0  0  0  0
   -7.7375  -15.3946   22.3258 C   0  0  1  0  0  0  0  0  0  0  0  0
  -13.9601  -18.0751   25.8756 C   0  0  0  0  0  0  0  0  0  0  0  0
  -12.5440  -17.7798   25.3791 C   0  0  0  0  0  0  0  0  0  0  0  0
  -10.9239  -17.9671   23.7208 C   0  0  0  0  0  0  0  0  0  0  0  0
   -8.8467  -14.6805   24.1813 C   0  0  0  0  0  0  0  0  0  0  0  0
   -7.6326  -14.0384   22.0409 C   0  0  2  0  0  0  0  0  0  0  0  0
   -7.0057  -13.3091   20.8499 C   0  0  0  0  0  0  0  0  0  0  0  0
   -5.5320  -12.9611   21.0726 C   0  0  0  0  0  0  0  0  0  0  0  0
  -11.6530  -17.0789   26.2027 N   0  0  0  0  0  0  0  0  0  0  0  0
   -8.3766  -15.6985   23.4590 N   0  0  0  0  0  0  0  0  0  0  0  0
  -12.1445  -18.1958   24.1687 N   0  0  0  0  0  0  0  0  0  0  0  0
   -9.5594  -16.2199   26.4485 O   0  0  0  0  0  0  0  0  0  0  0  0
   -2.6136  -13.6428   18.7377 O   0  5  0  0  0  0  0  0  0  0  0  0
   -3.7292   -9.4135   17.3957 O   0  0  0  0  0  0  0  0  0  0  0  0
   -4.8110  -12.8916   19.8385 O   0  0  0  0  0  0  0  0  0  0  0  0
   -3.0278  -11.1598   19.1282 O   0  0  0  0  0  0  0  0  0  0  0  0
   -2.0745  -11.2863   16.7275 O   0  5  0  0  0  0  0  0  0  0  0  0
   -2.6031  -12.6998   21.1444 O   0  0  0  0  0  0  0  0  0  0  0  0
   -4.5403  -11.8357   17.1814 O   0  0  0  0  0  0  0  0  0  0  0  0
   -8.3631  -13.2064   23.3852 S   0  0  0  0  0  0  0  0  0  0  0  0
   -3.2267  -12.6052   19.8044 P   0  0  2  0  0  0  0  0  0  0  0  0
   -3.2549  -10.9436   17.5518 P   0  0  2  0  0  0  0  0  0  0  0  0
  2 16  2  0  0  0  0
  2  3  1  0  0  0  0
  2 13  1  0  0  0  0
  3  8  2  0  0  0  0
  3  4  1  0  0  0  0
  4 14  1  0  0  0  0
  5  1  1  6  0  0  0
  5 14  1  0  0  0  0
  5 10  1  0  0  0  0
  6  7  1  0  0  0  0
  7 13  1  0  0  0  0
  7 15  2  0  0  0  0
  8 15  1  0  0  0  0
  9 14  1  0  0  0  0
  9 24  1  0  0  0  0
 10 24  1  0  0  0  0
 10 11  1  1  0  0  0
 11 12  1  0  0  0  0
 12 19  1  0  0  0  0
 17 25  1  0  0  0  0
 19 25  1  0  0  0  0
 20 26  1  0  0  0  0
 21 26  1  0  0  0  0
 22 25  2  0  0  0  0
 23 26  2  0  0  0  0
 25 20  1  6  0  0  0
 26 18  1  6  0  0  0
M  CHG  2  17  -1  21  -1
M  END
>  <CHROM.1>
-75.64746871,-90.77891069,152.10860020,-139.04207763,-177.27302389,39.39774134
135.91872671,150.96320734,-6.84773430,-14.15713507,21.64586060,2.79198559
0.77720623,1.16775493

>  <Name>
ligand

>  <RI>
0

>  <Rbt.Current_Directory>
/home/itssahil/PROJECTS/Mol_Feturizer/New_Systems/rnas/3D2X

>  <Rbt.Executable>
rbdock ($Id: //depot/dev/client3/rdock/2013.1/src/exe/rbdock.cxx#4 $)

>  <Rbt.Library>
libRbt.so (2013.1, Build901 2013/11/27)

>  <Rbt.Parameter_File>
/export/apps/rDock/src/rDock_2013.1_src/data/scripts/dock_solv.prm

>  <Rbt.Receptor>
prm/pocket_docking_2.prm

>  <SCORE>
-12.8666

>  <SCORE.INTER>
-15.1377

>  <SCORE.INTER.CONST>
1

>  <SCORE.INTER.POLAR>
0

>  <SCORE.INTER.ROT>
8

>  <SCORE.INTER.SOLV>
11.1621

>  <SCORE.INTER.VDW>
-22.7458

>  <SCORE.INTER.norm>
-0.582221

>  <SCORE.INTRA>
1.7737

>  <SCORE.INTRA.DIHEDRAL>
2.95151

>  <SCORE.INTRA.DIHEDRAL.0>
7.88077

>  <SCORE.INTRA.POLAR>
0

>  <SCORE.INTRA.POLAR.0>
0

>  <SCORE.INTRA.REPUL>
0

>  <SCORE.INTRA.REPUL.0>
0

>  <SCORE.INTRA.SOLV>
0.313023

>  <SCORE.INTRA.SOLV.lig_0>
-63.2542

>  <SCORE.INTRA.VDW>
0.141427

>  <SCORE.INTRA.VDW.0>
-3.15072

>  <SCORE.INTRA.norm>
0.068219

>  <SCORE.RESTR>
0.497467

>  <SCORE.RESTR.CAVITY>
0.497467

>  <SCORE.RESTR.norm>
0.0191334

>  <SCORE.SYSTEM>
0

>  <SCORE.SYSTEM.CONST>
0

>  <SCORE.SYSTEM.DIHEDRAL>
0

>  <SCORE.SYSTEM.SOLV>
0

>  <SCORE.SYSTEM.norm>
0

>  <SCORE.heavy>
26

>  <SCORE.norm>
-0.494868

>  <RMSD>
1.869

$$$$
ligand
 OpenBabel11021811473D
libRbt.so/2013.1/901 2013/11/27
 26 27  0  0  0  0  0  0  0  0999 V2000
   -8.1562  -13.7115   23.0414 C   0  0  0  0  0  0  0  0  0  0  0  0
  -10.2616  -16.8367   23.9012 C   0  0  0  0  0  0  0  0  0  0  0  0
   -9.3772  -16.6045   24.9494 C   0  0  0  0  0  0  0  0  0  0  0  0
   -7.9463  -16.1005   24.7465 C   0  0  0  0  0  0  0  0  0  0  0  0
   -7.6607  -15.0683   22.5322 C   0  0  1  0  0  0  0  0  0  0  0  0
  -13.3670  -17.9167   25.8307 C   0  0  0  0  0  0  0  0  0  0  0  0
  -11.9430  -17.4601   25.5098 C   0  0  0  0  0  0  0  0  0  0  0  0
   -9.8312  -16.8219   26.2463 C   0  0  0  0  0  0  0  0  0  0  0  0
   -7.1012  -17.2613   22.7784 C   0  0  0  0  0  0  0  0  0  0  0  0
   -7.2620  -15.2619   21.2150 C   0  0  2  0  0  0  0  0  0  0  0  0
   -7.1999  -14.2916   20.0326 C   0  0  0  0  0  0  0  0  0  0  0  0
   -5.9640  -14.5004   19.1544 C   0  0  0  0  0  0  0  0  0  0  0  0
  -11.5608  -17.2689   24.1753 N   0  0  0  0  0  0  0  0  0  0  0  0
   -7.5683  -16.1386   23.3264 N   0  0  0  0  0  0  0  0  0  0  0  0
  -11.0620  -17.2301   26.4939 N   0  0  0  0  0  0  0  0  0  0  0  0
   -9.9059  -16.6598   22.7359 O   0  0  0  0  0  0  0  0  0  0  0  0
   -2.8262  -13.0990   18.5498 O   0  5  0  0  0  0  0  0  0  0  0  0
   -3.1897  -10.6536   17.4722 O   0  0  0  0  0  0  0  0  0  0  0  0
   -4.7565  -14.1840   19.8541 O   0  0  0  0  0  0  0  0  0  0  0  0
   -5.0093  -11.8189   18.8413 O   0  0  0  0  0  0  0  0  0  0  0  0
   -5.5784   -9.6624   17.5321 O   0  5  0  0  0  0  0  0  0  0  0  0
   -3.4868  -12.1960   20.8800 O   0  0  0  0  0  0  0  0  0  0  0  0
   -4.0818   -9.5660   19.6151 O   0  0  0  0  0  0  0  0  0  0  0  0
   -6.8304  -16.9442   21.0853 S   0  0  0  0  0  0  0  0  0  0  0  0
   -3.9886  -12.7882   19.6188 P   0  0  2  0  0  0  0  0  0  0  0  0
   -4.5392  -10.3784   18.3051 P   0  0  2  0  0  0  0  0  0  0  0  0
  2 16  2  0  0  0  0
  2  3  1  0  0  0  0
  2 13  1  0  0  0  0
  3  8  2  0  0  0  0
  3  4  1  0  0  0  0
  4 14  1  0  0  0  0
  5  1  1  1  0  0  0
  5 14  1  0  0  0  0
  5 10  1  0  0  0  0
  6  7  1  0  0  0  0
  7 13  1  0  0  0  0
  7 15  2  0  0  0  0
  8 15  1  0  0  0  0
  9 14  1  0  0  0  0
  9 24  1  0  0  0  0
 10 24  1  0  0  0  0
 10 11  1  6  0  0  0
 11 12  1  0  0  0  0
 12 19  1  0  0  0  0
 17 25  1  0  0  0  0
 19 25  1  0  0  0  0
 20 26  1  0  0  0  0
 21 26  1  0  0  0  0
 22 25  2  0  0  0  0
 23 26  2  0  0  0  0
 25 20  1  6  0  0  0
 26 18  1  6  0  0  0
M  CHG  2  17  -1  21  -1
M  END
>  <CHROM.1>
-10.44570980,140.82340105,-66.01912810,96.20186346,-101.43175869,-61.87799969
-96.92065034,50.85850827,-6.92199142,-14.33835477,21.44832007,2.40050762
-0.61266155,2.88748434

>  <Name>
ligand

>  <RI>
0

>  <Rbt.Current_Directory>
/home/itssahil/PROJECTS/Mol_Feturizer/New_Systems/rnas/3D2X

>  <Rbt.Executable>
rbdock ($Id: //depot/dev/client3/rdock/2013.1/src/exe/rbdock.cxx#4 $)

>  <Rbt.Library>
libRbt.so (2013.1, Build901 2013/11/27)

>  <Rbt.Parameter_File>
/export/apps/rDock/src/rDock_2013.1_src/data/scripts/dock_solv.prm

>  <Rbt.Receptor>
prm/pocket_docking_2.prm

>  <SCORE>
-16.3901

>  <SCORE.INTER>
-18.8671

>  <SCORE.INTER.CONST>
1

>  <SCORE.INTER.POLAR>
0

>  <SCORE.INTER.ROT>
8

>  <SCORE.INTER.SOLV>
8.049

>  <SCORE.INTER.VDW>
-24.1944

>  <SCORE.INTER.norm>
-0.725657

>  <SCORE.INTRA>
2.47694

>  <SCORE.INTRA.DIHEDRAL>
4.76068

>  <SCORE.INTRA.DIHEDRAL.0>
7.88077

>  <SCORE.INTRA.POLAR>
0

>  <SCORE.INTRA.POLAR.0>
0

>  <SCORE.INTRA.REPUL>
0

>  <SCORE.INTRA.REPUL.0>
0

>  <SCORE.INTRA.SOLV>
-0.178607

>  <SCORE.INTRA.SOLV.lig_0>
-63.2542

>  <SCORE.INTRA.VDW>
0.185902

>  <SCORE.INTRA.VDW.0>
-3.15072

>  <SCORE.INTRA.norm>
0.0952668

>  <SCORE.RESTR>
0

>  <SCORE.RESTR.CAVITY>
0

>  <SCORE.RESTR.norm>
0

>  <SCORE.SYSTEM>
0

>  <SCORE.SYSTEM.CONST>
0

>  <SCORE.SYSTEM.DIHEDRAL>
0

>  <SCORE.SYSTEM.SOLV>
0

>  <SCORE.SYSTEM.norm>
0

>  <SCORE.heavy>
26

>  <SCORE.norm>
-0.63039

>  <RMSD>
1.870

$$$$
ligand
 OpenBabel11021811473D
libRbt.so/2013.1/901 2013/11/27
 26 27  0  0  0  0  0  0  0  0999 V2000
   -8.4225  -13.9318   23.1589 C   0  0  0  0  0  0  0  0  0  0  0  0
   -9.9400  -17.3125   24.0242 C   0  0  0  0  0  0  0  0  0  0  0  0
   -9.1441  -16.7532   25.0185 C   0  0  0  0  0  0  0  0  0  0  0  0
   -7.7078  -16.2814   24.7799 C   0  0  0  0  0  0  0  0  0  0  0  0
   -7.7224  -15.1679   22.5867 C   0  0  1  0  0  0  0  0  0  0  0  0
  -13.1752  -17.8878   25.9569 C   0  0  0  0  0  0  0  0  0  0  0  0
  -11.7358  -17.4959   25.6194 C   0  0  0  0  0  0  0  0  0  0  0  0
   -9.6967  -16.5973   26.2857 C   0  0  0  0  0  0  0  0  0  0  0  0
   -6.7732  -17.2315   22.7407 C   0  0  0  0  0  0  0  0  0  0  0  0
   -7.3638  -15.2596   21.2472 C   0  0  2  0  0  0  0  0  0  0  0  0
   -7.5343  -14.2687   20.0928 C   0  0  0  0  0  0  0  0  0  0  0  0
   -6.6678  -13.0169   20.2489 C   0  0  0  0  0  0  0  0  0  0  0  0
  -11.2515  -17.6904   24.3190 N   0  0  0  0  0  0  0  0  0  0  0  0
   -7.4023  -16.2215   23.3432 N   0  0  0  0  0  0  0  0  0  0  0  0
  -10.9382  -16.9576   26.5530 N   0  0  0  0  0  0  0  0  0  0  0  0
   -9.4954  -17.4721   22.8873 O   0  0  0  0  0  0  0  0  0  0  0  0
   -2.7337  -12.9260   20.1823 O   0  5  0  0  0  0  0  0  0  0  0  0
   -4.1367  -10.1422   16.9111 O   0  0  0  0  0  0  0  0  0  0  0  0
   -5.2723  -13.3254   20.1773 O   0  0  0  0  0  0  0  0  0  0  0  0
   -4.2790  -11.1171   19.2718 O   0  0  0  0  0  0  0  0  0  0  0  0
   -2.7157  -12.2141   17.5278 O   0  5  0  0  0  0  0  0  0  0  0  0
   -4.2583  -11.6038   21.7975 O   0  0  0  0  0  0  0  0  0  0  0  0
   -5.2648  -12.4110   17.2998 O   0  0  0  0  0  0  0  0  0  0  0  0
   -6.6497  -16.8354   21.0470 S   0  0  0  0  0  0  0  0  0  0  0  0
   -4.1478  -12.2051   20.4486 P   0  0  2  0  0  0  0  0  0  0  0  0
   -4.0035  -11.5159   17.7393 P   0  0  2  0  0  0  0  0  0  0  0  0
  2 16  2  0  0  0  0
  2  3  1  0  0  0  0
  2 13  1  0  0  0  0
  3  8  2  0  0  0  0
  3  4  1  0  0  0  0
  4 14  1  0  0  0  0
  5  1  1  1  0  0  0
  5 14  1  0  0  0  0
  5 10  1  0  0  0  0
  6  7  1  0  0  0  0
  7 13  1  0  0  0  0
  7 15  2  0  0  0  0
  8 15  1  0  0  0  0
  9 14  1  0  0  0  0
  9 24  1  0  0  0  0
 10 24  1  0  0  0  0
 10 11  1  6  0  0  0
 11 12  1  0  0  0  0
 12 19  1  0  0  0  0
 17 25  1  0  0  0  0
 19 25  1  0  0  0  0
 20 26  1  0  0  0  0
 21 26  1  0  0  0  0
 22 25  2  0  0  0  0
 23 26  2  0  0  0  0
 25 20  1  6  0  0  0
 26 18  1  6  0  0  0
M  CHG  2  17  -1  21  -1
M  END
>  <CHROM.1>
12.48855883,67.92733492,65.49081191,83.70898716,-174.25364161,48.38226690
-176.55628554,-176.13110991,-6.83369123,-14.48399576,21.55356302,-2.66821030
-0.82158881,-1.82228179

>  <Name>
ligand

>  <RI>
0

>  <Rbt.Current_Directory>
/home/itssahil/PROJECTS/Mol_Feturizer/New_Systems/rnas/3D2X

>  <Rbt.Executable>
rbdock ($Id: //depot/dev/client3/rdock/2013.1/src/exe/rbdock.cxx#4 $)

>  <Rbt.Library>
libRbt.so (2013.1, Build901 2013/11/27)

>  <Rbt.Parameter_File>
/export/apps/rDock/src/rDock_2013.1_src/data/scripts/dock_solv.prm

>  <Rbt.Receptor>
prm/pocket_docking_3.prm

>  <SCORE>
-20.4521

>  <SCORE.INTER>
-19.0093

>  <SCORE.INTER.CONST>
1

>  <SCORE.INTER.POLAR>
0

>  <SCORE.INTER.ROT>
8

>  <SCORE.INTER.SOLV>
6.06804

>  <SCORE.INTER.VDW>
-23.6288

>  <SCORE.INTER.norm>
-0.731125

>  <SCORE.INTRA>
-1.44286

>  <SCORE.INTRA.DIHEDRAL>
-2.67949

>  <SCORE.INTRA.DIHEDRAL.0>
7.88077

>  <SCORE.INTRA.POLAR>
0

>  <SCORE.INTRA.POLAR.0>
0

>  <SCORE.INTRA.REPUL>
0

>  <SCORE.INTRA.REPUL.0>
0

>  <SCORE.INTRA.SOLV>
1.10156

>  <SCORE.INTRA.SOLV.lig_0>
-63.2542

>  <SCORE.INTRA.VDW>
-0.653897

>  <SCORE.INTRA.VDW.0>
-3.15072

>  <SCORE.INTRA.norm>
-0.0554946

>  <SCORE.RESTR>
0

>  <SCORE.RESTR.CAVITY>
0

>  <SCORE.RESTR.norm>
0

>  <SCORE.SYSTEM>
0

>  <SCORE.SYSTEM.CONST>
0

>  <SCORE.SYSTEM.DIHEDRAL>
0

>  <SCORE.SYSTEM.SOLV>
0

>  <SCORE.SYSTEM.norm>
0

>  <SCORE.heavy>
26

>  <SCORE.norm>
-0.78662

>  <RMSD>
1.875

$$$$
ligand
 OpenBabel11021811473D
libRbt.so/2013.1/901 2013/11/27
 26 27  0  0  0  0  0  0  0  0999 V2000
   -7.4755  -14.1158   22.9563 C   0  0  0  0  0  0  0  0  0  0  0  0
  -10.2434  -16.7963   26.1351 C   0  0  0  0  0  0  0  0  0  0  0  0
   -9.8246  -16.8856   24.8117 C   0  0  0  0  0  0  0  0  0  0  0  0
   -8.4080  -16.5326   24.3522 C   0  0  0  0  0  0  0  0  0  0  0  0
   -7.9104  -15.3923   22.2303 C   0  0  1  0  0  0  0  0  0  0  0  0
  -13.8313  -18.0456   25.8208 C   0  0  0  0  0  0  0  0  0  0  0  0
  -12.4058  -17.6201   25.4655 C   0  0  0  0  0  0  0  0  0  0  0  0
  -10.7390  -17.3416   23.8675 C   0  0  0  0  0  0  0  0  0  0  0  0
   -8.6567  -17.5416   22.1488 C   0  0  0  0  0  0  0  0  0  0  0  0
   -7.8837  -15.4995   20.8450 C   0  0  2  0  0  0  0  0  0  0  0  0
   -7.4552  -14.4982   19.7693 C   0  0  0  0  0  0  0  0  0  0  0  0
   -5.9655  -14.1537   19.8351 C   0  0  0  0  0  0  0  0  0  0  0  0
  -11.5464  -17.1660   26.4748 N   0  0  0  0  0  0  0  0  0  0  0  0
   -8.3252  -16.4802   22.8854 N   0  0  0  0  0  0  0  0  0  0  0  0
  -11.9684  -17.6889   24.2000 N   0  0  0  0  0  0  0  0  0  0  0  0
   -9.4710  -16.3971   27.0068 O   0  0  0  0  0  0  0  0  0  0  0  0
   -3.2667  -15.1424   18.1531 O   0  5  0  0  0  0  0  0  0  0  0  0
   -4.0178  -11.3396   14.9248 O   0  0  0  0  0  0  0  0  0  0  0  0
   -5.4392  -13.8267   18.5452 O   0  0  0  0  0  0  0  0  0  0  0  0
   -3.6783  -12.9959   16.8444 O   0  0  0  0  0  0  0  0  0  0  0  0
   -5.9896  -11.8853   16.5079 O   0  5  0  0  0  0  0  0  0  0  0  0
   -3.2011  -12.8621   19.3685 O   0  0  0  0  0  0  0  0  0  0  0  0
   -3.9928  -10.5100   17.3501 O   0  0  0  0  0  0  0  0  0  0  0  0
   -8.4999  -17.0855   20.4731 S   0  0  0  0  0  0  0  0  0  0  0  0
   -3.8569  -13.6524   18.3015 P   0  0  2  0  0  0  0  0  0  0  0  0
   -4.5245  -11.7005   16.4093 P   0  0  2  0  0  0  0  0  0  0  0  0
  2 16  2  0  0  0  0
  2  3  1  0  0  0  0
  2 13  1  0  0  0  0
  3  8  2  0  0  0  0
  3  4  1  0  0  0  0
  4 14  1  0  0  0  0
  5  1  1  1  0  0  0
  5 14  1  0  0  0  0
  5 10  1  0  0  0  0
  6  7  1  0  0  0  0
  7 13  1  0  0  0  0
  7 15  2  0  0  0  0
  8 15  1  0  0  0  0
  9 14  1  0  0  0  0
  9 24  1  0  0  0  0
 10 24  1  0  0  0  0
 10 11  1  6  0  0  0
 11 12  1  0  0  0  0
 12 19  1  0  0  0  0
 17 25  1  0  0  0  0
 19 25  1  0  0  0  0
 20 26  1  0  0  0  0
 21 26  1  0  0  0  0
 22 25  2  0  0  0  0
 23 26  2  0  0  0  0
 25 20  1  6  0  0  0
 26 18  1  6  0  0  0
M  CHG  2  17  -1  21  -1
M  END
>  <CHROM.1>
-169.40712868,64.74276761,150.08164101,123.04846360,-170.29689193,160.96906845
80.40167601,178.05662300,-7.23901033,-14.88374662,20.84301340,-2.29002722
-0.47816142,-1.41256001

>  <Name>
ligand

>  <RI>
0

>  <Rbt.Current_Directory>
/home/itssahil/PROJECTS/Mol_Feturizer/New_Systems/rnas/3D2X

>  <Rbt.Executable>
rbdock ($Id: //depot/dev/client3/rdock/2013.1/src/exe/rbdock.cxx#4 $)

>  <Rbt.Library>
libRbt.so (2013.1, Build901 2013/11/27)

>  <Rbt.Parameter_File>
/export/apps/rDock/src/rDock_2013.1_src/data/scripts/dock_solv.prm

>  <Rbt.Receptor>
prm/pocket_docking_3.prm

>  <SCORE>
-21.2563

>  <SCORE.INTER>
-22.2018

>  <SCORE.INTER.CONST>
1

>  <SCORE.INTER.POLAR>
0

>  <SCORE.INTER.ROT>
8

>  <SCORE.INTER.SOLV>
9.07728

>  <SCORE.INTER.VDW>
-26.7603

>  <SCORE.INTER.norm>
-0.853914

>  <SCORE.INTRA>
0.934949

>  <SCORE.INTRA.DIHEDRAL>
0.684719

>  <SCORE.INTRA.DIHEDRAL.0>
7.88077

>  <SCORE.INTRA.POLAR>
0

>  <SCORE.INTRA.POLAR.0>
0

>  <SCORE.INTRA.REPUL>
0

>  <SCORE.INTRA.REPUL.0>
0

>  <SCORE.INTRA.SOLV>
-0.486401

>  <SCORE.INTRA.SOLV.lig_0>
-63.2542

>  <SCORE.INTRA.VDW>
0.83579

>  <SCORE.INTRA.VDW.0>
-3.15072

>  <SCORE.INTRA.norm>
0.0359596

>  <SCORE.RESTR>
0.0105094

>  <SCORE.RESTR.CAVITY>
0.0105094

>  <SCORE.RESTR.norm>
0.000404208

>  <SCORE.SYSTEM>
0

>  <SCORE.SYSTEM.CONST>
0

>  <SCORE.SYSTEM.DIHEDRAL>
0

>  <SCORE.SYSTEM.SOLV>
0

>  <SCORE.SYSTEM.norm>
0

>  <SCORE.heavy>
26

>  <SCORE.norm>
-0.81755

>  <RMSD>
1.897

$$$$
ligand
 OpenBabel11021811473D
libRbt.so/2013.1/901 2013/11/27
 26 27  0  0  0  0  0  0  0  0999 V2000
   -7.9917  -13.7763   22.8749 C   0  0  0  0  0  0  0  0  0  0  0  0
  -10.1228  -16.8802   26.2014 C   0  0  0  0  0  0  0  0  0  0  0  0
   -9.7556  -16.6944   24.8727 C   0  0  0  0  0  0  0  0  0  0  0  0
   -8.3591  -16.2398   24.4418 C   0  0  0  0  0  0  0  0  0  0  0  0
   -8.0565  -15.1717   22.2468 C   0  0  1  0  0  0  0  0  0  0  0  0
  -13.7163  -18.0790   25.7744 C   0  0  0  0  0  0  0  0  0  0  0  0
  -12.3071  -17.5746   25.4599 C   0  0  0  0  0  0  0  0  0  0  0  0
  -10.7046  -16.9592   23.8905 C   0  0  0  0  0  0  0  0  0  0  0  0
   -8.2364  -17.4399   22.3253 C   0  0  0  0  0  0  0  0  0  0  0  0
   -7.9342  -15.3713   20.8770 C   0  0  2  0  0  0  0  0  0  0  0  0
   -7.7163  -14.3769   19.7337 C   0  0  0  0  0  0  0  0  0  0  0  0
   -6.2956  -13.8087   19.7006 C   0  0  0  0  0  0  0  0  0  0  0  0
  -11.4104  -17.3254   26.5074 N   0  0  0  0  0  0  0  0  0  0  0  0
   -8.2183  -16.2774   22.9790 N   0  0  0  0  0  0  0  0  0  0  0  0
  -11.9190  -17.3802   24.1913 N   0  0  0  0  0  0  0  0  0  0  0  0
   -9.3183  -16.6578   27.1065 O   0  0  0  0  0  0  0  0  0  0  0  0
   -4.4120  -11.3460   19.8540 O   0  5  0  0  0  0  0  0  0  0  0  0
   -1.7634  -11.4087   18.4434 O   0  0  0  0  0  0  0  0  0  0  0  0
   -6.1385  -12.8331   18.6656 O   0  0  0  0  0  0  0  0  0  0  0  0
   -3.6060  -13.1749   18.2745 O   0  0  0  0  0  0  0  0  0  0  0  0
   -1.1395  -13.8619   17.9098 O   0  5  0  0  0  0  0  0  0  0  0  0
   -4.7957  -11.1088   17.3088 O   0  0  0  0  0  0  0  0  0  0  0  0
   -2.3641  -12.4271   16.1690 O   0  0  0  0  0  0  0  0  0  0  0  0
   -8.1146  -17.0848   20.6224 S   0  0  0  0  0  0  0  0  0  0  0  0
   -4.7461  -12.0541   18.4478 P   0  0  2  0  0  0  0  0  0  0  0  0
   -2.1465  -12.7941   17.7193 P   0  0  2  0  0  0  0  0  0  0  0  0
  2 16  2  0  0  0  0
  2  3  1  0  0  0  0
  2 13  1  0  0  0  0
  3  8  2  0  0  0  0
  3  4  1  0  0  0  0
  4 14  1  0  0  0  0
  5  1  1  1  0  0  0
  5 14  1  0  0  0  0
  5 10  1  0  0  0  0
  6  7  1  0  0  0  0
  7 13  1  0  0  0  0
  7 15  2  0  0  0  0
  8 15  1  0  0  0  0
  9 14  1  0  0  0  0
  9 24  1  0  0  0  0
 10 24  1  0  0  0  0
 10 11  1  6  0  0  0
 11 12  1  0  0  0  0
 12 19  1  0  0  0  0
 17 25  1  0  0  0  0
 19 25  1  0  0  0  0
 20 26  1  0  0  0  0
 21 26  1  0  0  0  0
 22 25  2  0  0  0  0
 23 26  2  0  0  0  0
 25 20  1  6  0  0  0
 26 18  1  1  0  0  0
M  CHG  2  17  -1  21  -1
M  END
>  <CHROM.1>
173.57757386,72.80964202,-177.06690566,113.79409513,178.25696255,-81.55312696
-56.51482873,41.76612245,-6.89687612,-14.68880204,21.16047983,-2.49765914
-0.58833443,-1.61930174

>  <Name>
ligand

>  <RI>
0

>  <Rbt.Current_Directory>
/home/itssahil/PROJECTS/Mol_Feturizer/New_Systems/rnas/3D2X

>  <Rbt.Executable>
rbdock ($Id: //depot/dev/client3/rdock/2013.1/src/exe/rbdock.cxx#4 $)

>  <Rbt.Library>
libRbt.so (2013.1, Build901 2013/11/27)

>  <Rbt.Parameter_File>
/export/apps/rDock/src/rDock_2013.1_src/data/scripts/dock_solv.prm

>  <Rbt.Receptor>
prm/pocket_docking_4.prm

>  <SCORE>
-21.3491

>  <SCORE.INTER>
-19.6945

>  <SCORE.INTER.CONST>
1

>  <SCORE.INTER.POLAR>
0

>  <SCORE.INTER.ROT>
8

>  <SCORE.INTER.SOLV>
9.25138

>  <SCORE.INTER.VDW>
-25.1468

>  <SCORE.INTER.norm>
-0.757481

>  <SCORE.INTRA>
-1.6546

>  <SCORE.INTRA.DIHEDRAL>
-2.33091

>  <SCORE.INTRA.DIHEDRAL.0>
7.88077

>  <SCORE.INTRA.POLAR>
0

>  <SCORE.INTRA.POLAR.0>
0

>  <SCORE.INTRA.REPUL>
0

>  <SCORE.INTRA.REPUL.0>
0

>  <SCORE.INTRA.SOLV>
-1.46624

>  <SCORE.INTRA.SOLV.lig_0>
-63.2542

>  <SCORE.INTRA.VDW>
0.243974

>  <SCORE.INTRA.VDW.0>
-3.15072

>  <SCORE.INTRA.norm>
-0.0636385

>  <SCORE.RESTR>
0

>  <SCORE.RESTR.CAVITY>
0

>  <SCORE.RESTR.norm>
0

>  <SCORE.SYSTEM>
0

>  <SCORE.SYSTEM.CONST>
0

>  <SCORE.SYSTEM.DIHEDRAL>
0

>  <SCORE.SYSTEM.SOLV>
0

>  <SCORE.SYSTEM.norm>
0

>  <SCORE.heavy>
26

>  <SCORE.norm>
-0.82112

>  <RMSD>
1.905

$$$$
ligand
 OpenBabel11021811473D
libRbt.so/2013.1/901 2013/11/27
 26 27  0  0  0  0  0  0  0  0999 V2000
   -6.7832  -14.0462   25.0278 C   0  0  0  0  0  0  0  0  0  0  0  0
  -10.3086  -16.7380   26.3533 C   0  0  0  0  0  0  0  0  0  0  0  0
   -9.7290  -16.9182   25.1018 C   0  0  0  0  0  0  0  0  0  0  0  0
   -8.2696  -16.5750   24.7935 C   0  0  0  0  0  0  0  0  0  0  0  0
   -7.5092  -14.4808   23.7512 C   0  0  1  0  0  0  0  0  0  0  0  0
  -13.8194  -18.0713   25.6982 C   0  0  0  0  0  0  0  0  0  0  0  0
  -12.3648  -17.6480   25.4888 C   0  0  0  0  0  0  0  0  0  0  0  0
  -10.5159  -17.4595   24.0903 C   0  0  0  0  0  0  0  0  0  0  0  0
   -8.7476  -15.9210   22.4960 C   0  0  0  0  0  0  0  0  0  0  0  0
   -7.5059  -13.7039   22.5989 C   0  0  2  0  0  0  0  0  0  0  0  0
   -6.8480  -12.3541   22.3009 C   0  0  0  0  0  0  0  0  0  0  0  0
   -6.5427  -12.1551   20.8145 C   0  0  0  0  0  0  0  0  0  0  0  0
  -11.6403  -17.1046   26.5581 N   0  0  0  0  0  0  0  0  0  0  0  0
   -8.1735  -15.6368   23.6659 N   0  0  0  0  0  0  0  0  0  0  0  0
  -11.7739  -17.8030   24.2952 N   0  0  0  0  0  0  0  0  0  0  0  0
   -9.6532  -16.2613   27.2801 O   0  0  0  0  0  0  0  0  0  0  0  0
   -6.6256  -12.8873   17.8629 O   0  5  0  0  0  0  0  0  0  0  0  0
   -3.0988  -12.8897   16.4730 O   0  0  0  0  0  0  0  0  0  0  0  0
   -5.8091  -13.2572   20.2714 O   0  0  0  0  0  0  0  0  0  0  0  0
   -4.3263  -12.0295   18.5459 O   0  0  0  0  0  0  0  0  0  0  0  0
   -4.8903  -11.0401   16.2239 O   0  5  0  0  0  0  0  0  0  0  0  0
   -4.7176  -14.5638   18.3430 O   0  0  0  0  0  0  0  0  0  0  0  0
   -2.6417  -10.5245   17.3493 O   0  0  0  0  0  0  0  0  0  0  0  0
   -8.4826  -14.5600   21.4386 S   0  0  0  0  0  0  0  0  0  0  0  0
   -5.3286  -13.2727   18.7345 P   0  0  2  0  0  0  0  0  0  0  0  0
   -3.8191  -11.5874   17.0862 P   0  0  2  0  0  0  0  0  0  0  0  0
  2 16  2  0  0  0  0
  2  3  1  0  0  0  0
  2 13  1  0  0  0  0
  3  8  2  0  0  0  0
  3  4  1  0  0  0  0
  4 14  1  0  0  0  0
  5  1  1  6  0  0  0
  5 14  1  0  0  0  0
  5 10  1  0  0  0  0
  6  7  1  0  0  0  0
  7 13  1  0  0  0  0
  7 15  2  0  0  0  0
  8 15  1  0  0  0  0
  9 14  1  0  0  0  0
  9 24  1  0  0  0  0
 10 24  1  0  0  0  0
 10 11  1  1  0  0  0
 11 12  1  0  0  0  0
 12 19  1  0  0  0  0
 17 25  1  0  0  0  0
 19 25  1  0  0  0  0
 20 26  1  0  0  0  0
 21 26  1  0  0  0  0
 22 25  2  0  0  0  0
 23 26  2  0  0  0  0
 25 20  1  6  0  0  0
 26 18  1  6  0  0  0
M  CHG  2  17  -1  21  -1
M  END
>  <CHROM.1>
-124.09724253,153.61228210,-51.77723372,125.94630448,-178.29604175,-58.39778866
-49.24347214,-57.94779688,-7.32989391,-14.31241048,21.49605854,-2.37393193
-0.63942553,-1.56981579

>  <Name>
ligand

>  <RI>
0

>  <Rbt.Current_Directory>
/home/itssahil/PROJECTS/Mol_Feturizer/New_Systems/rnas/3D2X

>  <Rbt.Executable>
rbdock ($Id: //depot/dev/client3/rdock/2013.1/src/exe/rbdock.cxx#4 $)

>  <Rbt.Library>
libRbt.so (2013.1, Build901 2013/11/27)

>  <Rbt.Parameter_File>
/export/apps/rDock/src/rDock_2013.1_src/data/scripts/dock_solv.prm

>  <Rbt.Receptor>
prm/pocket_docking_5.prm

>  <SCORE>
-19.8107

>  <SCORE.INTER>
-17.9774

>  <SCORE.INTER.CONST>
1

>  <SCORE.INTER.POLAR>
0

>  <SCORE.INTER.ROT>
8

>  <SCORE.INTER.SOLV>
12.0732

>  <SCORE.INTER.VDW>
-24.9426

>  <SCORE.INTER.norm>
-0.691437

>  <SCORE.INTRA>
-1.83332

>  <SCORE.INTRA.DIHEDRAL>
-2.64449

>  <SCORE.INTRA.DIHEDRAL.0>
7.88077

>  <SCORE.INTRA.POLAR>
0

>  <SCORE.INTRA.POLAR.0>
0

>  <SCORE.INTRA.REPUL>
0

>  <SCORE.INTRA.REPUL.0>
0

>  <SCORE.INTRA.SOLV>
-1.49065

>  <SCORE.INTRA.SOLV.lig_0>
-63.2542

>  <SCORE.INTRA.VDW>
0.234251

>  <SCORE.INTRA.VDW.0>
-3.15072

>  <SCORE.INTRA.norm>
-0.0705123

>  <SCORE.RESTR>
0

>  <SCORE.RESTR.CAVITY>
0

>  <SCORE.RESTR.norm>
0

>  <SCORE.SYSTEM>
0

>  <SCORE.SYSTEM.CONST>
0

>  <SCORE.SYSTEM.DIHEDRAL>
0

>  <SCORE.SYSTEM.SOLV>
0

>  <SCORE.SYSTEM.norm>
0

>  <SCORE.heavy>
26

>  <SCORE.norm>
-0.76195

>  <RMSD>
1.922

$$$$
ligand
 OpenBabel11021811473D
libRbt.so/2013.1/901 2013/11/27
 26 27  0  0  0  0  0  0  0  0999 V2000
   -6.5298  -16.9717   22.4700 C   0  0  0  0  0  0  0  0  0  0  0  0
  -10.0698  -17.0166   26.4117 C   0  0  0  0  0  0  0  0  0  0  0  0
   -9.4802  -16.8698   25.1605 C   0  0  0  0  0  0  0  0  0  0  0  0
   -8.0138  -16.4783   24.9626 C   0  0  0  0  0  0  0  0  0  0  0  0
   -7.2047  -15.6365   22.7976 C   0  0  1  0  0  0  0  0  0  0  0  0
  -13.5897  -18.0813   25.4070 C   0  0  0  0  0  0  0  0  0  0  0  0
  -12.1281  -17.6383   25.3254 C   0  0  0  0  0  0  0  0  0  0  0  0
  -10.2636  -17.1151   24.0373 C   0  0  0  0  0  0  0  0  0  0  0  0
   -8.4448  -14.2409   24.1005 C   0  0  0  0  0  0  0  0  0  0  0  0
   -7.1695  -14.5571   21.9230 C   0  0  2  0  0  0  0  0  0  0  0  0
   -6.5312  -14.4070   20.5397 C   0  0  0  0  0  0  0  0  0  0  0  0
   -5.3404  -13.4457   20.5338 C   0  0  0  0  0  0  0  0  0  0  0  0
  -11.4078  -17.4053   26.5044 N   0  0  0  0  0  0  0  0  0  0  0  0
   -7.8784  -15.4369   23.9339 N   0  0  0  0  0  0  0  0  0  0  0  0
  -11.5275  -17.4826   24.1368 N   0  0  0  0  0  0  0  0  0  0  0  0
   -9.4179  -16.8094   27.4353 O   0  0  0  0  0  0  0  0  0  0  0  0
   -3.0942  -12.5408   17.4395 O   0  5  0  0  0  0  0  0  0  0  0  0
   -3.4921   -9.7687   17.4016 O   0  0  0  0  0  0  0  0  0  0  0  0
   -4.7317  -13.3632   19.2414 O   0  0  0  0  0  0  0  0  0  0  0  0
   -3.4246  -11.1543   19.5508 O   0  0  0  0  0  0  0  0  0  0  0  0
   -5.7057  -10.5144   18.5135 O   0  5  0  0  0  0  0  0  0  0  0  0
   -2.2016  -13.4121   19.7035 O   0  0  0  0  0  0  0  0  0  0  0  0
   -4.2328   -8.7303   19.6252 O   0  0  0  0  0  0  0  0  0  0  0  0
   -8.0143  -13.2614   22.7235 S   0  0  0  0  0  0  0  0  0  0  0  0
   -3.2932  -12.6704   19.0314 P   0  0  2  0  0  0  0  0  0  0  0  0
   -4.3117  -10.0780   18.7519 P   0  0  2  0  0  0  0  0  0  0  0  0
  2 16  2  0  0  0  0
  2  3  1  0  0  0  0
  2 13  1  0  0  0  0
  3  8  2  0  0  0  0
  3  4  1  0  0  0  0
  4 14  1  0  0  0  0
  5  1  1  6  0  0  0
  5 14  1  0  0  0  0
  5 10  1  0  0  0  0
  6  7  1  0  0  0  0
  7 13  1  0  0  0  0
  7 15  2  0  0  0  0
  8 15  1  0  0  0  0
  9 14  1  0  0  0  0
  9 24  1  0  0  0  0
 10 24  1  0  0  0  0
 10 11  1  1  0  0  0
 11 12  1  0  0  0  0
 12 19  1  0  0  0  0
 17 25  1  0  0  0  0
 19 25  1  0  0  0  0
 20 26  1  0  0  0  0
 21 26  1  0  0  0  0
 22 25  2  0  0  0  0
 23 26  2  0  0  0  0
 25 20  1  1  0  0  0
 26 18  1  6  0  0  0
M  CHG  2  17  -1  21  -1
M  END
>  <CHROM.1>
-134.41183650,-111.48561307,177.77900596,-117.36164725,-167.15861190,42.78600776
-169.92425321,-71.07578971,-6.81531765,-13.99703284,21.82240290,-2.34471840
0.51602330,-0.39820086

>  <Name>
ligand

>  <RI>
0

>  <Rbt.Current_Directory>
/home/itssahil/PROJECTS/Mol_Feturizer/New_Systems/rnas/3D2X

>  <Rbt.Executable>
rbdock ($Id: //depot/dev/client3/rdock/2013.1/src/exe/rbdock.cxx#4 $)

>  <Rbt.Library>
libRbt.so (2013.1, Build901 2013/11/27)

>  <Rbt.Parameter_File>
/export/apps/rDock/src/rDock_2013.1_src/data/scripts/dock_solv.prm

>  <Rbt.Receptor>
prm/pocket_docking_2.prm

>  <SCORE>
-19.8496

>  <SCORE.INTER>
-18.1344

>  <SCORE.INTER.CONST>
1

>  <SCORE.INTER.POLAR>
0

>  <SCORE.INTER.ROT>
8

>  <SCORE.INTER.SOLV>
7.56523

>  <SCORE.INTER.VDW>
-23.5447

>  <SCORE.INTER.norm>
-0.697478

>  <SCORE.INTRA>
-1.86242

>  <SCORE.INTRA.DIHEDRAL>
-1.55403

>  <SCORE.INTRA.DIHEDRAL.0>
7.88077

>  <SCORE.INTRA.POLAR>
0

>  <SCORE.INTRA.POLAR.0>
0

>  <SCORE.INTRA.REPUL>
0

>  <SCORE.INTRA.REPUL.0>
0

>  <SCORE.INTRA.SOLV>
-1.16332

>  <SCORE.INTRA.SOLV.lig_0>
-63.2542

>  <SCORE.INTRA.VDW>
-0.503751

>  <SCORE.INTRA.VDW.0>
-3.15072

>  <SCORE.INTRA.norm>
-0.0716317

>  <SCORE.RESTR>
0.147288

>  <SCORE.RESTR.CAVITY>
0.147288

>  <SCORE.RESTR.norm>
0.00566493

>  <SCORE.SYSTEM>
0

>  <SCORE.SYSTEM.CONST>
0

>  <SCORE.SYSTEM.DIHEDRAL>
0

>  <SCORE.SYSTEM.SOLV>
0

>  <SCORE.SYSTEM.norm>
0

>  <SCORE.heavy>
26

>  <SCORE.norm>
-0.763444

>  <RMSD>
1.924

$$$$
ligand
 OpenBabel11021811473D
libRbt.so/2013.1/901 2013/11/27
 26 27  0  0  0  0  0  0  0  0999 V2000
   -7.3031  -13.5521   23.0195 C   0  0  0  0  0  0  0  0  0  0  0  0
  -10.2474  -16.5131   26.2590 C   0  0  0  0  0  0  0  0  0  0  0  0
   -9.7128  -16.3364   24.9871 C   0  0  0  0  0  0  0  0  0  0  0  0
   -8.3403  -15.7091   24.7313 C   0  0  0  0  0  0  0  0  0  0  0  0
   -7.4161  -15.0094   22.5619 C   0  0  1  0  0  0  0  0  0  0  0  0
  -13.5445  -18.2239   25.4020 C   0  0  0  0  0  0  0  0  0  0  0  0
  -12.1838  -17.5404   25.2598 C   0  0  0  0  0  0  0  0  0  0  0  0
  -10.4599  -16.7754   23.8987 C   0  0  0  0  0  0  0  0  0  0  0  0
   -7.9158  -17.2104   22.8602 C   0  0  0  0  0  0  0  0  0  0  0  0
   -7.0215  -15.4178   21.2935 C   0  0  2  0  0  0  0  0  0  0  0  0
   -6.4223  -14.6287   20.1266 C   0  0  0  0  0  0  0  0  0  0  0  0
   -7.3387  -13.5068   19.6326 C   0  0  0  0  0  0  0  0  0  0  0  0
  -11.4957  -17.1213   26.4062 N   0  0  0  0  0  0  0  0  0  0  0  0
   -7.8852  -15.9736   23.3587 N   0  0  0  0  0  0  0  0  0  0  0  0
  -11.6389  -17.3497   24.0497 N   0  0  0  0  0  0  0  0  0  0  0  0
   -9.6247  -16.1398   27.2533 O   0  0  0  0  0  0  0  0  0  0  0  0
   -5.5946  -10.0137   19.4698 O   0  5  0  0  0  0  0  0  0  0  0  0
   -1.7706  -12.4250   20.6171 O   0  0  0  0  0  0  0  0  0  0  0  0
   -6.8240  -12.2147   19.9689 O   0  0  0  0  0  0  0  0  0  0  0  0
   -4.2428  -12.0935   20.0498 O   0  0  0  0  0  0  0  0  0  0  0  0
   -2.4659  -11.9046   18.1803 O   0  5  0  0  0  0  0  0  0  0  0  0
   -5.4721  -11.9774   17.7933 O   0  0  0  0  0  0  0  0  0  0  0  0
   -2.6465  -10.0977   19.9943 O   0  0  0  0  0  0  0  0  0  0  0  0
   -7.3723  -17.1214   21.2057 S   0  0  0  0  0  0  0  0  0  0  0  0
   -5.5332  -11.6033   19.2249 P   0  0  2  0  0  0  0  0  0  0  0  0
   -2.7609  -11.6545   19.6089 P   0  0  2  0  0  0  0  0  0  0  0  0
  2 16  2  0  0  0  0
  2  3  1  0  0  0  0
  2 13  1  0  0  0  0
  3  8  2  0  0  0  0
  3  4  1  0  0  0  0
  4 14  1  0  0  0  0
  5  1  1  1  0  0  0
  5 14  1  0  0  0  0
  5 10  1  0  0  0  0
  6  7  1  0  0  0  0
  7 13  1  0  0  0  0
  7 15  2  0  0  0  0
  8 15  1  0  0  0  0
  9 14  1  0  0  0  0
  9 24  1  0  0  0  0
 10 24  1  0  0  0  0
 10 11  1  6  0  0  0
 11 12  1  0  0  0  0
 12 19  1  0  0  0  0
 17 25  1  0  0  0  0
 19 25  1  0  0  0  0
 20 26  1  0  0  0  0
 21 26  1  0  0  0  0
 22 25  2  0  0  0  0
 23 26  2  0  0  0  0
 25 20  1  1  0  0  0
 26 18  1  1  0  0  0
M  CHG  2  17  -1  21  -1
M  END
>  <CHROM.1>
164.77489078,-60.16083949,109.30523616,131.06316393,71.87960774,-67.00573861
160.02458034,-176.31026021,-7.01873362,-14.27078983,21.81937349,-2.54895668
-0.66110778,-1.54842439

>  <Name>
ligand

>  <RI>
0

>  <Rbt.Current_Directory>
/home/itssahil/PROJECTS/Mol_Feturizer/New_Systems/rnas/3D2X

>  <Rbt.Executable>
rbdock ($Id: //depot/dev/client3/rdock/2013.1/src/exe/rbdock.cxx#4 $)

>  <Rbt.Library>
libRbt.so (2013.1, Build901 2013/11/27)

>  <Rbt.Parameter_File>
/export/apps/rDock/src/rDock_2013.1_src/data/scripts/dock_solv.prm

>  <Rbt.Receptor>
prm/pocket_docking_2.prm

>  <SCORE>
-14.2722

>  <SCORE.INTER>
-17.1824

>  <SCORE.INTER.CONST>
1

>  <SCORE.INTER.POLAR>
0

>  <SCORE.INTER.ROT>
8

>  <SCORE.INTER.SOLV>
6.38009

>  <SCORE.INTER.VDW>
-22.515

>  <SCORE.INTER.norm>
-0.660861

>  <SCORE.INTRA>
2.76924

>  <SCORE.INTRA.DIHEDRAL>
3.49517

>  <SCORE.INTRA.DIHEDRAL.0>
7.88077

>  <SCORE.INTRA.POLAR>
0

>  <SCORE.INTRA.POLAR.0>
0

>  <SCORE.INTRA.REPUL>
0

>  <SCORE.INTRA.REPUL.0>
0

>  <SCORE.INTRA.SOLV>
0.920448

>  <SCORE.INTRA.SOLV.lig_0>
-63.2542

>  <SCORE.INTRA.VDW>
0.561432

>  <SCORE.INTRA.VDW.0>
-3.15072

>  <SCORE.INTRA.norm>
0.106509

>  <SCORE.RESTR>
0.140981

>  <SCORE.RESTR.CAVITY>
0.140981

>  <SCORE.RESTR.norm>
0.00542234

>  <SCORE.SYSTEM>
0

>  <SCORE.SYSTEM.CONST>
0

>  <SCORE.SYSTEM.DIHEDRAL>
0

>  <SCORE.SYSTEM.SOLV>
0

>  <SCORE.SYSTEM.norm>
0

>  <SCORE.heavy>
26

>  <SCORE.norm>
-0.54893

>  <RMSD>
1.926

$$$$
ligand
 OpenBabel11021811473D
libRbt.so/2013.1/901 2013/11/27
 26 27  0  0  0  0  0  0  0  0999 V2000
   -6.6102  -17.4609   23.1505 C   0  0  0  0  0  0  0  0  0  0  0  0
  -10.0250  -16.9558   26.5759 C   0  0  0  0  0  0  0  0  0  0  0  0
   -9.4640  -16.5477   25.3703 C   0  0  0  0  0  0  0  0  0  0  0  0
   -8.0466  -15.9828   25.2507 C   0  0  0  0  0  0  0  0  0  0  0  0
   -7.1665  -16.0475   22.9547 C   0  0  1  0  0  0  0  0  0  0  0  0
  -13.4276  -18.1930   25.3825 C   0  0  0  0  0  0  0  0  0  0  0  0
  -12.0191  -17.5970   25.3861 C   0  0  0  0  0  0  0  0  0  0  0  0
  -10.2282  -16.6845   24.2158 C   0  0  0  0  0  0  0  0  0  0  0  0
   -8.2808  -14.1801   23.6289 C   0  0  0  0  0  0  0  0  0  0  0  0
   -7.0372  -15.3630   21.7522 C   0  0  2  0  0  0  0  0  0  0  0  0
   -6.3878  -15.7744   20.4284 C   0  0  0  0  0  0  0  0  0  0  0  0
   -6.6328  -14.7644   19.3050 C   0  0  0  0  0  0  0  0  0  0  0  0
  -11.3159  -17.4879   26.5932 N   0  0  0  0  0  0  0  0  0  0  0  0
   -7.8207  -15.3974   23.9213 N   0  0  0  0  0  0  0  0  0  0  0  0
  -11.4476  -17.1894   24.2438 N   0  0  0  0  0  0  0  0  0  0  0  0
   -9.3885  -16.8536   27.6248 O   0  0  0  0  0  0  0  0  0  0  0  0
   -4.0101  -14.7802   17.7815 O   0  5  0  0  0  0  0  0  0  0  0  0
   -3.5667  -11.9668   21.2264 O   0  0  0  0  0  0  0  0  0  0  0  0
   -5.7083  -13.6736   19.3614 O   0  0  0  0  0  0  0  0  0  0  0  0
   -3.5167  -12.4630   18.7175 O   0  0  0  0  0  0  0  0  0  0  0  0
   -2.2419  -10.4107   19.6403 O   0  5  0  0  0  0  0  0  0  0  0  0
   -3.4553  -14.4975   20.2902 O   0  0  0  0  0  0  0  0  0  0  0  0
   -4.8080  -10.4357   19.5875 O   0  0  0  0  0  0  0  0  0  0  0  0
   -7.7663  -13.8018   22.0062 S   0  0  0  0  0  0  0  0  0  0  0  0
   -4.1315  -13.8935   19.1192 P   0  0  2  0  0  0  0  0  0  0  0  0
   -3.4434  -11.2629   19.7842 P   0  0  2  0  0  0  0  0  0  0  0  0
  2 16  2  0  0  0  0
  2  3  1  0  0  0  0
  2 13  1  0  0  0  0
  3  8  2  0  0  0  0
  3  4  1  0  0  0  0
  4 14  1  0  0  0  0
  5  1  1  6  0  0  0
  5 14  1  0  0  0  0
  5 10  1  0  0  0  0
  6  7  1  0  0  0  0
  7 13  1  0  0  0  0
  7 15  2  0  0  0  0
  8 15  1  0  0  0  0
  9 14  1  0  0  0  0
  9 24  1  0  0  0  0
 10 24  1  0  0  0  0
 10 11  1  1  0  0  0
 11 12  1  0  0  0  0
 12 19  1  0  0  0  0
 17 25  1  0  0  0  0
 19 25  1  0  0  0  0
 20 26  1  0  0  0  0
 21 26  1  0  0  0  0
 22 25  2  0  0  0  0
 23 26  2  0  0  0  0
 25 20  1  6  0  0  0
 26 18  1  1  0  0  0
M  CHG  2  17  -1  21  -1
M  END
>  <CHROM.1>
-168.87509130,172.73107926,82.65857299,-100.05445321,65.35918140,-179.92151721
48.13229786,19.50548874,-6.82265123,-14.64518211,22.05085783,2.89746516,0.81904469
0.98080900

>  <Name>
ligand

>  <RI>
0

>  <Rbt.Current_Directory>
/home/itssahil/PROJECTS/Mol_Feturizer/New_Systems/rnas/3D2X

>  <Rbt.Executable>
rbdock ($Id: //depot/dev/client3/rdock/2013.1/src/exe/rbdock.cxx#4 $)

>  <Rbt.Library>
libRbt.so (2013.1, Build901 2013/11/27)

>  <Rbt.Parameter_File>
/export/apps/rDock/src/rDock_2013.1_src/data/scripts/dock_solv.prm

>  <Rbt.Receptor>
prm/pocket_docking_2.prm

>  <SCORE>
-18.553

>  <SCORE.INTER>
-18.5442

>  <SCORE.INTER.CONST>
1

>  <SCORE.INTER.POLAR>
0

>  <SCORE.INTER.ROT>
8

>  <SCORE.INTER.SOLV>
8.8319

>  <SCORE.INTER.VDW>
-24.2401

>  <SCORE.INTER.norm>
-0.713239

>  <SCORE.INTRA>
-0.00881734

>  <SCORE.INTRA.DIHEDRAL>
0.524515

>  <SCORE.INTRA.DIHEDRAL.0>
7.88077

>  <SCORE.INTRA.POLAR>
0

>  <SCORE.INTRA.POLAR.0>
0

>  <SCORE.INTRA.REPUL>
0

>  <SCORE.INTRA.REPUL.0>
0

>  <SCORE.INTRA.SOLV>
-1.43644

>  <SCORE.INTRA.SOLV.lig_0>
-63.2542

>  <SCORE.INTRA.VDW>
0.447147

>  <SCORE.INTRA.VDW.0>
-3.15072

>  <SCORE.INTRA.norm>
-0.000339129

>  <SCORE.RESTR>
0

>  <SCORE.RESTR.CAVITY>
0

>  <SCORE.RESTR.norm>
0

>  <SCORE.SYSTEM>
0

>  <SCORE.SYSTEM.CONST>
0

>  <SCORE.SYSTEM.DIHEDRAL>
0

>  <SCORE.SYSTEM.SOLV>
0

>  <SCORE.SYSTEM.norm>
0

>  <SCORE.heavy>
26

>  <SCORE.norm>
-0.713578

>  <RMSD>
1.953

$$$$
ligand
 OpenBabel11021811473D
libRbt.so/2013.1/901 2013/11/27
 26 27  0  0  0  0  0  0  0  0999 V2000
   -8.3395  -13.7380   23.3279 C   0  0  0  0  0  0  0  0  0  0  0  0
  -10.4071  -16.7857   24.1057 C   0  0  0  0  0  0  0  0  0  0  0  0
   -9.6094  -16.5932   25.2289 C   0  0  0  0  0  0  0  0  0  0  0  0
   -8.1867  -16.0324   25.1640 C   0  0  0  0  0  0  0  0  0  0  0  0
   -7.7130  -15.0822   22.9452 C   0  0  1  0  0  0  0  0  0  0  0  0
  -13.6022  -18.0844   25.7296 C   0  0  0  0  0  0  0  0  0  0  0  0
  -12.1763  -17.5635   25.5438 C   0  0  0  0  0  0  0  0  0  0  0  0
  -10.1475  -16.9074   26.4727 C   0  0  0  0  0  0  0  0  0  0  0  0
   -7.0604  -17.2232   23.3616 C   0  0  0  0  0  0  0  0  0  0  0  0
   -7.1582  -15.3080   21.6912 C   0  0  2  0  0  0  0  0  0  0  0  0
   -7.0189  -14.3883   20.4754 C   0  0  0  0  0  0  0  0  0  0  0  0
   -6.1237  -13.1764   20.7441 C   0  0  0  0  0  0  0  0  0  0  0  0
  -11.7061  -17.2753   24.2557 N   0  0  0  0  0  0  0  0  0  0  0  0
   -7.6497  -16.1089   23.7977 N   0  0  0  0  0  0  0  0  0  0  0  0
  -11.3773  -17.3693   26.6028 N   0  0  0  0  0  0  0  0  0  0  0  0
   -9.9751  -16.5234   22.9831 O   0  0  0  0  0  0  0  0  0  0  0  0
   -6.0922  -12.8203   17.0331 O   0  5  0  0  0  0  0  0  0  0  0  0
   -2.7026   -9.7279   17.7039 O   0  0  0  0  0  0  0  0  0  0  0  0
   -5.9168  -12.3972   19.5619 O   0  0  0  0  0  0  0  0  0  0  0  0
   -3.8969  -11.9698   18.0060 O   0  0  0  0  0  0  0  0  0  0  0  0
   -5.0233  -10.0976   16.6223 O   0  5  0  0  0  0  0  0  0  0  0  0
   -4.6521  -14.3761   18.5121 O   0  0  0  0  0  0  0  0  0  0  0  0
   -4.7998   -9.8808   19.1701 O   0  0  0  0  0  0  0  0  0  0  0  0
   -6.6193  -16.9642   21.6946 S   0  0  0  0  0  0  0  0  0  0  0  0
   -5.1101  -12.9841   18.2977 P   0  0  2  0  0  0  0  0  0  0  0  0
   -4.1629  -10.3997   17.7880 P   0  0  2  0  0  0  0  0  0  0  0  0
  2 16  2  0  0  0  0
  2  3  1  0  0  0  0
  2 13  1  0  0  0  0
  3  8  2  0  0  0  0
  3  4  1  0  0  0  0
  4 14  1  0  0  0  0
  5  1  1  1  0  0  0
  5 14  1  0  0  0  0
  5 10  1  0  0  0  0
  6  7  1  0  0  0  0
  7 13  1  0  0  0  0
  7 15  2  0  0  0  0
  8 15  1  0  0  0  0
  9 14  1  0  0  0  0
  9 24  1  0  0  0  0
 10 24  1  0  0  0  0
 10 11  1  6  0  0  0
 11 12  1  0  0  0  0
 12 19  1  0  0  0  0
 17 25  1  0  0  0  0
 19 25  1  0  0  0  0
 20 26  1  0  0  0  0
 21 26  1  0  0  0  0
 22 25  2  0  0  0  0
 23 26  2  0  0  0  0
 25 20  1  6  0  0  0
 26 18  1  6  0  0  0
M  CHG  2  17  -1  21  -1
M  END
>  <CHROM.1>
-16.87399964,63.64536392,174.94729477,95.22333989,-65.59727141,58.10760477
125.23912608,173.43559184,-7.18585224,-14.32592571,21.30893005,2.38925700
-0.70820335,2.86808281

>  <Name>
ligand

>  <RI>
0

>  <Rbt.Current_Directory>
/home/itssahil/PROJECTS/Mol_Feturizer/New_Systems/rnas/3D2X

>  <Rbt.Executable>
rbdock ($Id: //depot/dev/client3/rdock/2013.1/src/exe/rbdock.cxx#4 $)

>  <Rbt.Library>
libRbt.so (2013.1, Build901 2013/11/27)

>  <Rbt.Parameter_File>
/export/apps/rDock/src/rDock_2013.1_src/data/scripts/dock_solv.prm

>  <Rbt.Receptor>
prm/pocket_docking_3.prm

>  <SCORE>
-18.7251

>  <SCORE.INTER>
-19.7972

>  <SCORE.INTER.CONST>
1

>  <SCORE.INTER.POLAR>
0

>  <SCORE.INTER.ROT>
8

>  <SCORE.INTER.SOLV>
10.1469

>  <SCORE.INTER.VDW>
-25.5138

>  <SCORE.INTER.norm>
-0.761432

>  <SCORE.INTRA>
1.0721

>  <SCORE.INTRA.DIHEDRAL>
-0.647219

>  <SCORE.INTRA.DIHEDRAL.0>
7.88077

>  <SCORE.INTRA.POLAR>
0

>  <SCORE.INTRA.POLAR.0>
0

>  <SCORE.INTRA.REPUL>
0

>  <SCORE.INTRA.REPUL.0>
0

>  <SCORE.INTRA.SOLV>
1.87083

>  <SCORE.INTRA.SOLV.lig_0>
-63.2542

>  <SCORE.INTRA.VDW>
0.460299

>  <SCORE.INTRA.VDW.0>
-3.15072

>  <SCORE.INTRA.norm>
0.0412347

>  <SCORE.RESTR>
0

>  <SCORE.RESTR.CAVITY>
0

>  <SCORE.RESTR.norm>
0

>  <SCORE.SYSTEM>
0

>  <SCORE.SYSTEM.CONST>
0

>  <SCORE.SYSTEM.DIHEDRAL>
0

>  <SCORE.SYSTEM.SOLV>
0

>  <SCORE.SYSTEM.norm>
0

>  <SCORE.heavy>
26

>  <SCORE.norm>
-0.720197

>  <RMSD>
1.977

$$$$
ligand
 OpenBabel11021811473D
libRbt.so/2013.1/901 2013/11/27
 26 27  0  0  0  0  0  0  0  0999 V2000
   -8.4838  -14.0351   23.3538 C   0  0  0  0  0  0  0  0  0  0  0  0
  -10.0718  -17.3520   24.0840 C   0  0  0  0  0  0  0  0  0  0  0  0
   -9.2672  -16.8463   25.0996 C   0  0  0  0  0  0  0  0  0  0  0  0
   -7.8036  -16.4484   24.8939 C   0  0  0  0  0  0  0  0  0  0  0  0
   -7.7858  -15.2541   22.7436 C   0  0  1  0  0  0  0  0  0  0  0  0
  -13.3699  -17.7764   25.9482 C   0  0  0  0  0  0  0  0  0  0  0  0
  -11.9056  -17.4575   25.6426 C   0  0  0  0  0  0  0  0  0  0  0  0
   -9.8354  -16.6751   26.3579 C   0  0  0  0  0  0  0  0  0  0  0  0
   -6.8527  -17.3289   22.8310 C   0  0  0  0  0  0  0  0  0  0  0  0
   -7.4128  -15.2986   21.4056 C   0  0  2  0  0  0  0  0  0  0  0  0
   -7.5635  -14.2643   20.2872 C   0  0  0  0  0  0  0  0  0  0  0  0
   -6.3761  -13.3026   20.2007 C   0  0  0  0  0  0  0  0  0  0  0  0
  -11.4069  -17.6632   24.3494 N   0  0  0  0  0  0  0  0  0  0  0  0
   -7.4815  -16.3374   23.4638 N   0  0  0  0  0  0  0  0  0  0  0  0
  -11.0991  -16.9722   26.5975 N   0  0  0  0  0  0  0  0  0  0  0  0
   -9.6142  -17.5225   22.9538 O   0  0  0  0  0  0  0  0  0  0  0  0
   -2.7404  -14.2392   19.0412 O   0  5  0  0  0  0  0  0  0  0  0  0
   -2.8795  -13.0091   16.4799 O   0  0  0  0  0  0  0  0  0  0  0  0
   -5.1683  -13.9818   19.8435 O   0  0  0  0  0  0  0  0  0  0  0  0
   -3.9803  -12.0611   18.5853 O   0  0  0  0  0  0  0  0  0  0  0  0
   -5.4047  -13.3949   16.8880 O   0  5  0  0  0  0  0  0  0  0  0  0
   -3.2986  -12.6431   20.9963 O   0  0  0  0  0  0  0  0  0  0  0  0
   -4.5287  -11.0550   16.3002 O   0  0  0  0  0  0  0  0  0  0  0  0
   -6.7074  -16.8711   21.1547 S   0  0  0  0  0  0  0  0  0  0  0  0
   -3.7698  -13.1954   19.7055 P   0  0  2  0  0  0  0  0  0  0  0  0
   -4.2760  -12.4522   17.0546 P   0  0  2  0  0  0  0  0  0  0  0  0
  2 16  2  0  0  0  0
  2  3  1  0  0  0  0
  2 13  1  0  0  0  0
  3  8  2  0  0  0  0
  3  4  1  0  0  0  0
  4 14  1  0  0  0  0
  5  1  1  1  0  0  0
  5 14  1  0  0  0  0
  5 10  1  0  0  0  0
  6  7  1  0  0  0  0
  7 13  1  0  0  0  0
  7 15  2  0  0  0  0
  8 15  1  0  0  0  0
  9 14  1  0  0  0  0
  9 24  1  0  0  0  0
 10 24  1  0  0  0  0
 10 11  1  6  0  0  0
 11 12  1  0  0  0  0
 12 19  1  0  0  0  0
 17 25  1  0  0  0  0
 19 25  1  0  0  0  0
 20 26  1  0  0  0  0
 21 26  1  0  0  0  0
 22 25  2  0  0  0  0
 23 26  2  0  0  0  0
 25 20  1  6  0  0  0
 26 18  1  6  0  0  0
M  CHG  2  17  -1  21  -1
M  END
>  <CHROM.1>
14.73120764,88.95392179,64.68240636,80.69440173,-179.18541952,47.10024969
-169.98554683,-72.71796923,-6.84808499,-14.91301058,21.30765699,2.24700090
0.18587240,1.98257640

>  <Name>
ligand

>  <RI>
0

>  <Rbt.Current_Directory>
/home/itssahil/PROJECTS/Mol_Feturizer/New_Systems/rnas/3D2X

>  <Rbt.Executable>
rbdock ($Id: //depot/dev/client3/rdock/2013.1/src/exe/rbdock.cxx#4 $)

>  <Rbt.Library>
libRbt.so (2013.1, Build901 2013/11/27)

>  <Rbt.Parameter_File>
/export/apps/rDock/src/rDock_2013.1_src/data/scripts/dock_solv.prm

>  <Rbt.Receptor>
prm/pocket_docking_3.prm

>  <SCORE>
-20.7625

>  <SCORE.INTER>
-18.4154

>  <SCORE.INTER.CONST>
1

>  <SCORE.INTER.POLAR>
0

>  <SCORE.INTER.ROT>
8

>  <SCORE.INTER.SOLV>
8.51798

>  <SCORE.INTER.VDW>
-24.0496

>  <SCORE.INTER.norm>
-0.708287

>  <SCORE.INTRA>
-2.34706

>  <SCORE.INTRA.DIHEDRAL>
-2.49468

>  <SCORE.INTRA.DIHEDRAL.0>
7.88077

>  <SCORE.INTRA.POLAR>
0

>  <SCORE.INTRA.POLAR.0>
0

>  <SCORE.INTRA.REPUL>
0

>  <SCORE.INTRA.REPUL.0>
0

>  <SCORE.INTRA.SOLV>
-0.470936

>  <SCORE.INTRA.SOLV.lig_0>
-63.2542

>  <SCORE.INTRA.VDW>
-0.864251

>  <SCORE.INTRA.VDW.0>
-3.15072

>  <SCORE.INTRA.norm>
-0.0902714

>  <SCORE.RESTR>
0

>  <SCORE.RESTR.CAVITY>
0

>  <SCORE.RESTR.norm>
0

>  <SCORE.SYSTEM>
0

>  <SCORE.SYSTEM.CONST>
0

>  <SCORE.SYSTEM.DIHEDRAL>
0

>  <SCORE.SYSTEM.SOLV>
0

>  <SCORE.SYSTEM.norm>
0

>  <SCORE.heavy>
26

>  <SCORE.norm>
-0.798558

>  <RMSD>
1.979

$$$$
ligand
 OpenBabel11021811473D
libRbt.so/2013.1/901 2013/11/27
 26 27  0  0  0  0  0  0  0  0999 V2000
   -7.5649  -16.8583   21.8136 C   0  0  0  0  0  0  0  0  0  0  0  0
   -9.9604  -16.7499   26.3278 C   0  0  0  0  0  0  0  0  0  0  0  0
   -9.4421  -16.8119   25.0385 C   0  0  0  0  0  0  0  0  0  0  0  0
   -7.9997  -16.4342   24.6928 C   0  0  0  0  0  0  0  0  0  0  0  0
   -7.7578  -15.4745   22.4410 C   0  0  1  0  0  0  0  0  0  0  0  0
  -13.4976  -18.0368   25.7240 C   0  0  0  0  0  0  0  0  0  0  0  0
  -12.0553  -17.5882   25.4841 C   0  0  0  0  0  0  0  0  0  0  0  0
  -10.2768  -17.2629   24.0210 C   0  0  0  0  0  0  0  0  0  0  0  0
   -8.1381  -14.0564   24.1810 C   0  0  0  0  0  0  0  0  0  0  0  0
   -7.7502  -14.3113   21.6805 C   0  0  2  0  0  0  0  0  0  0  0  0
   -7.5773  -14.0984   20.1745 C   0  0  0  0  0  0  0  0  0  0  0  0
   -6.1383  -13.7549   19.7824 C   0  0  0  0  0  0  0  0  0  0  0  0
  -11.2802  -17.1408   26.5623 N   0  0  0  0  0  0  0  0  0  0  0  0
   -7.9594  -15.3063   23.7509 N   0  0  0  0  0  0  0  0  0  0  0  0
  -11.5230  -17.6305   24.2542 N   0  0  0  0  0  0  0  0  0  0  0  0
   -9.2611  -16.3561   27.2615 O   0  0  0  0  0  0  0  0  0  0  0  0
   -4.9743  -12.4668   16.2557 O   0  5  0  0  0  0  0  0  0  0  0  0
   -2.1668  -11.1057   16.9902 O   0  0  0  0  0  0  0  0  0  0  0  0
   -6.0322  -13.4193   18.3954 O   0  0  0  0  0  0  0  0  0  0  0  0
   -4.1351  -11.6678   18.5243 O   0  0  0  0  0  0  0  0  0  0  0  0
   -4.3427   -9.7143   16.8423 O   0  5  0  0  0  0  0  0  0  0  0  0
   -3.6249  -14.0724   17.7666 O   0  0  0  0  0  0  0  0  0  0  0  0
   -2.8111   -9.5122   18.8920 O   0  0  0  0  0  0  0  0  0  0  0  0
   -7.9551  -12.9987   22.8067 S   0  0  0  0  0  0  0  0  0  0  0  0
   -4.6274  -12.9826   17.7403 P   0  0  2  0  0  0  0  0  0  0  0  0
   -3.4301  -10.4523   17.7439 P   0  0  2  0  0  0  0  0  0  0  0  0
  2 16  2  0  0  0  0
  2  3  1  0  0  0  0
  2 13  1  0  0  0  0
  3  8  2  0  0  0  0
  3  4  1  0  0  0  0
  4 14  1  0  0  0  0
  5  1  1  6  0  0  0
  5 14  1  0  0  0  0
  5 10  1  0  0  0  0
  6  7  1  0  0  0  0
  7 13  1  0  0  0  0
  7 15  2  0  0  0  0
  8 15  1  0  0  0  0
  9 14  1  0  0  0  0
  9 24  1  0  0  0  0
 10 24  1  0  0  0  0
 10 11  1  1  0  0  0
 11 12  1  0  0  0  0
 12 19  1  0  0  0  0
 17 25  1  0  0  0  0
 19 25  1  0  0  0  0
 20 26  1  0  0  0  0
 21 26  1  0  0  0  0
 22 25  2  0  0  0  0
 23 26  2  0  0  0  0
 25 20  1  1  0  0  0
 26 18  1  6  0  0  0
M  CHG  2  17  -1  21  -1
M  END
>  <CHROM.1>
-118.51264794,-96.42800144,-173.67180432,-100.22299585,178.43327642,-28.74002523
-171.07467468,-56.46314002,-6.99487008,-14.06579776,21.28007346,2.72905624
0.88976400,1.12846702

>  <Name>
ligand

>  <RI>
0

>  <Rbt.Current_Directory>
/home/itssahil/PROJECTS/Mol_Feturizer/New_Systems/rnas/3D2X

>  <Rbt.Executable>
rbdock ($Id: //depot/dev/client3/rdock/2013.1/src/exe/rbdock.cxx#4 $)

>  <Rbt.Library>
libRbt.so (2013.1, Build901 2013/11/27)

>  <Rbt.Parameter_File>
/export/apps/rDock/src/rDock_2013.1_src/data/scripts/dock_solv.prm

>  <Rbt.Receptor>
prm/pocket_docking_3.prm

>  <SCORE>
-21.5654

>  <SCORE.INTER>
-19.8408

>  <SCORE.INTER.CONST>
1

>  <SCORE.INTER.POLAR>
0

>  <SCORE.INTER.ROT>
8

>  <SCORE.INTER.SOLV>
13.2376

>  <SCORE.INTER.VDW>
-26.5731

>  <SCORE.INTER.norm>
-0.763109

>  <SCORE.INTRA>
-1.72459

>  <SCORE.INTRA.DIHEDRAL>
-1.13313

>  <SCORE.INTRA.DIHEDRAL.0>
7.88077

>  <SCORE.INTRA.POLAR>
0

>  <SCORE.INTRA.POLAR.0>
0

>  <SCORE.INTRA.REPUL>
0

>  <SCORE.INTRA.REPUL.0>
0

>  <SCORE.INTRA.SOLV>
-1.72973

>  <SCORE.INTRA.SOLV.lig_0>
-63.2542

>  <SCORE.INTRA.VDW>
-0.293163

>  <SCORE.INTRA.VDW.0>
-3.15072

>  <SCORE.INTRA.norm>
-0.0663306

>  <SCORE.RESTR>
0

>  <SCORE.RESTR.CAVITY>
0

>  <SCORE.RESTR.norm>
0

>  <SCORE.SYSTEM>
0

>  <SCORE.SYSTEM.CONST>
0

>  <SCORE.SYSTEM.DIHEDRAL>
0

>  <SCORE.SYSTEM.SOLV>
0

>  <SCORE.SYSTEM.norm>
0

>  <SCORE.heavy>
26

>  <SCORE.norm>
-0.82944

>  <RMSD>
1.987

$$$$
ligand
 OpenBabel11021811473D
libRbt.so/2013.1/901 2013/11/27
 26 27  0  0  0  0  0  0  0  0999 V2000
   -8.4007  -13.8800   23.2457 C   0  0  0  0  0  0  0  0  0  0  0  0
   -9.6616  -16.5449   26.5176 C   0  0  0  0  0  0  0  0  0  0  0  0
   -9.1274  -16.5994   25.2345 C   0  0  0  0  0  0  0  0  0  0  0  0
   -7.6863  -16.2022   24.9059 C   0  0  0  0  0  0  0  0  0  0  0  0
   -7.7776  -15.1596   22.6799 C   0  0  1  0  0  0  0  0  0  0  0  0
  -13.1740  -17.8786   25.8719 C   0  0  0  0  0  0  0  0  0  0  0  0
  -11.7350  -17.4107   25.6491 C   0  0  0  0  0  0  0  0  0  0  0  0
   -9.9440  -17.0609   24.2070 C   0  0  0  0  0  0  0  0  0  0  0  0
   -6.8974  -17.2520   22.8539 C   0  0  0  0  0  0  0  0  0  0  0  0
   -7.4948  -15.3077   21.3273 C   0  0  2  0  0  0  0  0  0  0  0  0
   -7.6907  -14.3484   20.1505 C   0  0  0  0  0  0  0  0  0  0  0  0
   -6.4085  -13.6060   19.7669 C   0  0  0  0  0  0  0  0  0  0  0  0
  -10.9788  -16.9536   26.7365 N   0  0  0  0  0  0  0  0  0  0  0  0
   -7.4561  -16.1999   23.4539 N   0  0  0  0  0  0  0  0  0  0  0  0
  -11.1879  -17.4452   24.4255 N   0  0  0  0  0  0  0  0  0  0  0  0
   -8.9786  -16.1424   27.4596 O   0  0  0  0  0  0  0  0  0  0  0  0
   -3.4813  -12.7608   20.3950 O   0  5  0  0  0  0  0  0  0  0  0  0
   -5.1003   -8.4661   19.5637 O   0  0  0  0  0  0  0  0  0  0  0  0
   -6.0218  -12.6618   20.7702 O   0  0  0  0  0  0  0  0  0  0  0  0
   -4.8519  -10.9843   19.1888 O   0  0  0  0  0  0  0  0  0  0  0  0
   -6.3725   -9.6020   17.6186 O   0  5  0  0  0  0  0  0  0  0  0  0
   -4.5201  -10.8086   21.7335 O   0  0  0  0  0  0  0  0  0  0  0  0
   -7.0649  -10.0390   20.0512 O   0  0  0  0  0  0  0  0  0  0  0  0
   -6.8503  -16.9152   21.1436 S   0  0  0  0  0  0  0  0  0  0  0  0
   -4.7107  -11.7424   20.5999 P   0  0  2  0  0  0  0  0  0  0  0  0
   -5.8770   -9.7601   19.0042 P   0  0  2  0  0  0  0  0  0  0  0  0
  2 16  2  0  0  0  0
  2  3  1  0  0  0  0
  2 13  1  0  0  0  0
  3  8  2  0  0  0  0
  3  4  1  0  0  0  0
  4 14  1  0  0  0  0
  5  1  1  1  0  0  0
  5 14  1  0  0  0  0
  5 10  1  0  0  0  0
  6  7  1  0  0  0  0
  7 13  1  0  0  0  0
  7 15  2  0  0  0  0
  8 15  1  0  0  0  0
  9 14  1  0  0  0  0
  9 24  1  0  0  0  0
 10 24  1  0  0  0  0
 10 11  1  6  0  0  0
 11 12  1  0  0  0  0
 12 19  1  0  0  0  0
 17 25  1  0  0  0  0
 19 25  1  0  0  0  0
 20 26  1  0  0  0  0
 21 26  1  0  0  0  0
 22 25  2  0  0  0  0
 23 26  2  0  0  0  0
 25 20  1  6  0  0  0
 26 18  1  1  0  0  0
M  CHG  2  17  -1  21  -1
M  END
>  <CHROM.1>
-172.83374951,98.89249889,-69.15066371,83.22165913,-179.48778650,-173.64996877
-57.24911587,82.70266623,-7.34564675,-13.95017241,22.10419288,2.28672063
-0.74535082,2.94401698

>  <Name>
ligand

>  <RI>
0

>  <Rbt.Current_Directory>
/home/itssahil/PROJECTS/Mol_Feturizer/New_Systems/rnas/3D2X

>  <Rbt.Executable>
rbdock ($Id: //depot/dev/client3/rdock/2013.1/src/exe/rbdock.cxx#4 $)

>  <Rbt.Library>
libRbt.so (2013.1, Build901 2013/11/27)

>  <Rbt.Parameter_File>
/export/apps/rDock/src/rDock_2013.1_src/data/scripts/dock_solv.prm

>  <Rbt.Receptor>
prm/pocket_docking_3.prm

>  <SCORE>
-23.6079

>  <SCORE.INTER>
-21.7277

>  <SCORE.INTER.CONST>
1

>  <SCORE.INTER.POLAR>
0

>  <SCORE.INTER.ROT>
8

>  <SCORE.INTER.SOLV>
10.8502

>  <SCORE.INTER.VDW>
-27.0352

>  <SCORE.INTER.norm>
-0.835681

>  <SCORE.INTRA>
-1.88021

>  <SCORE.INTRA.DIHEDRAL>
-1.27954

>  <SCORE.INTRA.DIHEDRAL.0>
7.88077

>  <SCORE.INTRA.POLAR>
0

>  <SCORE.INTRA.POLAR.0>
0

>  <SCORE.INTRA.REPUL>
0

>  <SCORE.INTRA.REPUL.0>
0

>  <SCORE.INTRA.SOLV>
-0.764455

>  <SCORE.INTRA.SOLV.lig_0>
-63.2542

>  <SCORE.INTRA.VDW>
-0.858218

>  <SCORE.INTRA.VDW.0>
-3.15072

>  <SCORE.INTRA.norm>
-0.0723159

>  <SCORE.RESTR>
0

>  <SCORE.RESTR.CAVITY>
0

>  <SCORE.RESTR.norm>
0

>  <SCORE.SYSTEM>
0

>  <SCORE.SYSTEM.CONST>
0

>  <SCORE.SYSTEM.DIHEDRAL>
0

>  <SCORE.SYSTEM.SOLV>
0

>  <SCORE.SYSTEM.norm>
0

>  <SCORE.heavy>
26

>  <SCORE.norm>
-0.907997

>  <RMSD>
1.992

$$$$
ligand
 OpenBabel11021811473D
libRbt.so/2013.1/901 2013/11/27
 26 27  0  0  0  0  0  0  0  0999 V2000
   -8.3286  -13.8837   23.3400 C   0  0  0  0  0  0  0  0  0  0  0  0
  -10.0013  -17.2301   23.9791 C   0  0  0  0  0  0  0  0  0  0  0  0
   -9.1903  -16.7897   25.0198 C   0  0  0  0  0  0  0  0  0  0  0  0
   -7.7361  -16.3534   24.8261 C   0  0  0  0  0  0  0  0  0  0  0  0
   -7.6736  -15.1129   22.7030 C   0  0  1  0  0  0  0  0  0  0  0  0
  -13.2658  -17.8487   25.8480 C   0  0  0  0  0  0  0  0  0  0  0  0
  -11.8111  -17.4835   25.5486 C   0  0  0  0  0  0  0  0  0  0  0  0
   -9.7433  -16.7237   26.2947 C   0  0  0  0  0  0  0  0  0  0  0  0
   -6.8148  -17.2209   22.7443 C   0  0  0  0  0  0  0  0  0  0  0  0
   -7.3010  -15.1408   21.3644 C   0  0  2  0  0  0  0  0  0  0  0  0
   -7.4138  -14.0771   20.2693 C   0  0  0  0  0  0  0  0  0  0  0  0
   -6.3326  -14.2112   19.1944 C   0  0  0  0  0  0  0  0  0  0  0  0
  -11.3276  -17.5824   24.2372 N   0  0  0  0  0  0  0  0  0  0  0  0
   -7.4087  -16.2221   23.3990 N   0  0  0  0  0  0  0  0  0  0  0  0
  -10.9988  -17.0589   26.5272 N   0  0  0  0  0  0  0  0  0  0  0  0
   -9.5570  -17.3069   22.8334 O   0  0  0  0  0  0  0  0  0  0  0  0
   -3.0280  -12.4251   20.3006 O   0  5  0  0  0  0  0  0  0  0  0  0
   -3.8939  -10.0762   17.1959 O   0  0  0  0  0  0  0  0  0  0  0  0
   -5.0301  -13.9257   19.7136 O   0  0  0  0  0  0  0  0  0  0  0  0
   -5.0144  -11.4250   19.0584 O   0  0  0  0  0  0  0  0  0  0  0  0
   -3.2815  -12.5691   17.5168 O   0  5  0  0  0  0  0  0  0  0  0  0
   -5.2849  -12.1139   21.5219 O   0  0  0  0  0  0  0  0  0  0  0  0
   -5.5917  -11.9069   16.6152 O   0  0  0  0  0  0  0  0  0  0  0  0
   -6.6515  -16.7313   21.0787 S   0  0  0  0  0  0  0  0  0  0  0  0
   -4.6359  -12.4539   20.2348 P   0  0  2  0  0  0  0  0  0  0  0  0
   -4.3641  -11.5630   17.5950 P   0  0  2  0  0  0  0  0  0  0  0  0
  2 16  2  0  0  0  0
  2  3  1  0  0  0  0
  2 13  1  0  0  0  0
  3  8  2  0  0  0  0
  3  4  1  0  0  0  0
  4 14  1  0  0  0  0
  5  1  1  1  0  0  0
  5 14  1  0  0  0  0
  5 10  1  0  0  0  0
  6  7  1  0  0  0  0
  7 13  1  0  0  0  0
  7 15  2  0  0  0  0
  8 15  1  0  0  0  0
  9 14  1  0  0  0  0
  9 24  1  0  0  0  0
 10 24  1  0  0  0  0
 10 11  1  6  0  0  0
 11 12  1  0  0  0  0
 12 19  1  0  0  0  0
 17 25  1  0  0  0  0
 19 25  1  0  0  0  0
 20 26  1  0  0  0  0
 21 26  1  0  0  0  0
 22 25  2  0  0  0  0
 23 26  2  0  0  0  0
 25 20  1  6  0  0  0
 26 18  1  6  0  0  0
M  CHG  2  17  -1  21  -1
M  END
>  <CHROM.1>
10.67492175,151.67571382,-67.13740008,84.27002686,-65.51295290,53.20893730
-163.09399010,-133.35225485,-6.98747312,-14.54753932,21.45697954,-2.51463898
-0.76799223,-1.65836358

>  <Name>
ligand

>  <RI>
0

>  <Rbt.Current_Directory>
/home/itssahil/PROJECTS/Mol_Feturizer/New_Systems/rnas/3D2X

>  <Rbt.Executable>
rbdock ($Id: //depot/dev/client3/rdock/2013.1/src/exe/rbdock.cxx#4 $)

>  <Rbt.Library>
libRbt.so (2013.1, Build901 2013/11/27)

>  <Rbt.Parameter_File>
/export/apps/rDock/src/rDock_2013.1_src/data/scripts/dock_solv.prm

>  <Rbt.Receptor>
prm/pocket_docking_3.prm

>  <SCORE>
-18.7343

>  <SCORE.INTER>
-19.4614

>  <SCORE.INTER.CONST>
1

>  <SCORE.INTER.POLAR>
0

>  <SCORE.INTER.ROT>
8

>  <SCORE.INTER.SOLV>
5.6768

>  <SCORE.INTER.VDW>
-23.7999

>  <SCORE.INTER.norm>
-0.748515

>  <SCORE.INTRA>
0.727051

>  <SCORE.INTRA.DIHEDRAL>
-0.171215

>  <SCORE.INTRA.DIHEDRAL.0>
7.88077

>  <SCORE.INTRA.POLAR>
0

>  <SCORE.INTRA.POLAR.0>
0

>  <SCORE.INTRA.REPUL>
0

>  <SCORE.INTRA.REPUL.0>
0

>  <SCORE.INTRA.SOLV>
2.34285

>  <SCORE.INTRA.SOLV.lig_0>
-63.2542

>  <SCORE.INTRA.VDW>
-0.358766

>  <SCORE.INTRA.VDW.0>
-3.15072

>  <SCORE.INTRA.norm>
0.0279635

>  <SCORE.RESTR>
0

>  <SCORE.RESTR.CAVITY>
0

>  <SCORE.RESTR.norm>
0

>  <SCORE.SYSTEM>
0

>  <SCORE.SYSTEM.CONST>
0

>  <SCORE.SYSTEM.DIHEDRAL>
0

>  <SCORE.SYSTEM.SOLV>
0

>  <SCORE.SYSTEM.norm>
0

>  <SCORE.heavy>
26

>  <SCORE.norm>
-0.720551

>  <RMSD>
2.003

$$$$
ligand
 OpenBabel11021811473D
libRbt.so/2013.1/901 2013/11/27
 26 27  0  0  0  0  0  0  0  0999 V2000
   -7.8861  -13.4961   23.1503 C   0  0  0  0  0  0  0  0  0  0  0  0
  -10.3276  -16.6872   23.9859 C   0  0  0  0  0  0  0  0  0  0  0  0
   -9.5035  -16.4249   25.0753 C   0  0  0  0  0  0  0  0  0  0  0  0
   -8.1045  -15.8180   24.9448 C   0  0  0  0  0  0  0  0  0  0  0  0
   -7.4911  -14.9177   22.7395 C   0  0  1  0  0  0  0  0  0  0  0  0
  -13.4233  -18.0336   25.7569 C   0  0  0  0  0  0  0  0  0  0  0  0
  -12.0233  -17.4709   25.5070 C   0  0  0  0  0  0  0  0  0  0  0  0
   -9.9919  -16.7103   26.3464 C   0  0  0  0  0  0  0  0  0  0  0  0
   -7.1976  -17.1442   23.1134 C   0  0  0  0  0  0  0  0  0  0  0  0
   -6.9867  -15.2084   21.4776 C   0  0  2  0  0  0  0  0  0  0  0  0
   -6.7036  -14.3018   20.2770 C   0  0  0  0  0  0  0  0  0  0  0  0
   -5.5961  -14.8426   19.3697 C   0  0  0  0  0  0  0  0  0  0  0  0
  -11.6031  -17.2155   24.1949 N   0  0  0  0  0  0  0  0  0  0  0  0
   -7.5936  -15.9564   23.5733 N   0  0  0  0  0  0  0  0  0  0  0  0
  -11.1998  -17.2093   26.5323 N   0  0  0  0  0  0  0  0  0  0  0  0
   -9.9396  -16.4528   22.8412 O   0  0  0  0  0  0  0  0  0  0  0  0
   -5.6332  -11.7037   19.2910 O   0  5  0  0  0  0  0  0  0  0  0  0
   -3.4340  -10.3711   19.9591 O   0  0  0  0  0  0  0  0  0  0  0  0
   -5.4140  -14.0247   18.2097 O   0  0  0  0  0  0  0  0  0  0  0  0
   -3.3315  -12.7784   19.1003 O   0  0  0  0  0  0  0  0  0  0  0  0
   -1.3697  -11.8346   20.4963 O   0  5  0  0  0  0  0  0  0  0  0  0
   -4.5187  -11.9548   16.9722 O   0  0  0  0  0  0  0  0  0  0  0  0
   -1.7838  -11.0052   18.1028 O   0  0  0  0  0  0  0  0  0  0  0  0
   -6.7275  -16.9304   21.4478 S   0  0  0  0  0  0  0  0  0  0  0  0
   -4.7127  -12.5780   18.3016 P   0  0  2  0  0  0  0  0  0  0  0  0
   -2.4097  -11.5210   19.4911 P   0  0  2  0  0  0  0  0  0  0  0  0
  2 16  2  0  0  0  0
  2  3  1  0  0  0  0
  2 13  1  0  0  0  0
  3  8  2  0  0  0  0
  3  4  1  0  0  0  0
  4 14  1  0  0  0  0
  5  1  1  1  0  0  0
  5 14  1  0  0  0  0
  5 10  1  0  0  0  0
  6  7  1  0  0  0  0
  7 13  1  0  0  0  0
  7 15  2  0  0  0  0
  8 15  1  0  0  0  0
  9 14  1  0  0  0  0
  9 24  1  0  0  0  0
 10 24  1  0  0  0  0
 10 11  1  6  0  0  0
 11 12  1  0  0  0  0
 12 19  1  0  0  0  0
 17 25  1  0  0  0  0
 19 25  1  0  0  0  0
 20 26  1  0  0  0  0
 21 26  1  0  0  0  0
 22 25  2  0  0  0  0
 23 26  2  0  0  0  0
 25 20  1  1  0  0  0
 26 18  1  1  0  0  0
M  CHG  2  17  -1  21  -1
M  END
>  <CHROM.1>
-18.24176963,152.96223328,176.06071679,107.64727126,73.12476700,-62.91277595
-60.49848331,40.53813477,-6.65878641,-14.46183375,21.51215679,-2.59780658
-0.65983413,-1.66092882

>  <Name>
ligand

>  <RI>
0

>  <Rbt.Current_Directory>
/home/itssahil/PROJECTS/Mol_Feturizer/New_Systems/rnas/3D2X

>  <Rbt.Executable>
rbdock ($Id: //depot/dev/client3/rdock/2013.1/src/exe/rbdock.cxx#4 $)

>  <Rbt.Library>
libRbt.so (2013.1, Build901 2013/11/27)

>  <Rbt.Parameter_File>
/export/apps/rDock/src/rDock_2013.1_src/data/scripts/dock_solv.prm

>  <Rbt.Receptor>
prm/pocket_docking_2.prm

>  <SCORE>
-16.5927

>  <SCORE.INTER>
-16.6203

>  <SCORE.INTER.CONST>
1

>  <SCORE.INTER.POLAR>
0

>  <SCORE.INTER.ROT>
8

>  <SCORE.INTER.SOLV>
6.99232

>  <SCORE.INTER.VDW>
-22.3443

>  <SCORE.INTER.norm>
-0.639244

>  <SCORE.INTRA>
-0.0358389

>  <SCORE.INTRA.DIHEDRAL>
-1.84027

>  <SCORE.INTRA.DIHEDRAL.0>
7.88077

>  <SCORE.INTRA.POLAR>
0

>  <SCORE.INTRA.POLAR.0>
0

>  <SCORE.INTRA.REPUL>
0

>  <SCORE.INTRA.REPUL.0>
0

>  <SCORE.INTRA.SOLV>
0.422671

>  <SCORE.INTRA.SOLV.lig_0>
-63.2542

>  <SCORE.INTRA.VDW>
0.672959

>  <SCORE.INTRA.VDW.0>
-3.15072

>  <SCORE.INTRA.norm>
-0.00137842

>  <SCORE.RESTR>
0.0635006

>  <SCORE.RESTR.CAVITY>
0.0635006

>  <SCORE.RESTR.norm>
0.00244233

>  <SCORE.SYSTEM>
0

>  <SCORE.SYSTEM.CONST>
0

>  <SCORE.SYSTEM.DIHEDRAL>
0

>  <SCORE.SYSTEM.SOLV>
0

>  <SCORE.SYSTEM.norm>
0

>  <SCORE.heavy>
26

>  <SCORE.norm>
-0.63818

>  <RMSD>
2.025

$$$$
ligand
 OpenBabel11021811473D
libRbt.so/2013.1/901 2013/11/27
 26 27  0  0  0  0  0  0  0  0999 V2000
   -6.9833  -13.6991   24.6042 C   0  0  0  0  0  0  0  0  0  0  0  0
  -10.0972  -17.1903   26.6848 C   0  0  0  0  0  0  0  0  0  0  0  0
   -9.3719  -16.7778   25.5719 C   0  0  0  0  0  0  0  0  0  0  0  0
   -7.9248  -16.2849   25.6465 C   0  0  0  0  0  0  0  0  0  0  0  0
   -6.9064  -15.0058   23.8089 C   0  0  1  0  0  0  0  0  0  0  0  0
  -13.3817  -18.2121   25.0415 C   0  0  0  0  0  0  0  0  0  0  0  0
  -11.9572  -17.6913   25.2382 C   0  0  0  0  0  0  0  0  0  0  0  0
   -9.9929  -16.8408   24.3286 C   0  0  0  0  0  0  0  0  0  0  0  0
   -7.1963  -17.2466   23.5301 C   0  0  0  0  0  0  0  0  0  0  0  0
   -6.3702  -15.0601   22.5279 C   0  0  2  0  0  0  0  0  0  0  0  0
   -5.7643  -13.9648   21.6467 C   0  0  0  0  0  0  0  0  0  0  0  0
   -6.3914  -13.9069   20.2518 C   0  0  0  0  0  0  0  0  0  0  0  0
  -11.4046  -17.6541   26.5253 N   0  0  0  0  0  0  0  0  0  0  0  0
   -7.3352  -16.1698   24.3048 N   0  0  0  0  0  0  0  0  0  0  0  0
  -11.2294  -17.2815   24.1894 N   0  0  0  0  0  0  0  0  0  0  0  0
   -9.5914  -17.1520   27.8066 O   0  0  0  0  0  0  0  0  0  0  0  0
   -8.0400  -12.4909   17.9903 O   0  5  0  0  0  0  0  0  0  0  0  0
   -3.9220  -10.8831   19.0985 O   0  0  0  0  0  0  0  0  0  0  0  0
   -6.0081  -12.7223   19.5466 O   0  0  0  0  0  0  0  0  0  0  0  0
   -6.0254  -10.9705   17.6454 O   0  0  0  0  0  0  0  0  0  0  0  0
   -3.6950  -11.0722   16.5285 O   0  5  0  0  0  0  0  0  0  0  0  0
   -5.8243  -13.4749   17.0936 O   0  0  0  0  0  0  0  0  0  0  0  0
   -4.5333   -8.8955   17.5997 O   0  0  0  0  0  0  0  0  0  0  0  0
   -6.5332  -16.7142   22.0078 S   0  0  0  0  0  0  0  0  0  0  0  0
   -6.4307  -12.4831   18.0112 P   0  0  2  0  0  0  0  0  0  0  0  0
   -4.4879  -10.5022   17.6406 P   0  0  2  0  0  0  0  0  0  0  0  0
  2 16  2  0  0  0  0
  2  3  1  0  0  0  0
  2 13  1  0  0  0  0
  3  8  2  0  0  0  0
  3  4  1  0  0  0  0
  4 14  1  0  0  0  0
  5  1  1  1  0  0  0
  5 14  1  0  0  0  0
  5 10  1  0  0  0  0
  6  7  1  0  0  0  0
  7 13  1  0  0  0  0
  7 15  2  0  0  0  0
  8 15  1  0  0  0  0
  9 14  1  0  0  0  0
  9 24  1  0  0  0  0
 10 24  1  0  0  0  0
 10 11  1  6  0  0  0
 11 12  1  0  0  0  0
 12 19  1  0  0  0  0
 17 25  1  0  0  0  0
 19 25  1  0  0  0  0
 20 26  1  0  0  0  0
 21 26  1  0  0  0  0
 22 25  2  0  0  0  0
 23 26  2  0  0  0  0
 25 20  1  6  0  0  0
 26 18  1  1  0  0  0
M  CHG  2  17  -1  21  -1
M  END
>  <CHROM.1>
168.85788851,-127.68045600,168.31856940,118.26860999,174.66070011,176.42249774
60.10113428,-54.76734334,-7.28338751,-14.31603470,21.58118817,-2.09065071
-0.40721643,-1.13821592

>  <Name>
ligand

>  <RI>
0

>  <Rbt.Current_Directory>
/home/itssahil/PROJECTS/Mol_Feturizer/New_Systems/rnas/3D2X

>  <Rbt.Executable>
rbdock ($Id: //depot/dev/client3/rdock/2013.1/src/exe/rbdock.cxx#4 $)

>  <Rbt.Library>
libRbt.so (2013.1, Build901 2013/11/27)

>  <Rbt.Parameter_File>
/export/apps/rDock/src/rDock_2013.1_src/data/scripts/dock_solv.prm

>  <Rbt.Receptor>
prm/pocket_docking_3.prm

>  <SCORE>
-21.2579

>  <SCORE.INTER>
-19.204

>  <SCORE.INTER.CONST>
1

>  <SCORE.INTER.POLAR>
0

>  <SCORE.INTER.ROT>
8

>  <SCORE.INTER.SOLV>
19.2367

>  <SCORE.INTER.VDW>
-28.1482

>  <SCORE.INTER.norm>
-0.738615

>  <SCORE.INTRA>
-2.05387

>  <SCORE.INTRA.DIHEDRAL>
-1.80949

>  <SCORE.INTRA.DIHEDRAL.0>
7.88077

>  <SCORE.INTRA.POLAR>
0

>  <SCORE.INTRA.POLAR.0>
0

>  <SCORE.INTRA.REPUL>
0

>  <SCORE.INTRA.REPUL.0>
0

>  <SCORE.INTRA.SOLV>
-2.75481

>  <SCORE.INTRA.SOLV.lig_0>
-63.2542

>  <SCORE.INTRA.VDW>
0.228284

>  <SCORE.INTRA.VDW.0>
-3.15072

>  <SCORE.INTRA.norm>
-0.078995

>  <SCORE.RESTR>
0

>  <SCORE.RESTR.CAVITY>
0

>  <SCORE.RESTR.norm>
0

>  <SCORE.SYSTEM>
0

>  <SCORE.SYSTEM.CONST>
0

>  <SCORE.SYSTEM.DIHEDRAL>
0

>  <SCORE.SYSTEM.SOLV>
0

>  <SCORE.SYSTEM.norm>
0

>  <SCORE.heavy>
26

>  <SCORE.norm>
-0.81761

>  <RMSD>
2.027

$$$$
ligand
 OpenBabel11021811473D
libRbt.so/2013.1/901 2013/11/27
 26 27  0  0  0  0  0  0  0  0999 V2000
   -7.6276  -13.9990   22.8007 C   0  0  0  0  0  0  0  0  0  0  0  0
  -10.1238  -16.9411   26.0922 C   0  0  0  0  0  0  0  0  0  0  0  0
   -9.7809  -16.8251   24.7492 C   0  0  0  0  0  0  0  0  0  0  0  0
   -8.3808  -16.4351   24.2693 C   0  0  0  0  0  0  0  0  0  0  0  0
   -7.9765  -15.3223   22.1132 C   0  0  1  0  0  0  0  0  0  0  0  0
  -13.7619  -18.0404   25.7942 C   0  0  0  0  0  0  0  0  0  0  0  0
  -12.3450  -17.5960   25.4281 C   0  0  0  0  0  0  0  0  0  0  0  0
  -10.7596  -17.1013   23.7998 C   0  0  0  0  0  0  0  0  0  0  0  0
   -8.5713  -17.5198   22.0963 C   0  0  0  0  0  0  0  0  0  0  0  0
   -7.9505  -15.4658   20.7312 C   0  0  2  0  0  0  0  0  0  0  0  0
   -7.5993  -14.4673   19.6253 C   0  0  0  0  0  0  0  0  0  0  0  0
   -6.1004  -14.1689   19.5456 C   0  0  0  0  0  0  0  0  0  0  0  0
  -11.4176  -17.3308   26.4445 N   0  0  0  0  0  0  0  0  0  0  0  0
   -8.3105  -16.4179   22.8010 N   0  0  0  0  0  0  0  0  0  0  0  0
  -11.9796  -17.4694   24.1443 N   0  0  0  0  0  0  0  0  0  0  0  0
   -9.2926  -16.7060   26.9694 O   0  0  0  0  0  0  0  0  0  0  0  0
   -3.4064  -14.4699   18.0456 O   0  5  0  0  0  0  0  0  0  0  0  0
   -6.5972  -11.8374   16.0580 O   0  0  0  0  0  0  0  0  0  0  0  0
   -5.7600  -13.4803   18.3383 O   0  0  0  0  0  0  0  0  0  0  0  0
   -4.2050  -12.6568   16.4443 O   0  0  0  0  0  0  0  0  0  0  0  0
   -4.7343  -10.1310   16.6149 O   0  5  0  0  0  0  0  0  0  0  0  0
   -3.6983  -12.0445   18.8907 O   0  0  0  0  0  0  0  0  0  0  0  0
   -4.7669  -11.3190   14.3398 O   0  0  0  0  0  0  0  0  0  0  0  0
   -8.4566  -17.1006   20.4075 S   0  0  0  0  0  0  0  0  0  0  0  0
   -4.2361  -13.0917   17.9921 P   0  0  2  0  0  0  0  0  0  0  0  0
   -5.0551  -11.3976   15.9196 P   0  0  2  0  0  0  0  0  0  0  0  0
  2 16  2  0  0  0  0
  2  3  1  0  0  0  0
  2 13  1  0  0  0  0
  3  8  2  0  0  0  0
  3  4  1  0  0  0  0
  4 14  1  0  0  0  0
  5  1  1  1  0  0  0
  5 14  1  0  0  0  0
  5 10  1  0  0  0  0
  6  7  1  0  0  0  0
  7 13  1  0  0  0  0
  7 15  2  0  0  0  0
  8 15  1  0  0  0  0
  9 14  1  0  0  0  0
  9 24  1  0  0  0  0
 10 24  1  0  0  0  0
 10 11  1  6  0  0  0
 11 12  1  0  0  0  0
 12 19  1  0  0  0  0
 17 25  1  0  0  0  0
 19 25  1  0  0  0  0
 20 26  1  0  0  0  0
 21 26  1  0  0  0  0
 22 25  2  0  0  0  0
 23 26  2  0  0  0  0
 25 20  1  6  0  0  0
 26 18  1  1  0  0  0
M  CHG  2  17  -1  21  -1
M  END
>  <CHROM.1>
178.93034044,72.83354116,167.02879921,121.03826079,-178.05332260,173.56881233
55.81688157,-67.83538413,-7.43487223,-14.71237322,20.62134708,-2.17163334
-0.37331127,-1.26286785

>  <Name>
ligand

>  <RI>
0

>  <Rbt.Current_Directory>
/home/itssahil/PROJECTS/Mol_Feturizer/New_Systems/rnas/3D2X

>  <Rbt.Executable>
rbdock ($Id: //depot/dev/client3/rdock/2013.1/src/exe/rbdock.cxx#4 $)

>  <Rbt.Library>
libRbt.so (2013.1, Build901 2013/11/27)

>  <Rbt.Parameter_File>
/export/apps/rDock/src/rDock_2013.1_src/data/scripts/dock_solv.prm

>  <Rbt.Receptor>
prm/pocket_docking_4.prm

>  <SCORE>
-24.2837

>  <SCORE.INTER>
-22.2388

>  <SCORE.INTER.CONST>
1

>  <SCORE.INTER.POLAR>
0

>  <SCORE.INTER.ROT>
8

>  <SCORE.INTER.SOLV>
15.0455

>  <SCORE.INTER.VDW>
-28.7744

>  <SCORE.INTER.norm>
-0.85534

>  <SCORE.INTRA>
-2.05748

>  <SCORE.INTRA.DIHEDRAL>
-2.38351

>  <SCORE.INTRA.DIHEDRAL.0>
7.88077

>  <SCORE.INTRA.POLAR>
0

>  <SCORE.INTRA.POLAR.0>
0

>  <SCORE.INTRA.REPUL>
0

>  <SCORE.INTRA.REPUL.0>
0

>  <SCORE.INTRA.SOLV>
-2.56648

>  <SCORE.INTRA.SOLV.lig_0>
-63.2542

>  <SCORE.INTRA.VDW>
0.417522

>  <SCORE.INTRA.VDW.0>
-3.15072

>  <SCORE.INTRA.norm>
-0.0791337

>  <SCORE.RESTR>
0.012592

>  <SCORE.RESTR.CAVITY>
0.012592

>  <SCORE.RESTR.norm>
0.000484309

>  <SCORE.SYSTEM>
0

>  <SCORE.SYSTEM.CONST>
0

>  <SCORE.SYSTEM.DIHEDRAL>
0

>  <SCORE.SYSTEM.SOLV>
0

>  <SCORE.SYSTEM.norm>
0

>  <SCORE.heavy>
26

>  <SCORE.norm>
-0.933989

>  <RMSD>
2.030

$$$$
ligand
 OpenBabel11021811473D
libRbt.so/2013.1/901 2013/11/27
 26 27  0  0  0  0  0  0  0  0999 V2000
   -7.7757  -13.7572   23.9303 C   0  0  0  0  0  0  0  0  0  0  0  0
   -9.9622  -16.9081   26.5266 C   0  0  0  0  0  0  0  0  0  0  0  0
   -9.2896  -16.8174   25.3125 C   0  0  0  0  0  0  0  0  0  0  0  0
   -7.8178  -16.4141   25.1945 C   0  0  0  0  0  0  0  0  0  0  0  0
   -7.4066  -15.0470   23.1915 C   0  0  1  0  0  0  0  0  0  0  0  0
  -13.3917  -18.0778   25.3422 C   0  0  0  0  0  0  0  0  0  0  0  0
  -11.9333  -17.6171   25.3370 C   0  0  0  0  0  0  0  0  0  0  0  0
   -9.9908  -17.1328   24.1531 C   0  0  0  0  0  0  0  0  0  0  0  0
   -7.0636  -17.2933   23.0513 C   0  0  0  0  0  0  0  0  0  0  0  0
   -7.0118  -15.0475   21.8590 C   0  0  2  0  0  0  0  0  0  0  0  0
   -6.8420  -13.8979   20.8625 C   0  0  0  0  0  0  0  0  0  0  0  0
   -7.4176  -14.2169   19.4807 C   0  0  0  0  0  0  0  0  0  0  0  0
  -11.2987  -17.3121   26.5484 N   0  0  0  0  0  0  0  0  0  0  0  0
   -7.4275  -16.2424   23.7877 N   0  0  0  0  0  0  0  0  0  0  0  0
  -11.2542  -17.5142   24.1856 N   0  0  0  0  0  0  0  0  0  0  0  0
   -9.3847  -16.6379   27.5799 O   0  0  0  0  0  0  0  0  0  0  0  0
   -5.9612  -12.3521   16.4326 O   0  5  0  0  0  0  0  0  0  0  0  0
   -4.8916   -9.7575   17.0165 O   0  0  0  0  0  0  0  0  0  0  0  0
   -7.1767  -13.1582   18.5485 O   0  0  0  0  0  0  0  0  0  0  0  0
   -5.0786  -11.6575   18.7190 O   0  0  0  0  0  0  0  0  0  0  0  0
   -7.0318   -9.9836   18.4520 O   0  5  0  0  0  0  0  0  0  0  0  0
   -4.8569  -14.1094   17.9734 O   0  0  0  0  0  0  0  0  0  0  0  0
   -4.8210   -9.2462   19.5274 O   0  0  0  0  0  0  0  0  0  0  0  0
   -6.7424  -16.7158   21.4376 S   0  0  0  0  0  0  0  0  0  0  0  0
   -5.7143  -12.9028   17.9246 P   0  0  2  0  0  0  0  0  0  0  0  0
   -5.5618  -10.1529   18.4255 P   0  0  2  0  0  0  0  0  0  0  0  0
  2 16  2  0  0  0  0
  2  3  1  0  0  0  0
  2 13  1  0  0  0  0
  3  8  2  0  0  0  0
  3  4  1  0  0  0  0
  4 14  1  0  0  0  0
  5  1  1  1  0  0  0
  5 14  1  0  0  0  0
  5 10  1  0  0  0  0
  6  7  1  0  0  0  0
  7 13  1  0  0  0  0
  7 15  2  0  0  0  0
  8 15  1  0  0  0  0
  9 14  1  0  0  0  0
  9 24  1  0  0  0  0
 10 24  1  0  0  0  0
 10 11  1  6  0  0  0
 11 12  1  0  0  0  0
 12 19  1  0  0  0  0
 17 25  1  0  0  0  0
 19 25  1  0  0  0  0
 20 26  1  0  0  0  0
 21 26  1  0  0  0  0
 22 25  2  0  0  0  0
 23 26  2  0  0  0  0
 25 20  1  1  0  0  0
 26 18  1  6  0  0  0
M  CHG  2  17  -1  21  -1
M  END
>  <CHROM.1>
-172.93395430,-136.38630583,-176.60757078,96.73434389,73.98029131,36.45485655
147.03825016,-74.98112579,-7.50282719,-14.30236631,21.46343369,2.75015728
-1.07250853,-2.90679852

>  <Name>
ligand

>  <RI>
0

>  <Rbt.Current_Directory>
/home/itssahil/PROJECTS/Mol_Feturizer/New_Systems/rnas/3D2X

>  <Rbt.Executable>
rbdock ($Id: //depot/dev/client3/rdock/2013.1/src/exe/rbdock.cxx#4 $)

>  <Rbt.Library>
libRbt.so (2013.1, Build901 2013/11/27)

>  <Rbt.Parameter_File>
/export/apps/rDock/src/rDock_2013.1_src/data/scripts/dock_solv.prm

>  <Rbt.Receptor>
prm/pocket_docking_3.prm

>  <SCORE>
-23.4669

>  <SCORE.INTER>
-23.3916

>  <SCORE.INTER.CONST>
1

>  <SCORE.INTER.POLAR>
0

>  <SCORE.INTER.ROT>
8

>  <SCORE.INTER.SOLV>
9.93142

>  <SCORE.INTER.VDW>
-27.8382

>  <SCORE.INTER.norm>
-0.899676

>  <SCORE.INTRA>
-0.0753575

>  <SCORE.INTRA.DIHEDRAL>
0.613433

>  <SCORE.INTRA.DIHEDRAL.0>
7.88077

>  <SCORE.INTRA.POLAR>
0

>  <SCORE.INTRA.POLAR.0>
0

>  <SCORE.INTRA.REPUL>
0

>  <SCORE.INTRA.REPUL.0>
0

>  <SCORE.INTRA.SOLV>
-0.749871

>  <SCORE.INTRA.SOLV.lig_0>
-63.2542

>  <SCORE.INTRA.VDW>
-0.00713855

>  <SCORE.INTRA.VDW.0>
-3.15072

>  <SCORE.INTRA.norm>
-0.00289837

>  <SCORE.RESTR>
0

>  <SCORE.RESTR.CAVITY>
0

>  <SCORE.RESTR.norm>
0

>  <SCORE.SYSTEM>
0

>  <SCORE.SYSTEM.CONST>
0

>  <SCORE.SYSTEM.DIHEDRAL>
0

>  <SCORE.SYSTEM.SOLV>
0

>  <SCORE.SYSTEM.norm>
0

>  <SCORE.heavy>
26

>  <SCORE.norm>
-0.902574

>  <RMSD>
2.045

$$$$
ligand
 OpenBabel11021811473D
libRbt.so/2013.1/901 2013/11/27
 26 27  0  0  0  0  0  0  0  0999 V2000
   -7.6235  -16.9669   21.9977 C   0  0  0  0  0  0  0  0  0  0  0  0
   -9.9503  -16.9070   26.3618 C   0  0  0  0  0  0  0  0  0  0  0  0
   -9.4250  -16.7152   25.0882 C   0  0  0  0  0  0  0  0  0  0  0  0
   -7.9858  -16.2619   24.8315 C   0  0  0  0  0  0  0  0  0  0  0  0
   -7.7655  -15.5253   22.4950 C   0  0  1  0  0  0  0  0  0  0  0  0
  -13.4681  -18.0947   25.4976 C   0  0  0  0  0  0  0  0  0  0  0  0
  -12.0304  -17.5921   25.3583 C   0  0  0  0  0  0  0  0  0  0  0  0
  -10.2490  -16.9725   23.9972 C   0  0  0  0  0  0  0  0  0  0  0  0
   -8.0705  -13.9397   24.1000 C   0  0  0  0  0  0  0  0  0  0  0  0
   -7.7425  -14.4394   21.6281 C   0  0  2  0  0  0  0  0  0  0  0  0
   -7.5956  -14.3741   20.1057 C   0  0  0  0  0  0  0  0  0  0  0  0
   -7.0561  -13.0281   19.6161 C   0  0  0  0  0  0  0  0  0  0  0  0
  -11.2662  -17.3506   26.5077 N   0  0  0  0  0  0  0  0  0  0  0  0
   -7.9349  -15.2290   23.7867 N   0  0  0  0  0  0  0  0  0  0  0  0
  -11.4916  -17.3921   24.1469 N   0  0  0  0  0  0  0  0  0  0  0  0
   -9.2605  -16.6914   27.3586 O   0  0  0  0  0  0  0  0  0  0  0  0
   -3.5669  -11.5235   20.6265 O   0  5  0  0  0  0  0  0  0  0  0  0
   -3.3753  -11.5161   15.9667 O   0  0  0  0  0  0  0  0  0  0  0  0
   -5.8410  -12.6699   20.2815 O   0  0  0  0  0  0  0  0  0  0  0  0
   -4.4594  -11.8372   18.2613 O   0  0  0  0  0  0  0  0  0  0  0  0
   -3.6868   -9.4795   17.5312 O   0  5  0  0  0  0  0  0  0  0  0  0
   -5.6050  -10.1489   19.8277 O   0  0  0  0  0  0  0  0  0  0  0  0
   -1.9660  -11.2981   18.0969 O   0  0  0  0  0  0  0  0  0  0  0  0
   -7.8879  -13.0215   22.6288 S   0  0  0  0  0  0  0  0  0  0  0  0
   -4.9187  -11.4592   19.7553 P   0  0  2  0  0  0  0  0  0  0  0  0
   -3.3981  -10.9296   17.4655 P   0  0  2  0  0  0  0  0  0  0  0  0
  2 16  2  0  0  0  0
  2  3  1  0  0  0  0
  2 13  1  0  0  0  0
  3  8  2  0  0  0  0
  3  4  1  0  0  0  0
  4 14  1  0  0  0  0
  5  1  1  6  0  0  0
  5 14  1  0  0  0  0
  5 10  1  0  0  0  0
  6  7  1  0  0  0  0
  7 13  1  0  0  0  0
  7 15  2  0  0  0  0
  8 15  1  0  0  0  0
  9 14  1  0  0  0  0
  9 24  1  0  0  0  0
 10 24  1  0  0  0  0
 10 11  1  1  0  0  0
 11 12  1  0  0  0  0
 12 19  1  0  0  0  0
 17 25  1  0  0  0  0
 19 25  1  0  0  0  0
 20 26  1  0  0  0  0
 21 26  1  0  0  0  0
 22 25  2  0  0  0  0
 23 26  2  0  0  0  0
 25 20  1  6  0  0  0
 26 18  1  6  0  0  0
M  CHG  2  17  -1  21  -1
M  END
>  <CHROM.1>
-136.24026829,-156.36640578,53.01540279,-91.66198656,167.76274990,-61.54188793
-171.86608871,-172.09427858,-7.04983568,-13.84744161,21.64876651,2.47373801
0.73009508,1.56202322

>  <Name>
ligand

>  <RI>
0

>  <Rbt.Current_Directory>
/home/itssahil/PROJECTS/Mol_Feturizer/New_Systems/rnas/3D2X

>  <Rbt.Executable>
rbdock ($Id: //depot/dev/client3/rdock/2013.1/src/exe/rbdock.cxx#4 $)

>  <Rbt.Library>
libRbt.so (2013.1, Build901 2013/11/27)

>  <Rbt.Parameter_File>
/export/apps/rDock/src/rDock_2013.1_src/data/scripts/dock_solv.prm

>  <Rbt.Receptor>
prm/pocket_docking_2.prm

>  <SCORE>
-19.7723

>  <SCORE.INTER>
-19.5674

>  <SCORE.INTER.CONST>
1

>  <SCORE.INTER.POLAR>
0

>  <SCORE.INTER.ROT>
8

>  <SCORE.INTER.SOLV>
12.2741

>  <SCORE.INTER.VDW>
-26.0697

>  <SCORE.INTER.norm>
-0.752593

>  <SCORE.INTRA>
-1.09082

>  <SCORE.INTRA.DIHEDRAL>
-1.88849

>  <SCORE.INTRA.DIHEDRAL.0>
7.88077

>  <SCORE.INTRA.POLAR>
0

>  <SCORE.INTRA.POLAR.0>
0

>  <SCORE.INTRA.REPUL>
0

>  <SCORE.INTRA.REPUL.0>
0

>  <SCORE.INTRA.SOLV>
0.048797

>  <SCORE.INTRA.SOLV.lig_0>
-63.2542

>  <SCORE.INTRA.VDW>
-0.170973

>  <SCORE.INTRA.VDW.0>
-3.15072

>  <SCORE.INTRA.norm>
-0.0419547

>  <SCORE.RESTR>
0.88599

>  <SCORE.RESTR.CAVITY>
0.88599

>  <SCORE.RESTR.norm>
0.0340765

>  <SCORE.SYSTEM>
0

>  <SCORE.SYSTEM.CONST>
0

>  <SCORE.SYSTEM.DIHEDRAL>
0

>  <SCORE.SYSTEM.SOLV>
0

>  <SCORE.SYSTEM.norm>
0

>  <SCORE.heavy>
26

>  <SCORE.norm>
-0.760472

>  <RMSD>
2.051

$$$$
ligand
 OpenBabel11021811473D
libRbt.so/2013.1/901 2013/11/27
 26 27  0  0  0  0  0  0  0  0999 V2000
   -7.4503  -13.6727   24.0610 C   0  0  0  0  0  0  0  0  0  0  0  0
  -10.5767  -16.7049   24.2268 C   0  0  0  0  0  0  0  0  0  0  0  0
   -9.8349  -16.6469   25.4020 C   0  0  0  0  0  0  0  0  0  0  0  0
   -8.4225  -16.0619   25.4770 C   0  0  0  0  0  0  0  0  0  0  0  0
   -7.2922  -15.0959   23.5176 C   0  0  1  0  0  0  0  0  0  0  0  0
  -13.8150  -18.2477   25.5174 C   0  0  0  0  0  0  0  0  0  0  0  0
  -12.3931  -17.6867   25.4678 C   0  0  0  0  0  0  0  0  0  0  0  0
  -10.4223  -17.1262   26.5685 C   0  0  0  0  0  0  0  0  0  0  0  0
   -7.5223  -17.3585   23.6214 C   0  0  0  0  0  0  0  0  0  0  0  0
   -6.6613  -15.3585   22.3075 C   0  0  2  0  0  0  0  0  0  0  0  0
   -6.0102  -14.4175   21.2906 C   0  0  0  0  0  0  0  0  0  0  0  0
   -6.9011  -13.2286   20.9230 C   0  0  0  0  0  0  0  0  0  0  0  0
  -11.8709  -17.2285   24.2509 N   0  0  0  0  0  0  0  0  0  0  0  0
   -7.7367  -16.1669   24.1810 N   0  0  0  0  0  0  0  0  0  0  0  0
  -11.6470  -17.6187   26.5798 N   0  0  0  0  0  0  0  0  0  0  0  0
  -10.0997  -16.2943   23.1686 O   0  0  0  0  0  0  0  0  0  0  0  0
   -7.3047  -12.7199   17.6731 O   0  5  0  0  0  0  0  0  0  0  0  0
   -5.0731   -9.8356   19.6060 O   0  0  0  0  0  0  0  0  0  0  0  0
   -6.2588  -12.3524   19.9916 O   0  0  0  0  0  0  0  0  0  0  0  0
   -4.9819  -11.6879   17.8442 O   0  0  0  0  0  0  0  0  0  0  0  0
   -3.1050  -11.5145   19.6149 O   0  5  0  0  0  0  0  0  0  0  0  0
   -5.3063  -14.1693   18.4395 O   0  0  0  0  0  0  0  0  0  0  0  0
   -3.3051   -9.7607   17.7514 O   0  0  0  0  0  0  0  0  0  0  0  0
   -6.7569  -17.0824   22.0791 S   0  0  0  0  0  0  0  0  0  0  0  0
   -5.9211  -12.8228   18.4890 P   0  0  2  0  0  0  0  0  0  0  0  0
   -4.0532  -10.7567   18.7681 P   0  0  2  0  0  0  0  0  0  0  0  0
  2 16  2  0  0  0  0
  2  3  1  0  0  0  0
  2 13  1  0  0  0  0
  3  8  2  0  0  0  0
  3  4  1  0  0  0  0
  4 14  1  0  0  0  0
  5  1  1  1  0  0  0
  5 14  1  0  0  0  0
  5 10  1  0  0  0  0
  6  7  1  0  0  0  0
  7 13  1  0  0  0  0
  7 15  2  0  0  0  0
  8 15  1  0  0  0  0
  9 14  1  0  0  0  0
  9 24  1  0  0  0  0
 10 24  1  0  0  0  0
 10 11  1  6  0  0  0
 11 12  1  0  0  0  0
 12 19  1  0  0  0  0
 17 25  1  0  0  0  0
 19 25  1  0  0  0  0
 20 26  1  0  0  0  0
 21 26  1  0  0  0  0
 22 25  2  0  0  0  0
 23 26  2  0  0  0  0
 25 20  1  6  0  0  0
 26 18  1  1  0  0  0
M  CHG  2  17  -1  21  -1
M  END
>  <CHROM.1>
-26.62082260,-48.91774077,178.87793388,120.20270125,66.27765302,138.45551573
78.74732009,-67.84777293,-7.34412919,-14.40058780,21.72028546,-2.22751985
-0.35014168,-1.10113837

>  <Name>
ligand

>  <RI>
0

>  <Rbt.Current_Directory>
/home/itssahil/PROJECTS/Mol_Feturizer/New_Systems/rnas/3D2X

>  <Rbt.Executable>
rbdock ($Id: //depot/dev/client3/rdock/2013.1/src/exe/rbdock.cxx#4 $)

>  <Rbt.Library>
libRbt.so (2013.1, Build901 2013/11/27)

>  <Rbt.Parameter_File>
/export/apps/rDock/src/rDock_2013.1_src/data/scripts/dock_solv.prm

>  <Rbt.Receptor>
prm/pocket_docking_2.prm

>  <SCORE>
-16.0071

>  <SCORE.INTER>
-16.8408

>  <SCORE.INTER.CONST>
1

>  <SCORE.INTER.POLAR>
0

>  <SCORE.INTER.ROT>
8

>  <SCORE.INTER.SOLV>
11.3695

>  <SCORE.INTER.VDW>
-23.9504

>  <SCORE.INTER.norm>
-0.647722

>  <SCORE.INTRA>
-0.378483

>  <SCORE.INTRA.DIHEDRAL>
-1.05554

>  <SCORE.INTRA.DIHEDRAL.0>
7.88077

>  <SCORE.INTRA.POLAR>
0

>  <SCORE.INTRA.POLAR.0>
0

>  <SCORE.INTRA.REPUL>
0

>  <SCORE.INTRA.REPUL.0>
0

>  <SCORE.INTRA.SOLV>
-0.685665

>  <SCORE.INTRA.SOLV.lig_0>
-63.2542

>  <SCORE.INTRA.VDW>
0.492119

>  <SCORE.INTRA.VDW.0>
-3.15072

>  <SCORE.INTRA.norm>
-0.014557

>  <SCORE.RESTR>
1.21219

>  <SCORE.RESTR.CAVITY>
1.21219

>  <SCORE.RESTR.norm>
0.0466228

>  <SCORE.SYSTEM>
0

>  <SCORE.SYSTEM.CONST>
0

>  <SCORE.SYSTEM.DIHEDRAL>
0

>  <SCORE.SYSTEM.SOLV>
0

>  <SCORE.SYSTEM.norm>
0

>  <SCORE.heavy>
26

>  <SCORE.norm>
-0.615657

>  <RMSD>
2.057

$$$$
ligand
 OpenBabel11021811473D
libRbt.so/2013.1/901 2013/11/27
 26 27  0  0  0  0  0  0  0  0999 V2000
   -8.3254  -13.8653   23.4950 C   0  0  0  0  0  0  0  0  0  0  0  0
  -10.3306  -17.1099   23.9831 C   0  0  0  0  0  0  0  0  0  0  0  0
   -9.4817  -16.8759   25.0598 C   0  0  0  0  0  0  0  0  0  0  0  0
   -8.0254  -16.4324   24.9017 C   0  0  0  0  0  0  0  0  0  0  0  0
   -7.7996  -15.1371   22.8229 C   0  0  1  0  0  0  0  0  0  0  0  0
  -13.5518  -18.0093   25.8128 C   0  0  0  0  0  0  0  0  0  0  0  0
  -12.0994  -17.6167   25.5381 C   0  0  0  0  0  0  0  0  0  0  0  0
   -9.9966  -17.0331   26.3427 C   0  0  0  0  0  0  0  0  0  0  0  0
   -7.1760  -17.3266   22.8008 C   0  0  0  0  0  0  0  0  0  0  0  0
   -7.4142  -15.1616   21.4879 C   0  0  2  0  0  0  0  0  0  0  0  0
   -7.3956  -14.0565   20.4286 C   0  0  0  0  0  0  0  0  0  0  0  0
   -5.9852  -13.7302   19.9322 C   0  0  0  0  0  0  0  0  0  0  0  0
  -11.6556  -17.4843   24.2156 N   0  0  0  0  0  0  0  0  0  0  0  0
   -7.6664  -16.2908   23.4832 N   0  0  0  0  0  0  0  0  0  0  0  0
  -11.2512  -17.3869   26.5508 N   0  0  0  0  0  0  0  0  0  0  0  0
   -9.9209  -16.9851   22.8288 O   0  0  0  0  0  0  0  0  0  0  0  0
   -3.3133  -12.6885   19.6012 O   0  5  0  0  0  0  0  0  0  0  0  0
   -3.5889  -11.5532   15.0528 O   0  0  0  0  0  0  0  0  0  0  0  0
   -5.8612  -12.3562   19.5522 O   0  0  0  0  0  0  0  0  0  0  0  0
   -4.4480  -12.0663   17.4070 O   0  0  0  0  0  0  0  0  0  0  0  0
   -2.1740  -10.8712   17.1083 O   0  5  0  0  0  0  0  0  0  0  0  0
   -4.3075  -10.3225   19.2927 O   0  0  0  0  0  0  0  0  0  0  0  0
   -2.4386  -13.3456   16.4794 O   0  0  0  0  0  0  0  0  0  0  0  0
   -6.9379  -16.8033   21.1545 S   0  0  0  0  0  0  0  0  0  0  0  0
   -4.4761  -11.7615   18.9856 P   0  0  2  0  0  0  0  0  0  0  0  0
   -3.1003  -11.8819   16.5508 P   0  0  2  0  0  0  0  0  0  0  0  0
  2 16  2  0  0  0  0
  2  3  1  0  0  0  0
  2 13  1  0  0  0  0
  3  8  2  0  0  0  0
  3  4  1  0  0  0  0
  4 14  1  0  0  0  0
  5  1  1  1  0  0  0
  5 14  1  0  0  0  0
  5 10  1  0  0  0  0
  6  7  1  0  0  0  0
  7 13  1  0  0  0  0
  7 15  2  0  0  0  0
  8 15  1  0  0  0  0
  9 14  1  0  0  0  0
  9 24  1  0  0  0  0
 10 24  1  0  0  0  0
 10 11  1  6  0  0  0
 11 12  1  0  0  0  0
 12 19  1  0  0  0  0
 17 25  1  0  0  0  0
 19 25  1  0  0  0  0
 20 26  1  0  0  0  0
 21 26  1  0  0  0  0
 22 25  2  0  0  0  0
 23 26  2  0  0  0  0
 25 20  1  6  0  0  0
 26 18  1  6  0  0  0
M  CHG  2  17  -1  21  -1
M  END
>  <CHROM.1>
0.13338385,116.29302446,-149.03832687,90.98966477,-179.58820230,-55.71347733
-26.26679619,-152.54765596,-6.81405512,-14.48302882,21.06127153,2.98446073
-0.90795736,-2.71885091

>  <Name>
ligand

>  <RI>
0

>  <Rbt.Current_Directory>
/home/itssahil/PROJECTS/Mol_Feturizer/New_Systems/rnas/3D2X

>  <Rbt.Executable>
rbdock ($Id: //depot/dev/client3/rdock/2013.1/src/exe/rbdock.cxx#4 $)

>  <Rbt.Library>
libRbt.so (2013.1, Build901 2013/11/27)

>  <Rbt.Parameter_File>
/export/apps/rDock/src/rDock_2013.1_src/data/scripts/dock_solv.prm

>  <Rbt.Receptor>
prm/pocket_docking_3.prm

>  <SCORE>
-17.2177

>  <SCORE.INTER>
-19.5693

>  <SCORE.INTER.CONST>
1

>  <SCORE.INTER.POLAR>
0

>  <SCORE.INTER.ROT>
8

>  <SCORE.INTER.SOLV>
11.0915

>  <SCORE.INTER.VDW>
-25.6767

>  <SCORE.INTER.norm>
-0.752666

>  <SCORE.INTRA>
2.35157

>  <SCORE.INTRA.DIHEDRAL>
2.81378

>  <SCORE.INTRA.DIHEDRAL.0>
7.88077

>  <SCORE.INTRA.POLAR>
0

>  <SCORE.INTRA.POLAR.0>
0

>  <SCORE.INTRA.REPUL>
0

>  <SCORE.INTRA.REPUL.0>
0

>  <SCORE.INTRA.SOLV>
0.827528

>  <SCORE.INTRA.SOLV.lig_0>
-63.2542

>  <SCORE.INTRA.VDW>
0.530912

>  <SCORE.INTRA.VDW.0>
-3.15072

>  <SCORE.INTRA.norm>
0.0904448

>  <SCORE.RESTR>
0

>  <SCORE.RESTR.CAVITY>
0

>  <SCORE.RESTR.norm>
0

>  <SCORE.SYSTEM>
0

>  <SCORE.SYSTEM.CONST>
0

>  <SCORE.SYSTEM.DIHEDRAL>
0

>  <SCORE.SYSTEM.SOLV>
0

>  <SCORE.SYSTEM.norm>
0

>  <SCORE.heavy>
26

>  <SCORE.norm>
-0.662221

>  <RMSD>
2.058

$$$$
ligand
 OpenBabel11021811473D
libRbt.so/2013.1/901 2013/11/27
 26 27  0  0  0  0  0  0  0  0999 V2000
   -8.0934  -13.7497   23.3195 C   0  0  0  0  0  0  0  0  0  0  0  0
  -10.3745  -16.7754   26.3466 C   0  0  0  0  0  0  0  0  0  0  0  0
   -9.8618  -16.7484   25.0539 C   0  0  0  0  0  0  0  0  0  0  0  0
   -8.4319  -16.3126   24.7252 C   0  0  0  0  0  0  0  0  0  0  0  0
   -8.0653  -15.1078   22.6122 C   0  0  1  0  0  0  0  0  0  0  0  0
  -13.8795  -18.1197   25.6824 C   0  0  0  0  0  0  0  0  0  0  0  0
  -12.4509  -17.6193   25.4635 C   0  0  0  0  0  0  0  0  0  0  0  0
  -10.6897  -17.1617   24.0150 C   0  0  0  0  0  0  0  0  0  0  0  0
   -8.1498  -17.3822   22.5546 C   0  0  0  0  0  0  0  0  0  0  0  0
   -7.8652  -15.2228   21.2418 C   0  0  2  0  0  0  0  0  0  0  0  0
   -7.6331  -14.1558   20.1688 C   0  0  0  0  0  0  0  0  0  0  0  0
   -6.5441  -14.5453   19.1665 C   0  0  0  0  0  0  0  0  0  0  0  0
  -11.6822  -17.2147   26.5630 N   0  0  0  0  0  0  0  0  0  0  0  0
   -8.2157  -16.2597   23.2721 N   0  0  0  0  0  0  0  0  0  0  0  0
  -11.9244  -17.5756   24.2312 N   0  0  0  0  0  0  0  0  0  0  0  0
   -9.6809  -16.4181   27.2989 O   0  0  0  0  0  0  0  0  0  0  0  0
   -4.6969  -14.9942   17.0621 O   0  5  0  0  0  0  0  0  0  0  0  0
   -4.0551  -10.5789   16.0880 O   0  0  0  0  0  0  0  0  0  0  0  0
   -5.7001  -13.4361   18.8426 O   0  0  0  0  0  0  0  0  0  0  0  0
   -5.4949  -12.6728   16.3811 O   0  0  0  0  0  0  0  0  0  0  0  0
   -6.5524  -10.5193   15.4155 O   0  5  0  0  0  0  0  0  0  0  0  0
   -3.3905  -12.9046   17.8422 O   0  0  0  0  0  0  0  0  0  0  0  0
   -5.8781  -10.6445   17.8890 O   0  0  0  0  0  0  0  0  0  0  0  0
   -7.9575  -16.9245   20.8830 S   0  0  0  0  0  0  0  0  0  0  0  0
   -4.7321  -13.4628   17.5559 P   0  0  2  0  0  0  0  0  0  0  0  0
   -5.5627  -11.0670   16.3700 P   0  0  2  0  0  0  0  0  0  0  0  0
  2 16  2  0  0  0  0
  2  3  1  0  0  0  0
  2 13  1  0  0  0  0
  3  8  2  0  0  0  0
  3  4  1  0  0  0  0
  4 14  1  0  0  0  0
  5  1  1  1  0  0  0
  5 14  1  0  0  0  0
  5 10  1  0  0  0  0
  6  7  1  0  0  0  0
  7 13  1  0  0  0  0
  7 15  2  0  0  0  0
  8 15  1  0  0  0  0
  9 14  1  0  0  0  0
  9 24  1  0  0  0  0
 10 24  1  0  0  0  0
 10 11  1  6  0  0  0
 11 12  1  0  0  0  0
 12 19  1  0  0  0  0
 17 25  1  0  0  0  0
 19 25  1  0  0  0  0
 20 26  1  0  0  0  0
 21 26  1  0  0  0  0
 22 25  2  0  0  0  0
 23 26  2  0  0  0  0
 25 20  1  6  0  0  0
 26 18  1  6  0  0  0
M  CHG  2  17  -1  21  -1
M  END
>  <CHROM.1>
-174.41384513,137.64061312,-138.83319550,109.57479905,-164.08220986,-171.06222207
-13.15604732,68.41829218,-7.62541798,-14.64863296,20.82415913,2.29973116
-0.71427506,2.64189959

>  <Name>
ligand

>  <RI>
0

>  <Rbt.Current_Directory>
/home/itssahil/PROJECTS/Mol_Feturizer/New_Systems/rnas/3D2X

>  <Rbt.Executable>
rbdock ($Id: //depot/dev/client3/rdock/2013.1/src/exe/rbdock.cxx#4 $)

>  <Rbt.Library>
libRbt.so (2013.1, Build901 2013/11/27)

>  <Rbt.Parameter_File>
/export/apps/rDock/src/rDock_2013.1_src/data/scripts/dock_solv.prm

>  <Rbt.Receptor>
prm/pocket_docking_7.prm

>  <SCORE>
-19.925

>  <SCORE.INTER>
-22.3896

>  <SCORE.INTER.CONST>
1

>  <SCORE.INTER.POLAR>
0

>  <SCORE.INTER.ROT>
8

>  <SCORE.INTER.SOLV>
14.1471

>  <SCORE.INTER.VDW>
-28.5754

>  <SCORE.INTER.norm>
-0.861137

>  <SCORE.INTRA>
2.46455

>  <SCORE.INTRA.DIHEDRAL>
5.04068

>  <SCORE.INTRA.DIHEDRAL.0>
7.88077

>  <SCORE.INTRA.POLAR>
0

>  <SCORE.INTRA.POLAR.0>
0

>  <SCORE.INTRA.REPUL>
0

>  <SCORE.INTRA.REPUL.0>
0

>  <SCORE.INTRA.SOLV>
-1.32599

>  <SCORE.INTRA.SOLV.lig_0>
-63.2542

>  <SCORE.INTRA.VDW>
0.607205

>  <SCORE.INTRA.VDW.0>
-3.15072

>  <SCORE.INTRA.norm>
0.0947903

>  <SCORE.RESTR>
0

>  <SCORE.RESTR.CAVITY>
0

>  <SCORE.RESTR.norm>
0

>  <SCORE.SYSTEM>
0

>  <SCORE.SYSTEM.CONST>
0

>  <SCORE.SYSTEM.DIHEDRAL>
0

>  <SCORE.SYSTEM.SOLV>
0

>  <SCORE.SYSTEM.norm>
0

>  <SCORE.heavy>
26

>  <SCORE.norm>
-0.766346

>  <RMSD>
2.060

$$$$
ligand
 OpenBabel11021811473D
libRbt.so/2013.1/901 2013/11/27
 26 27  0  0  0  0  0  0  0  0999 V2000
   -6.8404  -16.9555   22.1785 C   0  0  0  0  0  0  0  0  0  0  0  0
  -10.1374  -17.3539   24.0840 C   0  0  0  0  0  0  0  0  0  0  0  0
   -9.3393  -16.8158   25.0881 C   0  0  0  0  0  0  0  0  0  0  0  0
   -7.8906  -16.3750   24.8653 C   0  0  0  0  0  0  0  0  0  0  0  0
   -7.3295  -15.5697   22.6099 C   0  0  1  0  0  0  0  0  0  0  0  0
  -13.4035  -17.8641   25.9828 C   0  0  0  0  0  0  0  0  0  0  0  0
  -11.9526  -17.5030   25.6608 C   0  0  0  0  0  0  0  0  0  0  0  0
   -9.9008  -16.6520   26.3503 C   0  0  0  0  0  0  0  0  0  0  0  0
   -8.2268  -14.0903   24.0895 C   0  0  0  0  0  0  0  0  0  0  0  0
   -7.3193  -14.4810   21.7462 C   0  0  2  0  0  0  0  0  0  0  0  0
   -6.8784  -14.3639   20.2849 C   0  0  0  0  0  0  0  0  0  0  0  0
   -6.1776  -13.0383   19.9781 C   0  0  0  0  0  0  0  0  0  0  0  0
  -11.4598  -17.7037   24.3645 N   0  0  0  0  0  0  0  0  0  0  0  0
   -7.8079  -15.3306   23.8342 N   0  0  0  0  0  0  0  0  0  0  0  0
  -11.1525  -16.9857   26.6042 N   0  0  0  0  0  0  0  0  0  0  0  0
   -9.6852  -17.5194   22.9509 O   0  0  0  0  0  0  0  0  0  0  0  0
   -4.0422  -15.1594   19.6487 O   0  5  0  0  0  0  0  0  0  0  0  0
   -2.4662  -11.1685   16.9776 O   0  0  0  0  0  0  0  0  0  0  0  0
   -4.9068  -12.9470   20.6295 O   0  0  0  0  0  0  0  0  0  0  0  0
   -3.2992  -12.9576   18.6050 O   0  0  0  0  0  0  0  0  0  0  0  0
   -3.8713  -10.4724   19.0351 O   0  5  0  0  0  0  0  0  0  0  0  0
   -2.4382  -13.5990   20.9425 O   0  0  0  0  0  0  0  0  0  0  0  0
   -1.4698  -11.3278   19.3340 O   0  0  0  0  0  0  0  0  0  0  0  0
   -7.9104  -13.1282   22.6700 S   0  0  0  0  0  0  0  0  0  0  0  0
   -3.5964  -13.6585   20.0214 P   0  0  2  0  0  0  0  0  0  0  0  0
   -2.8536  -11.4156   18.5201 P   0  0  2  0  0  0  0  0  0  0  0  0
  2 16  2  0  0  0  0
  2  3  1  0  0  0  0
  2 13  1  0  0  0  0
  3  8  2  0  0  0  0
  3  4  1  0  0  0  0
  4 14  1  0  0  0  0
  5  1  1  6  0  0  0
  5 14  1  0  0  0  0
  5 10  1  0  0  0  0
  6  7  1  0  0  0  0
  7 13  1  0  0  0  0
  7 15  2  0  0  0  0
  8 15  1  0  0  0  0
  9 14  1  0  0  0  0
  9 24  1  0  0  0  0
 10 24  1  0  0  0  0
 10 11  1  1  0  0  0
 11 12  1  0  0  0  0
 12 19  1  0  0  0  0
 17 25  1  0  0  0  0
 19 25  1  0  0  0  0
 20 26  1  0  0  0  0
 21 26  1  0  0  0  0
 22 25  2  0  0  0  0
 23 26  2  0  0  0  0
 25 20  1  6  0  0  0
 26 18  1  6  0  0  0
M  CHG  2  17  -1  21  -1
M  END
>  <CHROM.1>
59.38778438,-142.39893780,68.15637775,-106.81418276,80.69214199,178.46655628
-47.48045233,172.50624079,-6.57621280,-14.44113612,21.82805952,-2.57945810
0.60386152,-0.16066876

>  <Name>
ligand

>  <RI>
0

>  <Rbt.Current_Directory>
/home/itssahil/PROJECTS/Mol_Feturizer/New_Systems/rnas/3D2X

>  <Rbt.Executable>
rbdock ($Id: //depot/dev/client3/rdock/2013.1/src/exe/rbdock.cxx#4 $)

>  <Rbt.Library>
libRbt.so (2013.1, Build901 2013/11/27)

>  <Rbt.Parameter_File>
/export/apps/rDock/src/rDock_2013.1_src/data/scripts/dock_solv.prm

>  <Rbt.Receptor>
prm/pocket_docking_2.prm

>  <SCORE>
-17.7417

>  <SCORE.INTER>
-17.3031

>  <SCORE.INTER.CONST>
1

>  <SCORE.INTER.POLAR>
0

>  <SCORE.INTER.ROT>
8

>  <SCORE.INTER.SOLV>
8.41629

>  <SCORE.INTER.VDW>
-23.2741

>  <SCORE.INTER.norm>
-0.665502

>  <SCORE.INTRA>
-0.438663

>  <SCORE.INTRA.DIHEDRAL>
-0.511562

>  <SCORE.INTRA.DIHEDRAL.0>
7.88077

>  <SCORE.INTRA.POLAR>
0

>  <SCORE.INTRA.POLAR.0>
0

>  <SCORE.INTRA.REPUL>
0

>  <SCORE.INTRA.REPUL.0>
0

>  <SCORE.INTRA.SOLV>
1.43403

>  <SCORE.INTRA.SOLV.lig_0>
-63.2542

>  <SCORE.INTRA.VDW>
-0.899895

>  <SCORE.INTRA.VDW.0>
-3.15072

>  <SCORE.INTRA.norm>
-0.0168717

>  <SCORE.RESTR>
0

>  <SCORE.RESTR.CAVITY>
0

>  <SCORE.RESTR.norm>
0

>  <SCORE.SYSTEM>
0

>  <SCORE.SYSTEM.CONST>
0

>  <SCORE.SYSTEM.DIHEDRAL>
0

>  <SCORE.SYSTEM.SOLV>
0

>  <SCORE.SYSTEM.norm>
0

>  <SCORE.heavy>
26

>  <SCORE.norm>
-0.682374

>  <RMSD>
2.069

$$$$
ligand
 OpenBabel11021811473D
libRbt.so/2013.1/901 2013/11/27
 26 27  0  0  0  0  0  0  0  0999 V2000
   -7.6598  -16.7808   21.7754 C   0  0  0  0  0  0  0  0  0  0  0  0
   -9.8448  -16.8926   26.3672 C   0  0  0  0  0  0  0  0  0  0  0  0
   -9.3903  -16.8150   25.0549 C   0  0  0  0  0  0  0  0  0  0  0  0
   -7.9546  -16.4370   24.6830 C   0  0  0  0  0  0  0  0  0  0  0  0
   -7.7915  -15.4133   22.4523 C   0  0  1  0  0  0  0  0  0  0  0  0
  -13.4460  -18.0056   25.7972 C   0  0  0  0  0  0  0  0  0  0  0  0
  -12.0030  -17.5698   25.5385 C   0  0  0  0  0  0  0  0  0  0  0  0
  -10.2862  -17.1202   24.0352 C   0  0  0  0  0  0  0  0  0  0  0  0
   -8.0598  -14.0420   24.2498 C   0  0  0  0  0  0  0  0  0  0  0  0
   -7.7908  -14.2274   21.7277 C   0  0  2  0  0  0  0  0  0  0  0  0
   -7.6807  -13.9717   20.2224 C   0  0  0  0  0  0  0  0  0  0  0  0
   -6.2323  -13.9214   19.7306 C   0  0  0  0  0  0  0  0  0  0  0  0
  -11.1639  -17.2738   26.6210 N   0  0  0  0  0  0  0  0  0  0  0  0
   -7.9301  -15.2815   23.7746 N   0  0  0  0  0  0  0  0  0  0  0  0
  -11.5311  -17.4800   24.2867 N   0  0  0  0  0  0  0  0  0  0  0  0
   -9.0899  -16.6307   27.3039 O   0  0  0  0  0  0  0  0  0  0  0  0
   -5.0400  -12.6355   16.2141 O   0  5  0  0  0  0  0  0  0  0  0  0
   -2.5840  -11.3746   16.4299 O   0  0  0  0  0  0  0  0  0  0  0  0
   -6.1494  -13.4929   18.3678 O   0  0  0  0  0  0  0  0  0  0  0  0
   -3.8253  -12.3626   18.4365 O   0  0  0  0  0  0  0  0  0  0  0  0
   -1.6620  -10.9976   18.8174 O   0  5  0  0  0  0  0  0  0  0  0  0
   -4.0903  -14.7126   17.4246 O   0  0  0  0  0  0  0  0  0  0  0  0
   -1.5618  -13.3257   17.7412 O   0  0  0  0  0  0  0  0  0  0  0  0
   -7.9139  -12.9463   22.9010 S   0  0  0  0  0  0  0  0  0  0  0  0
   -4.7364  -13.3918   17.6020 P   0  0  2  0  0  0  0  0  0  0  0  0
   -2.3625  -11.9429   17.9195 P   0  0  2  0  0  0  0  0  0  0  0  0
  2 16  2  0  0  0  0
  2  3  1  0  0  0  0
  2 13  1  0  0  0  0
  3  8  2  0  0  0  0
  3  4  1  0  0  0  0
  4 14  1  0  0  0  0
  5  1  1  6  0  0  0
  5 14  1  0  0  0  0
  5 10  1  0  0  0  0
  6  7  1  0  0  0  0
  7 13  1  0  0  0  0
  7 15  2  0  0  0  0
  8 15  1  0  0  0  0
  9 14  1  0  0  0  0
  9 24  1  0  0  0  0
 10 24  1  0  0  0  0
 10 11  1  1  0  0  0
 11 12  1  0  0  0  0
 12 19  1  0  0  0  0
 17 25  1  0  0  0  0
 19 25  1  0  0  0  0
 20 26  1  0  0  0  0
 21 26  1  0  0  0  0
 22 25  2  0  0  0  0
 23 26  2  0  0  0  0
 25 20  1  1  0  0  0
 26 18  1  6  0  0  0
M  CHG  2  17  -1  21  -1
M  END
>  <CHROM.1>
-123.87509087,-85.11949308,-171.62007342,-98.80409640,-178.44374717,-64.30503193
-170.12043786,55.42255344,-6.78962583,-14.46772791,21.29450149,2.43112460
0.59376825,1.50528523

>  <Name>
ligand

>  <RI>
0

>  <Rbt.Current_Directory>
/home/itssahil/PROJECTS/Mol_Feturizer/New_Systems/rnas/3D2X

>  <Rbt.Executable>
rbdock ($Id: //depot/dev/client3/rdock/2013.1/src/exe/rbdock.cxx#4 $)

>  <Rbt.Library>
libRbt.so (2013.1, Build901 2013/11/27)

>  <Rbt.Parameter_File>
/export/apps/rDock/src/rDock_2013.1_src/data/scripts/dock_solv.prm

>  <Rbt.Receptor>
prm/pocket_docking_3.prm

>  <SCORE>
-22.5837

>  <SCORE.INTER>
-20.2088

>  <SCORE.INTER.CONST>
1

>  <SCORE.INTER.POLAR>
0

>  <SCORE.INTER.ROT>
8

>  <SCORE.INTER.SOLV>
8.27257

>  <SCORE.INTER.VDW>
-25.1634

>  <SCORE.INTER.norm>
-0.77726

>  <SCORE.INTRA>
-2.37491

>  <SCORE.INTRA.DIHEDRAL>
-2.80176

>  <SCORE.INTRA.DIHEDRAL.0>
7.88077

>  <SCORE.INTRA.POLAR>
0

>  <SCORE.INTRA.POLAR.0>
0

>  <SCORE.INTRA.REPUL>
0

>  <SCORE.INTRA.REPUL.0>
0

>  <SCORE.INTRA.SOLV>
-1.1196

>  <SCORE.INTRA.SOLV.lig_0>
-63.2542

>  <SCORE.INTRA.VDW>
-0.41423

>  <SCORE.INTRA.VDW.0>
-3.15072

>  <SCORE.INTRA.norm>
-0.0913427

>  <SCORE.RESTR>
0

>  <SCORE.RESTR.CAVITY>
0

>  <SCORE.RESTR.norm>
0

>  <SCORE.SYSTEM>
0

>  <SCORE.SYSTEM.CONST>
0

>  <SCORE.SYSTEM.DIHEDRAL>
0

>  <SCORE.SYSTEM.SOLV>
0

>  <SCORE.SYSTEM.norm>
0

>  <SCORE.heavy>
26

>  <SCORE.norm>
-0.868603

>  <RMSD>
2.092

$$$$
ligand
 OpenBabel11021811473D
libRbt.so/2013.1/901 2013/11/27
 26 27  0  0  0  0  0  0  0  0999 V2000
   -8.3615  -13.9280   23.3403 C   0  0  0  0  0  0  0  0  0  0  0  0
  -10.0684  -16.8212   26.4330 C   0  0  0  0  0  0  0  0  0  0  0  0
   -9.5184  -16.8281   25.1555 C   0  0  0  0  0  0  0  0  0  0  0  0
   -8.0701  -16.4302   24.8611 C   0  0  0  0  0  0  0  0  0  0  0  0
   -7.9502  -15.2580   22.7020 C   0  0  1  0  0  0  0  0  0  0  0  0
  -13.5828  -18.0979   25.6901 C   0  0  0  0  0  0  0  0  0  0  0  0
  -12.1374  -17.6335   25.5044 C   0  0  0  0  0  0  0  0  0  0  0  0
  -10.3255  -17.2407   24.1001 C   0  0  0  0  0  0  0  0  0  0  0  0
   -7.4324  -17.4744   22.7545 C   0  0  0  0  0  0  0  0  0  0  0  0
   -7.6734  -15.3714   21.3448 C   0  0  2  0  0  0  0  0  0  0  0  0
   -7.6878  -14.3255   20.2271 C   0  0  0  0  0  0  0  0  0  0  0  0
   -6.4076  -14.3316   19.3885 C   0  0  0  0  0  0  0  0  0  0  0  0
  -11.3915  -17.2273   26.6187 N   0  0  0  0  0  0  0  0  0  0  0  0
   -7.8186  -16.3810   23.4136 N   0  0  0  0  0  0  0  0  0  0  0  0
  -11.5750  -17.6231   24.2873 N   0  0  0  0  0  0  0  0  0  0  0  0
   -9.3943  -16.4630   27.3990 O   0  0  0  0  0  0  0  0  0  0  0  0
   -5.5283  -11.8212   16.4956 O   0  5  0  0  0  0  0  0  0  0  0  0
   -4.3981  -12.8457   20.9334 O   0  0  0  0  0  0  0  0  0  0  0  0
   -6.3709  -13.2362   18.4685 O   0  0  0  0  0  0  0  0  0  0  0  0
   -3.9899  -12.2292   18.4846 O   0  0  0  0  0  0  0  0  0  0  0  0
   -2.9574  -14.3966   19.4464 O   0  5  0  0  0  0  0  0  0  0  0  0
   -4.5573  -14.1810   16.9080 O   0  0  0  0  0  0  0  0  0  0  0  0
   -2.0691  -12.0985   20.1662 O   0  0  0  0  0  0  0  0  0  0  0  0
   -7.3017  -17.0503   21.0681 S   0  0  0  0  0  0  0  0  0  0  0  0
   -5.0797  -12.9524   17.5490 P   0  0  2  0  0  0  0  0  0  0  0  0
   -3.3329  -12.9946   19.7360 P   0  0  2  0  0  0  0  0  0  0  0  0
  2 16  2  0  0  0  0
  2  3  1  0  0  0  0
  2 13  1  0  0  0  0
  3  8  2  0  0  0  0
  3  4  1  0  0  0  0
  4 14  1  0  0  0  0
  5  1  1  1  0  0  0
  5 14  1  0  0  0  0
  5 10  1  0  0  0  0
  6  7  1  0  0  0  0
  7 13  1  0  0  0  0
  7 15  2  0  0  0  0
  8 15  1  0  0  0  0
  9 14  1  0  0  0  0
  9 24  1  0  0  0  0
 10 24  1  0  0  0  0
 10 11  1  6  0  0  0
 11 12  1  0  0  0  0
 12 19  1  0  0  0  0
 17 25  1  0  0  0  0
 19 25  1  0  0  0  0
 20 26  1  0  0  0  0
 21 26  1  0  0  0  0
 22 25  2  0  0  0  0
 23 26  2  0  0  0  0
 25 20  1  1  0  0  0
 26 18  1  1  0  0  0
M  CHG  2  17  -1  21  -1
M  END
>  <CHROM.1>
-173.26808663,129.95952023,-172.36170147,92.54577359,175.28822259,176.75076684
170.37932887,-82.30584874,-7.08365400,-14.98846829,21.56655500,-2.32756689
-0.43772402,-1.40410430

>  <Name>
ligand

>  <RI>
0

>  <Rbt.Current_Directory>
/home/itssahil/PROJECTS/Mol_Feturizer/New_Systems/rnas/3D2X

>  <Rbt.Executable>
rbdock ($Id: //depot/dev/client3/rdock/2013.1/src/exe/rbdock.cxx#4 $)

>  <Rbt.Library>
libRbt.so (2013.1, Build901 2013/11/27)

>  <Rbt.Parameter_File>
/export/apps/rDock/src/rDock_2013.1_src/data/scripts/dock_solv.prm

>  <Rbt.Receptor>
prm/pocket_docking_3.prm

>  <SCORE>
-21.9678

>  <SCORE.INTER>
-19.9715

>  <SCORE.INTER.CONST>
1

>  <SCORE.INTER.POLAR>
0

>  <SCORE.INTER.ROT>
8

>  <SCORE.INTER.SOLV>
8.3065

>  <SCORE.INTER.VDW>
-25.0165

>  <SCORE.INTER.norm>
-0.768133

>  <SCORE.INTRA>
-1.99631

>  <SCORE.INTRA.DIHEDRAL>
-1.62466

>  <SCORE.INTRA.DIHEDRAL.0>
7.88077

>  <SCORE.INTRA.POLAR>
0

>  <SCORE.INTRA.POLAR.0>
0

>  <SCORE.INTRA.REPUL>
0

>  <SCORE.INTRA.REPUL.0>
0

>  <SCORE.INTRA.SOLV>
-1.64649

>  <SCORE.INTRA.SOLV.lig_0>
-63.2542

>  <SCORE.INTRA.VDW>
-0.360733

>  <SCORE.INTRA.VDW.0>
-3.15072

>  <SCORE.INTRA.norm>
-0.0767812

>  <SCORE.RESTR>
0

>  <SCORE.RESTR.CAVITY>
0

>  <SCORE.RESTR.norm>
0

>  <SCORE.SYSTEM>
0

>  <SCORE.SYSTEM.CONST>
0

>  <SCORE.SYSTEM.DIHEDRAL>
0

>  <SCORE.SYSTEM.SOLV>
0

>  <SCORE.SYSTEM.norm>
0

>  <SCORE.heavy>
26

>  <SCORE.norm>
-0.844915

>  <RMSD>
2.137

$$$$
ligand
 OpenBabel11021811473D
libRbt.so/2013.1/901 2013/11/27
 26 27  0  0  0  0  0  0  0  0999 V2000
   -7.9342  -13.7358   22.9331 C   0  0  0  0  0  0  0  0  0  0  0  0
  -10.2558  -16.7340   26.1647 C   0  0  0  0  0  0  0  0  0  0  0  0
   -9.8394  -16.6801   24.8386 C   0  0  0  0  0  0  0  0  0  0  0  0
   -8.4402  -16.2277   24.4142 C   0  0  0  0  0  0  0  0  0  0  0  0
   -8.0835  -15.1017   22.2566 C   0  0  1  0  0  0  0  0  0  0  0  0
  -13.7916  -18.0924   25.7343 C   0  0  0  0  0  0  0  0  0  0  0  0
  -12.3861  -17.5775   25.4206 C   0  0  0  0  0  0  0  0  0  0  0  0
  -10.7387  -17.0809   23.8557 C   0  0  0  0  0  0  0  0  0  0  0  0
   -8.3966  -17.3567   22.2559 C   0  0  0  0  0  0  0  0  0  0  0  0
   -7.9785  -15.2593   20.8798 C   0  0  2  0  0  0  0  0  0  0  0  0
   -7.7067  -14.2393   19.7711 C   0  0  0  0  0  0  0  0  0  0  0  0
   -6.3220  -14.4003   19.1394 C   0  0  0  0  0  0  0  0  0  0  0  0
  -11.5413  -17.1869   26.4681 N   0  0  0  0  0  0  0  0  0  0  0  0
   -8.3075  -16.2214   22.9501 N   0  0  0  0  0  0  0  0  0  0  0  0
  -11.9516  -17.5079   24.1541 N   0  0  0  0  0  0  0  0  0  0  0  0
   -9.4964  -16.3886   27.0701 O   0  0  0  0  0  0  0  0  0  0  0  0
   -5.1288  -12.7511   15.8047 O   0  5  0  0  0  0  0  0  0  0  0  0
   -4.4668  -12.5157   20.3716 O   0  0  0  0  0  0  0  0  0  0  0  0
   -6.1222  -13.4838   18.0587 O   0  0  0  0  0  0  0  0  0  0  0  0
   -3.7324  -12.5074   17.9213 O   0  0  0  0  0  0  0  0  0  0  0  0
   -2.6446  -14.1708   19.5762 O   0  5  0  0  0  0  0  0  0  0  0  0
   -4.2235  -14.8576   16.9982 O   0  0  0  0  0  0  0  0  0  0  0  0
   -2.1374  -11.6593   19.7300 O   0  0  0  0  0  0  0  0  0  0  0  0
   -8.2607  -16.9490   20.5659 S   0  0  0  0  0  0  0  0  0  0  0  0
   -4.7685  -13.4935   17.1865 P   0  0  2  0  0  0  0  0  0  0  0  0
   -3.2105  -12.8133   19.4105 P   0  0  2  0  0  0  0  0  0  0  0  0
  2 16  2  0  0  0  0
  2  3  1  0  0  0  0
  2 13  1  0  0  0  0
  3  8  2  0  0  0  0
  3  4  1  0  0  0  0
  4 14  1  0  0  0  0
  5  1  1  1  0  0  0
  5 14  1  0  0  0  0
  5 10  1  0  0  0  0
  6  7  1  0  0  0  0
  7 13  1  0  0  0  0
  7 15  2  0  0  0  0
  8 15  1  0  0  0  0
  9 14  1  0  0  0  0
  9 24  1  0  0  0  0
 10 24  1  0  0  0  0
 10 11  1  6  0  0  0
 11 12  1  0  0  0  0
 12 19  1  0  0  0  0
 17 25  1  0  0  0  0
 19 25  1  0  0  0  0
 20 26  1  0  0  0  0
 21 26  1  0  0  0  0
 22 25  2  0  0  0  0
 23 26  2  0  0  0  0
 25 20  1  1  0  0  0
 26 18  1  1  0  0  0
M  CHG  2  17  -1  21  -1
M  END
>  <CHROM.1>
-177.66759340,109.65024753,176.81135947,116.55056134,-177.35397562,174.64287473
159.75957927,-72.14999983,-7.18452335,-14.99889053,21.22933021,-2.45338076
-0.55692963,-1.62145846

>  <Name>
ligand

>  <RI>
0

>  <Rbt.Current_Directory>
/home/itssahil/PROJECTS/Mol_Feturizer/New_Systems/rnas/3D2X

>  <Rbt.Executable>
rbdock ($Id: //depot/dev/client3/rdock/2013.1/src/exe/rbdock.cxx#4 $)

>  <Rbt.Library>
libRbt.so (2013.1, Build901 2013/11/27)

>  <Rbt.Parameter_File>
/export/apps/rDock/src/rDock_2013.1_src/data/scripts/dock_solv.prm

>  <Rbt.Receptor>
prm/pocket_docking_4.prm

>  <SCORE>
-21.5444

>  <SCORE.INTER>
-19.8185

>  <SCORE.INTER.CONST>
1

>  <SCORE.INTER.POLAR>
0

>  <SCORE.INTER.ROT>
8

>  <SCORE.INTER.SOLV>
8.09434

>  <SCORE.INTER.VDW>
-24.8437

>  <SCORE.INTER.norm>
-0.762248

>  <SCORE.INTRA>
-1.72595

>  <SCORE.INTRA.DIHEDRAL>
-1.65333

>  <SCORE.INTRA.DIHEDRAL.0>
7.88077

>  <SCORE.INTRA.POLAR>
0

>  <SCORE.INTRA.POLAR.0>
0

>  <SCORE.INTRA.REPUL>
0

>  <SCORE.INTRA.REPUL.0>
0

>  <SCORE.INTRA.SOLV>
-1.98303

>  <SCORE.INTRA.SOLV.lig_0>
-63.2542

>  <SCORE.INTRA.VDW>
0.0922346

>  <SCORE.INTRA.VDW.0>
-3.15072

>  <SCORE.INTRA.norm>
-0.0663827

>  <SCORE.RESTR>
0

>  <SCORE.RESTR.CAVITY>
0

>  <SCORE.RESTR.norm>
0

>  <SCORE.SYSTEM>
0

>  <SCORE.SYSTEM.CONST>
0

>  <SCORE.SYSTEM.DIHEDRAL>
0

>  <SCORE.SYSTEM.SOLV>
0

>  <SCORE.SYSTEM.norm>
0

>  <SCORE.heavy>
26

>  <SCORE.norm>
-0.828631

>  <RMSD>
2.141

$$$$
ligand
 OpenBabel11021811473D
libRbt.so/2013.1/901 2013/11/27
 26 27  0  0  0  0  0  0  0  0999 V2000
   -7.6808  -16.7861   21.7666 C   0  0  0  0  0  0  0  0  0  0  0  0
  -10.1912  -16.7029   26.2658 C   0  0  0  0  0  0  0  0  0  0  0  0
   -9.6433  -16.8868   25.0006 C   0  0  0  0  0  0  0  0  0  0  0  0
   -8.1927  -16.5429   24.6541 C   0  0  0  0  0  0  0  0  0  0  0  0
   -7.8856  -15.4438   22.4752 C   0  0  1  0  0  0  0  0  0  0  0  0
  -13.7157  -18.0429   25.7050 C   0  0  0  0  0  0  0  0  0  0  0  0
  -12.2674  -17.6185   25.4571 C   0  0  0  0  0  0  0  0  0  0  0  0
  -10.4550  -17.4327   24.0114 C   0  0  0  0  0  0  0  0  0  0  0  0
   -8.3082  -14.1368   24.2907 C   0  0  0  0  0  0  0  0  0  0  0  0
   -7.8530  -14.2348   21.7906 C   0  0  2  0  0  0  0  0  0  0  0  0
   -7.6380  -13.9279   20.3063 C   0  0  0  0  0  0  0  0  0  0  0  0
   -6.7303  -12.7179   20.0732 C   0  0  0  0  0  0  0  0  0  0  0  0
  -11.5168  -17.0704   26.5057 N   0  0  0  0  0  0  0  0  0  0  0  0
   -8.1225  -15.3578   23.7872 N   0  0  0  0  0  0  0  0  0  0  0  0
  -11.7069  -17.7771   24.2495 N   0  0  0  0  0  0  0  0  0  0  0  0
   -9.5130  -16.2220   27.1739 O   0  0  0  0  0  0  0  0  0  0  0  0
   -4.1454  -11.3595   20.2695 O   0  5  0  0  0  0  0  0  0  0  0  0
   -2.3354  -11.6679   16.3854 O   0  0  0  0  0  0  0  0  0  0  0  0
   -5.7402  -12.9822   19.0745 O   0  0  0  0  0  0  0  0  0  0  0  0
   -3.2342  -12.8877   18.4464 O   0  0  0  0  0  0  0  0  0  0  0  0
   -1.2788  -11.2146   18.7028 O   0  5  0  0  0  0  0  0  0  0  0  0
   -4.8018  -10.9526   17.8026 O   0  0  0  0  0  0  0  0  0  0  0  0
   -0.9191  -13.4705   17.5324 O   0  0  0  0  0  0  0  0  0  0  0  0
   -8.0838  -12.9952   22.9919 S   0  0  0  0  0  0  0  0  0  0  0  0
   -4.5048  -11.9790   18.8281 P   0  0  2  0  0  0  0  0  0  0  0  0
   -1.9023  -12.2333   17.8288 P   0  0  2  0  0  0  0  0  0  0  0  0
  2 16  2  0  0  0  0
  2  3  1  0  0  0  0
  2 13  1  0  0  0  0
  3  8  2  0  0  0  0
  3  4  1  0  0  0  0
  4 14  1  0  0  0  0
  5  1  1  6  0  0  0
  5 14  1  0  0  0  0
  5 10  1  0  0  0  0
  6  7  1  0  0  0  0
  7 13  1  0  0  0  0
  7 15  2  0  0  0  0
  8 15  1  0  0  0  0
  9 14  1  0  0  0  0
  9 24  1  0  0  0  0
 10 24  1  0  0  0  0
 10 11  1  1  0  0  0
 11 12  1  0  0  0  0
 12 19  1  0  0  0  0
 17 25  1  0  0  0  0
 19 25  1  0  0  0  0
 20 26  1  0  0  0  0
 21 26  1  0  0  0  0
 22 25  2  0  0  0  0
 23 26  2  0  0  0  0
 25 20  1  6  0  0  0
 26 18  1  6  0  0  0
M  CHG  2  17  -1  21  -1
M  END
>  <CHROM.1>
-108.77421449,-138.55625954,133.83574305,-103.43673152,-168.91507251,-81.07856847
33.36328253,-66.09501439,-6.77277940,-14.18678800,21.56340030,-2.91234450
0.80593588,0.27860098

>  <Name>
ligand

>  <RI>
0

>  <Rbt.Current_Directory>
/home/itssahil/PROJECTS/Mol_Feturizer/New_Systems/rnas/3D2X

>  <Rbt.Executable>
rbdock ($Id: //depot/dev/client3/rdock/2013.1/src/exe/rbdock.cxx#4 $)

>  <Rbt.Library>
libRbt.so (2013.1, Build901 2013/11/27)

>  <Rbt.Parameter_File>
/export/apps/rDock/src/rDock_2013.1_src/data/scripts/dock_solv.prm

>  <Rbt.Receptor>
prm/pocket_docking_3.prm

>  <SCORE>
-17.1683

>  <SCORE.INTER>
-18.7422

>  <SCORE.INTER.CONST>
1

>  <SCORE.INTER.POLAR>
0

>  <SCORE.INTER.ROT>
8

>  <SCORE.INTER.SOLV>
9.27961

>  <SCORE.INTER.VDW>
-24.5213

>  <SCORE.INTER.norm>
-0.720852

>  <SCORE.INTRA>
1.57381

>  <SCORE.INTRA.DIHEDRAL>
4.38556

>  <SCORE.INTRA.DIHEDRAL.0>
7.88077

>  <SCORE.INTRA.POLAR>
0

>  <SCORE.INTRA.POLAR.0>
0

>  <SCORE.INTRA.REPUL>
0

>  <SCORE.INTRA.REPUL.0>
0

>  <SCORE.INTRA.SOLV>
-1.22755

>  <SCORE.INTRA.SOLV.lig_0>
-63.2542

>  <SCORE.INTRA.VDW>
-0.00519403

>  <SCORE.INTRA.VDW.0>
-3.15072

>  <SCORE.INTRA.norm>
0.0605312

>  <SCORE.RESTR>
0

>  <SCORE.RESTR.CAVITY>
0

>  <SCORE.RESTR.norm>
0

>  <SCORE.SYSTEM>
0

>  <SCORE.SYSTEM.CONST>
0

>  <SCORE.SYSTEM.DIHEDRAL>
0

>  <SCORE.SYSTEM.SOLV>
0

>  <SCORE.SYSTEM.norm>
0

>  <SCORE.heavy>
26

>  <SCORE.norm>
-0.660321

>  <RMSD>
2.142

$$$$
ligand
 OpenBabel11021811473D
libRbt.so/2013.1/901 2013/11/27
 26 27  0  0  0  0  0  0  0  0999 V2000
   -8.4127  -13.9379   23.5923 C   0  0  0  0  0  0  0  0  0  0  0  0
   -9.8854  -16.9288   26.5979 C   0  0  0  0  0  0  0  0  0  0  0  0
   -9.3600  -16.8135   25.3151 C   0  0  0  0  0  0  0  0  0  0  0  0
   -7.8997  -16.4515   25.0338 C   0  0  0  0  0  0  0  0  0  0  0  0
   -7.8835  -15.2048   22.9135 C   0  0  1  0  0  0  0  0  0  0  0  0
  -13.4706  -17.9478   25.7977 C   0  0  0  0  0  0  0  0  0  0  0  0
  -12.0081  -17.5322   25.6319 C   0  0  0  0  0  0  0  0  0  0  0  0
  -10.2054  -17.0639   24.2390 C   0  0  0  0  0  0  0  0  0  0  0  0
   -7.1696  -17.3665   22.8974 C   0  0  0  0  0  0  0  0  0  0  0  0
   -7.5967  -15.2495   21.5544 C   0  0  2  0  0  0  0  0  0  0  0  0
   -7.7038  -14.1737   20.4706 C   0  0  0  0  0  0  0  0  0  0  0  0
   -6.7306  -14.3972   19.3107 C   0  0  0  0  0  0  0  0  0  0  0  0
  -11.2229  -17.2921   26.7674 N   0  0  0  0  0  0  0  0  0  0  0  0
   -7.6525  -16.3337   23.5895 N   0  0  0  0  0  0  0  0  0  0  0  0
  -11.4683  -17.4073   24.4110 N   0  0  0  0  0  0  0  0  0  0  0  0
   -9.1771  -16.7159   27.5821 O   0  0  0  0  0  0  0  0  0  0  0  0
   -4.0737  -13.4398   17.8763 O   0  5  0  0  0  0  0  0  0  0  0  0
   -3.7580  -13.4497   21.5710 O   0  0  0  0  0  0  0  0  0  0  0  0
   -5.3874  -14.5736   19.7718 O   0  0  0  0  0  0  0  0  0  0  0  0
   -2.8175  -14.8090   19.6188 O   0  0  0  0  0  0  0  0  0  0  0  0
   -1.2031  -13.8025   21.3707 O   0  5  0  0  0  0  0  0  0  0  0  0
   -4.3290  -16.0117   17.9200 O   0  0  0  0  0  0  0  0  0  0  0  0
   -2.4365  -12.2830   19.7100 O   0  0  0  0  0  0  0  0  0  0  0  0
   -7.0761  -16.8786   21.2258 S   0  0  0  0  0  0  0  0  0  0  0  0
   -4.1669  -14.7920   18.7443 P   0  0  2  0  0  0  0  0  0  0  0  0
   -2.4657  -13.6053   20.6242 P   0  0  2  0  0  0  0  0  0  0  0  0
  2 16  2  0  0  0  0
  2  3  1  0  0  0  0
  2 13  1  0  0  0  0
  3  8  2  0  0  0  0
  3  4  1  0  0  0  0
  4 14  1  0  0  0  0
  5  1  1  1  0  0  0
  5 14  1  0  0  0  0
  5 10  1  0  0  0  0
  6  7  1  0  0  0  0
  7 13  1  0  0  0  0
  7 15  2  0  0  0  0
  8 15  1  0  0  0  0
  9 14  1  0  0  0  0
  9 24  1  0  0  0  0
 10 24  1  0  0  0  0
 10 11  1  6  0  0  0
 11 12  1  0  0  0  0
 12 19  1  0  0  0  0
 17 25  1  0  0  0  0
 19 25  1  0  0  0  0
 20 26  1  0  0  0  0
 21 26  1  0  0  0  0
 22 25  2  0  0  0  0
 23 26  2  0  0  0  0
 25 20  1  1  0  0  0
 26 18  1  1  0  0  0
M  CHG  2  17  -1  21  -1
M  END
>  <CHROM.1>
-176.98975483,153.35607306,-52.15707956,85.27711228,-178.57561227,58.30790362
63.46877088,53.50557661,-6.66387942,-15.42630017,22.07529285,-2.50407510
-0.42011477,-1.60082267

>  <Name>
ligand

>  <RI>
0

>  <Rbt.Current_Directory>
/home/itssahil/PROJECTS/Mol_Feturizer/New_Systems/rnas/3D2X

>  <Rbt.Executable>
rbdock ($Id: //depot/dev/client3/rdock/2013.1/src/exe/rbdock.cxx#4 $)

>  <Rbt.Library>
libRbt.so (2013.1, Build901 2013/11/27)

>  <Rbt.Parameter_File>
/export/apps/rDock/src/rDock_2013.1_src/data/scripts/dock_solv.prm

>  <Rbt.Receptor>
prm/pocket_docking_2.prm

>  <SCORE>
-23.0862

>  <SCORE.INTER>
-20.8793

>  <SCORE.INTER.CONST>
1

>  <SCORE.INTER.POLAR>
0

>  <SCORE.INTER.ROT>
8

>  <SCORE.INTER.SOLV>
9.56259

>  <SCORE.INTER.VDW>
-26.0404

>  <SCORE.INTER.norm>
-0.80305

>  <SCORE.INTRA>
-2.66932

>  <SCORE.INTRA.DIHEDRAL>
-2.81119

>  <SCORE.INTRA.DIHEDRAL.0>
7.88077

>  <SCORE.INTRA.POLAR>
0

>  <SCORE.INTRA.POLAR.0>
0

>  <SCORE.INTRA.REPUL>
0

>  <SCORE.INTRA.REPUL.0>
0

>  <SCORE.INTRA.SOLV>
-1.76116

>  <SCORE.INTRA.SOLV.lig_0>
-63.2542

>  <SCORE.INTRA.VDW>
-0.38315

>  <SCORE.INTRA.VDW.0>
-3.15072

>  <SCORE.INTRA.norm>
-0.102666

>  <SCORE.RESTR>
0.462385

>  <SCORE.RESTR.CAVITY>
0.462385

>  <SCORE.RESTR.norm>
0.017784

>  <SCORE.SYSTEM>
0

>  <SCORE.SYSTEM.CONST>
0

>  <SCORE.SYSTEM.DIHEDRAL>
0

>  <SCORE.SYSTEM.SOLV>
0

>  <SCORE.SYSTEM.norm>
0

>  <SCORE.heavy>
26

>  <SCORE.norm>
-0.887932

>  <RMSD>
2.154

$$$$
ligand
 OpenBabel11021811473D
libRbt.so/2013.1/901 2013/11/27
 26 27  0  0  0  0  0  0  0  0999 V2000
   -6.4664  -17.5845   23.0989 C   0  0  0  0  0  0  0  0  0  0  0  0
   -9.8091  -16.8818   26.6017 C   0  0  0  0  0  0  0  0  0  0  0  0
   -9.3408  -16.5228   25.3422 C   0  0  0  0  0  0  0  0  0  0  0  0
   -7.9291  -15.9873   25.0910 C   0  0  0  0  0  0  0  0  0  0  0  0
   -7.1126  -16.2322   22.7837 C   0  0  1  0  0  0  0  0  0  0  0  0
  -13.3151  -18.0959   25.7258 C   0  0  0  0  0  0  0  0  0  0  0  0
  -11.9019  -17.5253   25.5970 C   0  0  0  0  0  0  0  0  0  0  0  0
  -10.1973  -16.6829   24.2576 C   0  0  0  0  0  0  0  0  0  0  0  0
   -8.3181  -14.3735   23.3080 C   0  0  0  0  0  0  0  0  0  0  0  0
   -7.0592  -15.6660   21.5157 C   0  0  2  0  0  0  0  0  0  0  0  0
   -6.4241  -16.1707   20.2175 C   0  0  0  0  0  0  0  0  0  0  0  0
   -6.3576  -15.0964   19.1295 C   0  0  0  0  0  0  0  0  0  0  0  0
  -11.1024  -17.3899   26.7398 N   0  0  0  0  0  0  0  0  0  0  0  0
   -7.7770  -15.5267   23.7033 N   0  0  0  0  0  0  0  0  0  0  0  0
  -11.4180  -17.1648   24.3997 N   0  0  0  0  0  0  0  0  0  0  0  0
   -9.0890  -16.7572   27.5925 O   0  0  0  0  0  0  0  0  0  0  0  0
   -3.4920  -14.0760   17.6397 O   0  5  0  0  0  0  0  0  0  0  0  0
   -4.3000  -11.4014   18.9776 O   0  0  0  0  0  0  0  0  0  0  0  0
   -5.3529  -14.1172   19.4116 O   0  0  0  0  0  0  0  0  0  0  0  0
   -2.9683  -13.3227   20.0162 O   0  0  0  0  0  0  0  0  0  0  0  0
   -4.5339  -11.9011   21.5050 O   0  5  0  0  0  0  0  0  0  0  0  0
   -3.4229  -15.8119   19.5537 O   0  0  0  0  0  0  0  0  0  0  0  0
   -2.3587  -10.9041   20.5761 O   0  0  0  0  0  0  0  0  0  0  0  0
   -7.8739  -14.1316   21.6392 S   0  0  0  0  0  0  0  0  0  0  0  0
   -3.7891  -14.4258   19.1824 P   0  0  2  0  0  0  0  0  0  0  0  0
   -3.6105  -11.8872   20.3484 P   0  0  2  0  0  0  0  0  0  0  0  0
  2 16  2  0  0  0  0
  2  3  1  0  0  0  0
  2 13  1  0  0  0  0
  3  8  2  0  0  0  0
  3  4  1  0  0  0  0
  4 14  1  0  0  0  0
  5  1  1  6  0  0  0
  5 14  1  0  0  0  0
  5 10  1  0  0  0  0
  6  7  1  0  0  0  0
  7 13  1  0  0  0  0
  7 15  2  0  0  0  0
  8 15  1  0  0  0  0
  9 14  1  0  0  0  0
  9 24  1  0  0  0  0
 10 24  1  0  0  0  0
 10 11  1  1  0  0  0
 11 12  1  0  0  0  0
 12 19  1  0  0  0  0
 17 25  1  0  0  0  0
 19 25  1  0  0  0  0
 20 26  1  0  0  0  0
 21 26  1  0  0  0  0
 22 25  2  0  0  0  0
 23 26  2  0  0  0  0
 25 20  1  1  0  0  0
 26 18  1  6  0  0  0
M  CHG  2  17  -1  21  -1
M  END
>  <CHROM.1>
-172.44766865,-168.24034682,73.29306116,-104.26486463,76.50312340,86.33108583
86.23519777,-44.44691862,-6.72870197,-14.91800220,22.09015361,2.89533944
0.78781868,0.92579673

>  <Name>
ligand

>  <RI>
0

>  <Rbt.Current_Directory>
/home/itssahil/PROJECTS/Mol_Feturizer/New_Systems/rnas/3D2X

>  <Rbt.Executable>
rbdock ($Id: //depot/dev/client3/rdock/2013.1/src/exe/rbdock.cxx#4 $)

>  <Rbt.Library>
libRbt.so (2013.1, Build901 2013/11/27)

>  <Rbt.Parameter_File>
/export/apps/rDock/src/rDock_2013.1_src/data/scripts/dock_solv.prm

>  <Rbt.Receptor>
prm/pocket_docking_2.prm

>  <SCORE>
-17.4186

>  <SCORE.INTER>
-17.2666

>  <SCORE.INTER.CONST>
1

>  <SCORE.INTER.POLAR>
0

>  <SCORE.INTER.ROT>
8

>  <SCORE.INTER.SOLV>
10.5712

>  <SCORE.INTER.VDW>
-23.9681

>  <SCORE.INTER.norm>
-0.664099

>  <SCORE.INTRA>
-0.420035

>  <SCORE.INTRA.DIHEDRAL>
1.17803

>  <SCORE.INTRA.DIHEDRAL.0>
7.88077

>  <SCORE.INTRA.POLAR>
0

>  <SCORE.INTRA.POLAR.0>
0

>  <SCORE.INTRA.REPUL>
0

>  <SCORE.INTRA.REPUL.0>
0

>  <SCORE.INTRA.SOLV>
-1.79157

>  <SCORE.INTRA.SOLV.lig_0>
-63.2542

>  <SCORE.INTRA.VDW>
-0.113264

>  <SCORE.INTRA.VDW.0>
-3.15072

>  <SCORE.INTRA.norm>
-0.0161552

>  <SCORE.RESTR>
0.267957

>  <SCORE.RESTR.CAVITY>
0.267957

>  <SCORE.RESTR.norm>
0.0103061

>  <SCORE.SYSTEM>
0

>  <SCORE.SYSTEM.CONST>
0

>  <SCORE.SYSTEM.DIHEDRAL>
0

>  <SCORE.SYSTEM.SOLV>
0

>  <SCORE.SYSTEM.norm>
0

>  <SCORE.heavy>
26

>  <SCORE.norm>
-0.669948

>  <RMSD>
2.161

$$$$
ligand
 OpenBabel11021811473D
libRbt.so/2013.1/901 2013/11/27
 26 27  0  0  0  0  0  0  0  0999 V2000
   -8.1051  -13.7027   23.9901 C   0  0  0  0  0  0  0  0  0  0  0  0
   -9.8701  -16.9067   26.6598 C   0  0  0  0  0  0  0  0  0  0  0  0
   -9.2223  -16.7404   25.4403 C   0  0  0  0  0  0  0  0  0  0  0  0
   -7.7597  -16.3063   25.3171 C   0  0  0  0  0  0  0  0  0  0  0  0
   -7.5362  -14.9378   23.2855 C   0  0  1  0  0  0  0  0  0  0  0  0
  -13.3023  -18.0706   25.4774 C   0  0  0  0  0  0  0  0  0  0  0  0
  -11.8519  -17.5854   25.4702 C   0  0  0  0  0  0  0  0  0  0  0  0
   -9.9403  -17.0060   24.2786 C   0  0  0  0  0  0  0  0  0  0  0  0
   -6.8556  -17.1087   23.2021 C   0  0  0  0  0  0  0  0  0  0  0  0
   -7.1301  -14.9084   21.9568 C   0  0  2  0  0  0  0  0  0  0  0  0
   -7.1242  -13.7689   20.9345 C   0  0  0  0  0  0  0  0  0  0  0  0
   -7.4937  -14.2322   19.5234 C   0  0  0  0  0  0  0  0  0  0  0  0
  -11.1993  -17.3341   26.6844 N   0  0  0  0  0  0  0  0  0  0  0  0
   -7.3831  -16.1089   23.9099 N   0  0  0  0  0  0  0  0  0  0  0  0
  -11.1965  -17.4101   24.3137 N   0  0  0  0  0  0  0  0  0  0  0  0
   -9.2771  -16.6828   27.7153 O   0  0  0  0  0  0  0  0  0  0  0  0
   -5.2149  -13.0599   17.9150 O   0  5  0  0  0  0  0  0  0  0  0  0
   -1.9017  -14.3940   19.4144 O   0  0  0  0  0  0  0  0  0  0  0  0
   -6.4699  -15.0502   18.9486 O   0  0  0  0  0  0  0  0  0  0  0  0
   -4.3529  -14.0898   20.0796 O   0  0  0  0  0  0  0  0  0  0  0  0
   -2.8759  -12.0096   19.6555 O   0  5  0  0  0  0  0  0  0  0  0  0
   -4.1565  -15.4180   17.8856 O   0  0  0  0  0  0  0  0  0  0  0  0
   -2.5011  -13.4733   21.7305 O   0  0  0  0  0  0  0  0  0  0  0  0
   -6.6062  -16.5255   21.5777 S   0  0  0  0  0  0  0  0  0  0  0  0
   -4.9958  -14.4718   18.6560 P   0  0  2  0  0  0  0  0  0  0  0  0
   -2.9070  -13.3945   20.1767 P   0  0  2  0  0  0  0  0  0  0  0  0
  2 16  2  0  0  0  0
  2  3  1  0  0  0  0
  2 13  1  0  0  0  0
  3  8  2  0  0  0  0
  3  4  1  0  0  0  0
  4 14  1  0  0  0  0
  5  1  1  1  0  0  0
  5 14  1  0  0  0  0
  5 10  1  0  0  0  0
  6  7  1  0  0  0  0
  7 13  1  0  0  0  0
  7 15  2  0  0  0  0
  8 15  1  0  0  0  0
  9 14  1  0  0  0  0
  9 24  1  0  0  0  0
 10 24  1  0  0  0  0
 10 11  1  6  0  0  0
 11 12  1  0  0  0  0
 12 19  1  0  0  0  0
 17 25  1  0  0  0  0
 19 25  1  0  0  0  0
 20 26  1  0  0  0  0
 21 26  1  0  0  0  0
 22 25  2  0  0  0  0
 23 26  2  0  0  0  0
 25 20  1  1  0  0  0
 26 18  1  6  0  0  0
M  CHG  2  17  -1  21  -1
M  END
>  <CHROM.1>
-175.34102992,-142.15007657,-69.54730334,88.82452951,-63.29061072,-64.24790836
-47.19729617,-56.69814827,-6.77444532,-15.26417865,22.05578003,-2.40722869
-0.40427661,-1.50745417

>  <Name>
ligand

>  <RI>
0

>  <Rbt.Current_Directory>
/home/itssahil/PROJECTS/Mol_Feturizer/New_Systems/rnas/3D2X

>  <Rbt.Executable>
rbdock ($Id: //depot/dev/client3/rdock/2013.1/src/exe/rbdock.cxx#4 $)

>  <Rbt.Library>
libRbt.so (2013.1, Build901 2013/11/27)

>  <Rbt.Parameter_File>
/export/apps/rDock/src/rDock_2013.1_src/data/scripts/dock_solv.prm

>  <Rbt.Receptor>
prm/pocket_docking_2.prm

>  <SCORE>
-21.3287

>  <SCORE.INTER>
-19.7616

>  <SCORE.INTER.CONST>
1

>  <SCORE.INTER.POLAR>
0

>  <SCORE.INTER.ROT>
8

>  <SCORE.INTER.SOLV>
8.62605

>  <SCORE.INTER.VDW>
-24.9831

>  <SCORE.INTER.norm>
-0.760063

>  <SCORE.INTRA>
-1.7268

>  <SCORE.INTRA.DIHEDRAL>
-2.17863

>  <SCORE.INTRA.DIHEDRAL.0>
7.88077

>  <SCORE.INTRA.POLAR>
0

>  <SCORE.INTRA.POLAR.0>
0

>  <SCORE.INTRA.REPUL>
0

>  <SCORE.INTRA.REPUL.0>
0

>  <SCORE.INTRA.SOLV>
-0.466458

>  <SCORE.INTRA.SOLV.lig_0>
-63.2542

>  <SCORE.INTRA.VDW>
-0.404256

>  <SCORE.INTRA.VDW.0>
-3.15072

>  <SCORE.INTRA.norm>
-0.0664153

>  <SCORE.RESTR>
0.159723

>  <SCORE.RESTR.CAVITY>
0.159723

>  <SCORE.RESTR.norm>
0.0061432

>  <SCORE.SYSTEM>
0

>  <SCORE.SYSTEM.CONST>
0

>  <SCORE.SYSTEM.DIHEDRAL>
0

>  <SCORE.SYSTEM.SOLV>
0

>  <SCORE.SYSTEM.norm>
0

>  <SCORE.heavy>
26

>  <SCORE.norm>
-0.820335

>  <RMSD>
2.162

$$$$
ligand
 OpenBabel11021811473D
libRbt.so/2013.1/901 2013/11/27
 26 27  0  0  0  0  0  0  0  0999 V2000
   -7.6443  -16.7839   21.7651 C   0  0  0  0  0  0  0  0  0  0  0  0
   -9.8764  -16.4777   26.2406 C   0  0  0  0  0  0  0  0  0  0  0  0
   -9.2980  -16.6826   24.9923 C   0  0  0  0  0  0  0  0  0  0  0  0
   -7.8579  -16.2867   24.6575 C   0  0  0  0  0  0  0  0  0  0  0  0
   -7.7224  -15.3811   22.3746 C   0  0  1  0  0  0  0  0  0  0  0  0
  -13.3273  -17.9942   25.6714 C   0  0  0  0  0  0  0  0  0  0  0  0
  -11.8950  -17.5144   25.4320 C   0  0  0  0  0  0  0  0  0  0  0  0
  -10.0665  -17.3000   24.0106 C   0  0  0  0  0  0  0  0  0  0  0  0
   -7.9091  -13.9144   24.1058 C   0  0  0  0  0  0  0  0  0  0  0  0
   -7.7075  -14.2335   21.5908 C   0  0  2  0  0  0  0  0  0  0  0  0
   -7.6278  -14.0567   20.0723 C   0  0  0  0  0  0  0  0  0  0  0  0
   -6.3110  -13.4255   19.6140 C   0  0  0  0  0  0  0  0  0  0  0  0
  -11.1886  -16.8955   26.4718 N   0  0  0  0  0  0  0  0  0  0  0  0
   -7.8247  -15.1793   23.6913 N   0  0  0  0  0  0  0  0  0  0  0  0
  -11.3061  -17.6914   24.2405 N   0  0  0  0  0  0  0  0  0  0  0  0
   -9.2369  -15.9342   27.1413 O   0  0  0  0  0  0  0  0  0  0  0  0
   -4.8839   -9.9091   20.5726 O   0  5  0  0  0  0  0  0  0  0  0  0
   -3.1700  -11.5349   16.9288 O   0  0  0  0  0  0  0  0  0  0  0  0
   -6.1555  -12.0962   20.1204 O   0  0  0  0  0  0  0  0  0  0  0  0
   -3.6815  -11.8348   19.4171 O   0  0  0  0  0  0  0  0  0  0  0  0
   -2.0059  -10.0132   18.6670 O   0  5  0  0  0  0  0  0  0  0  0  0
   -5.5255  -10.5609   18.1549 O   0  0  0  0  0  0  0  0  0  0  0  0
   -1.3895  -12.4993   18.5007 O   0  0  0  0  0  0  0  0  0  0  0  0
   -7.7670  -12.8923   22.7002 S   0  0  0  0  0  0  0  0  0  0  0  0
   -5.0945  -11.0695   19.4773 P   0  0  2  0  0  0  0  0  0  0  0  0
   -2.5299  -11.3706   18.3964 P   0  0  2  0  0  0  0  0  0  0  0  0
  2 16  2  0  0  0  0
  2  3  1  0  0  0  0
  2 13  1  0  0  0  0
  3  8  2  0  0  0  0
  3  4  1  0  0  0  0
  4 14  1  0  0  0  0
  5  1  1  6  0  0  0
  5 14  1  0  0  0  0
  5 10  1  0  0  0  0
  6  7  1  0  0  0  0
  7 13  1  0  0  0  0
  7 15  2  0  0  0  0
  8 15  1  0  0  0  0
  9 14  1  0  0  0  0
  9 24  1  0  0  0  0
 10 24  1  0  0  0  0
 10 11  1  1  0  0  0
 11 12  1  0  0  0  0
 12 19  1  0  0  0  0
 17 25  1  0  0  0  0
 19 25  1  0  0  0  0
 20 26  1  0  0  0  0
 21 26  1  0  0  0  0
 22 25  2  0  0  0  0
 23 26  2  0  0  0  0
 25 20  1  6  0  0  0
 26 18  1  6  0  0  0
M  CHG  2  17  -1  21  -1
M  END
>  <CHROM.1>
-111.87768784,-112.24520871,-63.44628323,-94.05883137,-162.60897115,-89.95475893
-162.39434580,-60.78188987,-6.85790642,-13.78130712,21.74302913,2.94674546
0.87625095,0.95821464

>  <Name>
ligand

>  <RI>
0

>  <Rbt.Current_Directory>
/home/itssahil/PROJECTS/Mol_Feturizer/New_Systems/rnas/3D2X

>  <Rbt.Executable>
rbdock ($Id: //depot/dev/client3/rdock/2013.1/src/exe/rbdock.cxx#4 $)

>  <Rbt.Library>
libRbt.so (2013.1, Build901 2013/11/27)

>  <Rbt.Parameter_File>
/export/apps/rDock/src/rDock_2013.1_src/data/scripts/dock_solv.prm

>  <Rbt.Receptor>
prm/pocket_docking_2.prm

>  <SCORE>
-18.6625

>  <SCORE.INTER>
-18.1149

>  <SCORE.INTER.CONST>
1

>  <SCORE.INTER.POLAR>
0

>  <SCORE.INTER.ROT>
8

>  <SCORE.INTER.SOLV>
8.51767

>  <SCORE.INTER.VDW>
-23.8492

>  <SCORE.INTER.norm>
-0.696727

>  <SCORE.INTRA>
-1.64805

>  <SCORE.INTRA.DIHEDRAL>
-0.0350289

>  <SCORE.INTRA.DIHEDRAL.0>
7.88077

>  <SCORE.INTRA.POLAR>
0

>  <SCORE.INTRA.POLAR.0>
0

>  <SCORE.INTRA.REPUL>
0

>  <SCORE.INTRA.REPUL.0>
0

>  <SCORE.INTRA.SOLV>
-1.7152

>  <SCORE.INTRA.SOLV.lig_0>
-63.2542

>  <SCORE.INTRA.VDW>
-0.772935

>  <SCORE.INTRA.VDW.0>
-3.15072

>  <SCORE.INTRA.norm>
-0.0633865

>  <SCORE.RESTR>
1.10043

>  <SCORE.RESTR.CAVITY>
1.10043

>  <SCORE.RESTR.norm>
0.0423244

>  <SCORE.SYSTEM>
0

>  <SCORE.SYSTEM.CONST>
0

>  <SCORE.SYSTEM.DIHEDRAL>
0

>  <SCORE.SYSTEM.SOLV>
0

>  <SCORE.SYSTEM.norm>
0

>  <SCORE.heavy>
26

>  <SCORE.norm>
-0.71779

>  <RMSD>
2.175

$$$$
ligand
 OpenBabel11021811473D
libRbt.so/2013.1/901 2013/11/27
 26 27  0  0  0  0  0  0  0  0999 V2000
   -6.5003  -17.4850   23.1570 C   0  0  0  0  0  0  0  0  0  0  0  0
  -10.4679  -16.6448   26.4698 C   0  0  0  0  0  0  0  0  0  0  0  0
   -9.8736  -16.6665   25.2124 C   0  0  0  0  0  0  0  0  0  0  0  0
   -8.4422  -16.1921   24.9504 C   0  0  0  0  0  0  0  0  0  0  0  0
   -7.3980  -16.3210   22.7271 C   0  0  1  0  0  0  0  0  0  0  0  0
  -13.8710  -18.1615   25.6628 C   0  0  0  0  0  0  0  0  0  0  0  0
  -12.4504  -17.6169   25.5065 C   0  0  0  0  0  0  0  0  0  0  0  0
  -10.6166  -17.1674   24.1482 C   0  0  0  0  0  0  0  0  0  0  0  0
   -9.0221  -14.7619   23.0654 C   0  0  0  0  0  0  0  0  0  0  0  0
   -7.3621  -15.7970   21.4404 C   0  0  2  0  0  0  0  0  0  0  0  0
   -6.5234  -16.1880   20.2209 C   0  0  0  0  0  0  0  0  0  0  0  0
   -5.6295  -15.0500   19.7226 C   0  0  0  0  0  0  0  0  0  0  0  0
  -11.7700  -17.1238   26.6278 N   0  0  0  0  0  0  0  0  0  0  0  0
   -8.2770  -15.7528   23.5573 N   0  0  0  0  0  0  0  0  0  0  0  0
  -11.8468  -17.6182   24.3092 N   0  0  0  0  0  0  0  0  0  0  0  0
   -9.8511  -16.2096   27.4424 O   0  0  0  0  0  0  0  0  0  0  0  0
   -5.1114  -13.4858   16.7594 O   0  5  0  0  0  0  0  0  0  0  0  0
   -2.6134  -11.0457   19.6791 O   0  0  0  0  0  0  0  0  0  0  0  0
   -4.9857  -15.3827   18.4887 O   0  0  0  0  0  0  0  0  0  0  0  0
   -3.5704  -13.2380   18.7727 O   0  0  0  0  0  0  0  0  0  0  0  0
   -2.0199  -11.8056   17.2786 O   0  5  0  0  0  0  0  0  0  0  0  0
   -2.9823  -14.9408   16.9367 O   0  0  0  0  0  0  0  0  0  0  0  0
   -4.3947  -11.0069   17.8361 O   0  0  0  0  0  0  0  0  0  0  0  0
   -8.5010  -14.4795   21.4255 S   0  0  0  0  0  0  0  0  0  0  0  0
   -4.0891  -14.3089   17.6911 P   0  0  2  0  0  0  0  0  0  0  0  0
   -3.0702  -11.7788   18.3210 P   0  0  2  0  0  0  0  0  0  0  0  0
  2 16  2  0  0  0  0
  2  3  1  0  0  0  0
  2 13  1  0  0  0  0
  3  8  2  0  0  0  0
  3  4  1  0  0  0  0
  4 14  1  0  0  0  0
  5  1  1  6  0  0  0
  5 14  1  0  0  0  0
  5 10  1  0  0  0  0
  6  7  1  0  0  0  0
  7 13  1  0  0  0  0
  7 15  2  0  0  0  0
  8 15  1  0  0  0  0
  9 14  1  0  0  0  0
  9 24  1  0  0  0  0
 10 24  1  0  0  0  0
 10 11  1  1  0  0  0
 11 12  1  0  0  0  0
 12 19  1  0  0  0  0
 17 25  1  0  0  0  0
 19 25  1  0  0  0  0
 20 26  1  0  0  0  0
 21 26  1  0  0  0  0
 22 25  2  0  0  0  0
 23 26  2  0  0  0  0
 25 20  1  1  0  0  0
 26 18  1  1  0  0  0
M  CHG  2  17  -1  21  -1
M  END
>  <CHROM.1>
-154.27778918,-119.41573441,-172.66144338,-120.26463771,174.78607619,-47.47296445
-86.58410503,-178.77974136,-6.92834743,-14.93274064,21.33418642,2.79139384
0.79545294,0.97883867

>  <Name>
ligand

>  <RI>
0

>  <Rbt.Current_Directory>
/home/itssahil/PROJECTS/Mol_Feturizer/New_Systems/rnas/3D2X

>  <Rbt.Executable>
rbdock ($Id: //depot/dev/client3/rdock/2013.1/src/exe/rbdock.cxx#4 $)

>  <Rbt.Library>
libRbt.so (2013.1, Build901 2013/11/27)

>  <Rbt.Parameter_File>
/export/apps/rDock/src/rDock_2013.1_src/data/scripts/dock_solv.prm

>  <Rbt.Receptor>
prm/pocket_docking_3.prm

>  <SCORE>
-19.7792

>  <SCORE.INTER>
-19.9229

>  <SCORE.INTER.CONST>
1

>  <SCORE.INTER.POLAR>
0

>  <SCORE.INTER.ROT>
8

>  <SCORE.INTER.SOLV>
9.89049

>  <SCORE.INTER.VDW>
-25.5121

>  <SCORE.INTER.norm>
-0.766266

>  <SCORE.INTRA>
0.143757

>  <SCORE.INTRA.DIHEDRAL>
-0.669474

>  <SCORE.INTRA.DIHEDRAL.0>
7.88077

>  <SCORE.INTRA.POLAR>
0

>  <SCORE.INTRA.POLAR.0>
0

>  <SCORE.INTRA.REPUL>
0

>  <SCORE.INTRA.REPUL.0>
0

>  <SCORE.INTRA.SOLV>
0.417815

>  <SCORE.INTRA.SOLV.lig_0>
-63.2542

>  <SCORE.INTRA.VDW>
0.269587

>  <SCORE.INTRA.VDW.0>
-3.15072

>  <SCORE.INTRA.norm>
0.00552912

>  <SCORE.RESTR>
0

>  <SCORE.RESTR.CAVITY>
0

>  <SCORE.RESTR.norm>
0

>  <SCORE.SYSTEM>
0

>  <SCORE.SYSTEM.CONST>
0

>  <SCORE.SYSTEM.DIHEDRAL>
0

>  <SCORE.SYSTEM.SOLV>
0

>  <SCORE.SYSTEM.norm>
0

>  <SCORE.heavy>
26

>  <SCORE.norm>
-0.760737

>  <RMSD>
2.190

$$$$
ligand
 OpenBabel11021811473D
libRbt.so/2013.1/901 2013/11/27
 26 27  0  0  0  0  0  0  0  0999 V2000
   -7.8119  -16.8961   21.9048 C   0  0  0  0  0  0  0  0  0  0  0  0
  -10.0725  -17.0136   26.3496 C   0  0  0  0  0  0  0  0  0  0  0  0
   -9.5448  -16.8658   25.0712 C   0  0  0  0  0  0  0  0  0  0  0  0
   -8.0925  -16.4643   24.8021 C   0  0  0  0  0  0  0  0  0  0  0  0
   -7.8879  -15.5070   22.5455 C   0  0  1  0  0  0  0  0  0  0  0  0
  -13.6288  -18.1062   25.5177 C   0  0  0  0  0  0  0  0  0  0  0  0
  -12.1761  -17.6530   25.3649 C   0  0  0  0  0  0  0  0  0  0  0  0
  -10.3794  -17.1197   23.9875 C   0  0  0  0  0  0  0  0  0  0  0  0
   -8.1001  -14.0792   24.3060 C   0  0  0  0  0  0  0  0  0  0  0  0
   -7.8388  -14.3416   21.7900 C   0  0  2  0  0  0  0  0  0  0  0  0
   -7.7184  -14.1302   20.2786 C   0  0  0  0  0  0  0  0  0  0  0  0
   -6.2701  -13.9611   19.8139 C   0  0  0  0  0  0  0  0  0  0  0  0
  -11.4016  -17.4117   26.5074 N   0  0  0  0  0  0  0  0  0  0  0  0
   -8.0210  -15.3350   23.8637 N   0  0  0  0  0  0  0  0  0  0  0  0
  -11.6344  -17.4961   24.1484 N   0  0  0  0  0  0  0  0  0  0  0  0
   -9.3736  -16.7990   27.3402 O   0  0  0  0  0  0  0  0  0  0  0  0
   -4.1850  -14.7102   17.3542 O   0  5  0  0  0  0  0  0  0  0  0  0
   -4.2215  -10.1801   16.2690 O   0  0  0  0  0  0  0  0  0  0  0  0
   -6.1969  -13.5430   18.4473 O   0  0  0  0  0  0  0  0  0  0  0  0
   -5.1094  -12.5787   16.3093 O   0  0  0  0  0  0  0  0  0  0  0  0
   -2.6508  -12.1369   15.6395 O   0  5  0  0  0  0  0  0  0  0  0  0
   -3.8731  -12.4457   18.5610 O   0  0  0  0  0  0  0  0  0  0  0  0
   -4.5699  -11.4596   14.0752 O   0  0  0  0  0  0  0  0  0  0  0  0
   -7.9096  -13.0262   22.9292 S   0  0  0  0  0  0  0  0  0  0  0  0
   -4.7838  -13.2635   17.7273 P   0  0  2  0  0  0  0  0  0  0  0  0
   -4.0384  -11.6250   15.5836 P   0  0  2  0  0  0  0  0  0  0  0  0
  2 16  2  0  0  0  0
  2  3  1  0  0  0  0
  2 13  1  0  0  0  0
  3  8  2  0  0  0  0
  3  4  1  0  0  0  0
  4 14  1  0  0  0  0
  5  1  1  6  0  0  0
  5 14  1  0  0  0  0
  5 10  1  0  0  0  0
  6  7  1  0  0  0  0
  7 13  1  0  0  0  0
  7 15  2  0  0  0  0
  8 15  1  0  0  0  0
  9 14  1  0  0  0  0
  9 24  1  0  0  0  0
 10 24  1  0  0  0  0
 10 11  1  1  0  0  0
 11 12  1  0  0  0  0
 12 19  1  0  0  0  0
 17 25  1  0  0  0  0
 19 25  1  0  0  0  0
 20 26  1  0  0  0  0
 21 26  1  0  0  0  0
 22 25  2  0  0  0  0
 23 26  2  0  0  0  0
 25 20  1  6  0  0  0
 26 18  1  1  0  0  0
M  CHG  2  17  -1  21  -1
M  END
>  <CHROM.1>
-128.85320146,-92.95500000,-170.17162353,-93.01225258,178.67118506,-93.45462653
78.36385352,-82.58066424,-7.20880743,-14.41345914,20.87465897,2.34583182
0.72610776,1.47710003

>  <Name>
ligand

>  <RI>
0

>  <Rbt.Current_Directory>
/home/itssahil/PROJECTS/Mol_Feturizer/New_Systems/rnas/3D2X

>  <Rbt.Executable>
rbdock ($Id: //depot/dev/client3/rdock/2013.1/src/exe/rbdock.cxx#4 $)

>  <Rbt.Library>
libRbt.so (2013.1, Build901 2013/11/27)

>  <Rbt.Parameter_File>
/export/apps/rDock/src/rDock_2013.1_src/data/scripts/dock_solv.prm

>  <Rbt.Receptor>
prm/pocket_docking_4.prm

>  <SCORE>
-21.7993

>  <SCORE.INTER>
-20.616

>  <SCORE.INTER.CONST>
1

>  <SCORE.INTER.POLAR>
0

>  <SCORE.INTER.ROT>
8

>  <SCORE.INTER.SOLV>
17.147

>  <SCORE.INTER.VDW>
-28.393

>  <SCORE.INTER.norm>
-0.792921

>  <SCORE.INTRA>
-1.18333

>  <SCORE.INTRA.DIHEDRAL>
-0.707034

>  <SCORE.INTRA.DIHEDRAL.0>
7.88077

>  <SCORE.INTRA.POLAR>
0

>  <SCORE.INTRA.POLAR.0>
0

>  <SCORE.INTRA.REPUL>
0

>  <SCORE.INTRA.REPUL.0>
0

>  <SCORE.INTRA.SOLV>
-1.15711

>  <SCORE.INTRA.SOLV.lig_0>
-63.2542

>  <SCORE.INTRA.VDW>
-0.251255

>  <SCORE.INTRA.VDW.0>
-3.15072

>  <SCORE.INTRA.norm>
-0.0455126

>  <SCORE.RESTR>
0

>  <SCORE.RESTR.CAVITY>
0

>  <SCORE.RESTR.norm>
0

>  <SCORE.SYSTEM>
0

>  <SCORE.SYSTEM.CONST>
0

>  <SCORE.SYSTEM.DIHEDRAL>
0

>  <SCORE.SYSTEM.SOLV>
0

>  <SCORE.SYSTEM.norm>
0

>  <SCORE.heavy>
26

>  <SCORE.norm>
-0.838434

>  <RMSD>
2.192

$$$$
ligand
 OpenBabel11021811473D
libRbt.so/2013.1/901 2013/11/27
 26 27  0  0  0  0  0  0  0  0999 V2000
   -6.4830  -14.2331   22.5083 C   0  0  0  0  0  0  0  0  0  0  0  0
   -9.9276  -16.9544   25.7798 C   0  0  0  0  0  0  0  0  0  0  0  0
   -9.6412  -16.5274   24.4874 C   0  0  0  0  0  0  0  0  0  0  0  0
   -8.2824  -15.9589   24.0712 C   0  0  0  0  0  0  0  0  0  0  0  0
   -7.2020  -15.4511   21.9206 C   0  0  1  0  0  0  0  0  0  0  0  0
  -13.5108  -18.1776   25.3360 C   0  0  0  0  0  0  0  0  0  0  0  0
  -12.1339  -17.5799   25.0423 C   0  0  0  0  0  0  0  0  0  0  0  0
  -10.6383  -16.6475   23.5247 C   0  0  0  0  0  0  0  0  0  0  0  0
   -8.5639  -17.2716   22.0383 C   0  0  0  0  0  0  0  0  0  0  0  0
   -7.0425  -15.8338   20.5941 C   0  0  2  0  0  0  0  0  0  0  0  0
   -6.1970  -15.2292   19.4703 C   0  0  0  0  0  0  0  0  0  0  0  0
   -6.6621  -13.8297   19.0612 C   0  0  0  0  0  0  0  0  0  0  0  0
  -11.1850  -17.4883   26.0692 N   0  0  0  0  0  0  0  0  0  0  0  0
   -8.0105  -16.2241   22.6510 N   0  0  0  0  0  0  0  0  0  0  0  0
  -11.8235  -17.1543   23.8094 N   0  0  0  0  0  0  0  0  0  0  0  0
   -9.0781  -16.8674   26.6667 O   0  0  0  0  0  0  0  0  0  0  0  0
   -7.0769  -11.0354   18.4698 O   0  5  0  0  0  0  0  0  0  0  0  0
   -4.7689  -10.5668   20.0463 O   0  0  0  0  0  0  0  0  0  0  0  0
   -5.7463  -13.2110   18.1523 O   0  0  0  0  0  0  0  0  0  0  0  0
   -4.7180  -10.9265   17.5142 O   0  0  0  0  0  0  0  0  0  0  0  0
   -3.0239  -12.1754   19.0171 O   0  5  0  0  0  0  0  0  0  0  0  0
   -6.6093  -11.9351   16.0921 O   0  0  0  0  0  0  0  0  0  0  0  0
   -2.8248   -9.6422   18.6547 O   0  0  0  0  0  0  0  0  0  0  0  0
   -8.0714  -17.2204   20.3663 S   0  0  0  0  0  0  0  0  0  0  0  0
   -6.0726  -11.7917   17.4649 P   0  0  2  0  0  0  0  0  0  0  0  0
   -3.7848  -10.9209   18.8229 P   0  0  2  0  0  0  0  0  0  0  0  0
  2 16  2  0  0  0  0
  2  3  1  0  0  0  0
  2 13  1  0  0  0  0
  3  8  2  0  0  0  0
  3  4  1  0  0  0  0
  4 14  1  0  0  0  0
  5  1  1  1  0  0  0
  5 14  1  0  0  0  0
  5 10  1  0  0  0  0
  6  7  1  0  0  0  0
  7 13  1  0  0  0  0
  7 15  2  0  0  0  0
  8 15  1  0  0  0  0
  9 14  1  0  0  0  0
  9 24  1  0  0  0  0
 10 24  1  0  0  0  0
 10 11  1  6  0  0  0
 11 12  1  0  0  0  0
 12 19  1  0  0  0  0
 17 25  1  0  0  0  0
 19 25  1  0  0  0  0
 20 26  1  0  0  0  0
 21 26  1  0  0  0  0
 22 25  2  0  0  0  0
 23 26  2  0  0  0  0
 25 20  1  6  0  0  0
 26 18  1  1  0  0  0
M  CHG  2  17  -1  21  -1
M  END
>  <CHROM.1>
151.11956570,-65.64669370,171.57221296,153.99875574,174.25257286,70.36389878
26.16290697,-51.89199182,-7.32832660,-14.33660341,21.00278543,-2.41891038
-0.73793902,-1.48110318

>  <Name>
ligand

>  <RI>
0

>  <Rbt.Current_Directory>
/home/itssahil/PROJECTS/Mol_Feturizer/New_Systems/rnas/3D2X

>  <Rbt.Executable>
rbdock ($Id: //depot/dev/client3/rdock/2013.1/src/exe/rbdock.cxx#4 $)

>  <Rbt.Library>
libRbt.so (2013.1, Build901 2013/11/27)

>  <Rbt.Parameter_File>
/export/apps/rDock/src/rDock_2013.1_src/data/scripts/dock_solv.prm

>  <Rbt.Receptor>
prm/pocket_docking_4.prm

>  <SCORE>
-17.9144

>  <SCORE.INTER>
-18.4761

>  <SCORE.INTER.CONST>
1

>  <SCORE.INTER.POLAR>
0

>  <SCORE.INTER.ROT>
8

>  <SCORE.INTER.SOLV>
11.2263

>  <SCORE.INTER.VDW>
-24.9928

>  <SCORE.INTER.norm>
-0.710618

>  <SCORE.INTRA>
0.55237

>  <SCORE.INTRA.DIHEDRAL>
-0.573039

>  <SCORE.INTRA.DIHEDRAL.0>
7.88077

>  <SCORE.INTRA.POLAR>
0

>  <SCORE.INTRA.POLAR.0>
0

>  <SCORE.INTRA.REPUL>
0

>  <SCORE.INTRA.REPUL.0>
0

>  <SCORE.INTRA.SOLV>
-1.89543

>  <SCORE.INTRA.SOLV.lig_0>
-63.2542

>  <SCORE.INTRA.VDW>
1.78661

>  <SCORE.INTRA.VDW.0>
-3.15072

>  <SCORE.INTRA.norm>
0.021245

>  <SCORE.RESTR>
0.00927052

>  <SCORE.RESTR.CAVITY>
0.00927052

>  <SCORE.RESTR.norm>
0.000356558

>  <SCORE.SYSTEM>
0

>  <SCORE.SYSTEM.CONST>
0

>  <SCORE.SYSTEM.DIHEDRAL>
0

>  <SCORE.SYSTEM.SOLV>
0

>  <SCORE.SYSTEM.norm>
0

>  <SCORE.heavy>
26

>  <SCORE.norm>
-0.689016

>  <RMSD>
2.203

$$$$
ligand
 OpenBabel11021811473D
libRbt.so/2013.1/901 2013/11/27
 26 27  0  0  0  0  0  0  0  0999 V2000
   -7.4378  -17.1888   22.4013 C   0  0  0  0  0  0  0  0  0  0  0  0
   -9.9863  -16.9007   26.5770 C   0  0  0  0  0  0  0  0  0  0  0  0
   -9.4458  -16.6543   25.3193 C   0  0  0  0  0  0  0  0  0  0  0  0
   -8.0110  -16.1681   25.1010 C   0  0  0  0  0  0  0  0  0  0  0  0
   -7.6638  -15.7058   22.7102 C   0  0  1  0  0  0  0  0  0  0  0  0
  -13.4701  -18.1147   25.6169 C   0  0  0  0  0  0  0  0  0  0  0  0
  -12.0393  -17.5835   25.5178 C   0  0  0  0  0  0  0  0  0  0  0  0
  -10.2491  -16.8856   24.2072 C   0  0  0  0  0  0  0  0  0  0  0  0
   -8.1305  -13.9553   24.0889 C   0  0  0  0  0  0  0  0  0  0  0  0
   -7.6228  -14.7308   21.7207 C   0  0  2  0  0  0  0  0  0  0  0  0
   -7.3784  -14.8407   20.2135 C   0  0  0  0  0  0  0  0  0  0  0  0
   -7.2076  -13.4788   19.5365 C   0  0  0  0  0  0  0  0  0  0  0  0
  -11.2964  -17.3711   26.6867 N   0  0  0  0  0  0  0  0  0  0  0  0
   -7.9284  -15.2656   23.9435 N   0  0  0  0  0  0  0  0  0  0  0  0
  -11.4864  -17.3309   24.3227 N   0  0  0  0  0  0  0  0  0  0  0  0
   -9.3150  -16.7099   27.5913 O   0  0  0  0  0  0  0  0  0  0  0  0
   -4.4056  -10.8425   20.3648 O   0  5  0  0  0  0  0  0  0  0  0  0
   -5.2707   -8.9381   17.4440 O   0  0  0  0  0  0  0  0  0  0  0  0
   -6.1167  -12.7411   20.0965 O   0  0  0  0  0  0  0  0  0  0  0  0
   -5.2671  -11.4258   18.0395 O   0  0  0  0  0  0  0  0  0  0  0  0
   -3.0237  -10.1523   17.8549 O   0  5  0  0  0  0  0  0  0  0  0  0
   -6.8519  -10.3039   19.7266 O   0  0  0  0  0  0  0  0  0  0  0  0
   -4.4089  -10.6635   15.7554 O   0  0  0  0  0  0  0  0  0  0  0  0
   -7.8846  -13.2116   22.5310 S   0  0  0  0  0  0  0  0  0  0  0  0
   -5.7384  -11.2675   19.5687 P   0  0  2  0  0  0  0  0  0  0  0  0
   -4.3965  -10.2836   17.3177 P   0  0  2  0  0  0  0  0  0  0  0  0
  2 16  2  0  0  0  0
  2  3  1  0  0  0  0
  2 13  1  0  0  0  0
  3  8  2  0  0  0  0
  3  4  1  0  0  0  0
  4 14  1  0  0  0  0
  5  1  1  6  0  0  0
  5 14  1  0  0  0  0
  5 10  1  0  0  0  0
  6  7  1  0  0  0  0
  7 13  1  0  0  0  0
  7 15  2  0  0  0  0
  8 15  1  0  0  0  0
  9 14  1  0  0  0  0
  9 24  1  0  0  0  0
 10 24  1  0  0  0  0
 10 11  1  1  0  0  0
 11 12  1  0  0  0  0
 12 19  1  0  0  0  0
 17 25  1  0  0  0  0
 19 25  1  0  0  0  0
 20 26  1  0  0  0  0
 21 26  1  0  0  0  0
 22 25  2  0  0  0  0
 23 26  2  0  0  0  0
 25 20  1  6  0  0  0
 26 18  1  1  0  0  0
M  CHG  2  17  -1  21  -1
M  END
>  <CHROM.1>
-145.81102546,-171.10464753,58.65479947,-91.43869832,-179.29776509,-48.88400339
-175.72865241,-56.78074595,-7.43618038,-13.71651816,21.65313236,2.30217331
0.73560297,1.73915374

>  <Name>
ligand

>  <RI>
0

>  <Rbt.Current_Directory>
/home/itssahil/PROJECTS/Mol_Feturizer/New_Systems/rnas/3D2X

>  <Rbt.Executable>
rbdock ($Id: //depot/dev/client3/rdock/2013.1/src/exe/rbdock.cxx#4 $)

>  <Rbt.Library>
libRbt.so (2013.1, Build901 2013/11/27)

>  <Rbt.Parameter_File>
/export/apps/rDock/src/rDock_2013.1_src/data/scripts/dock_solv.prm

>  <Rbt.Receptor>
prm/pocket_docking_3.prm

>  <SCORE>
-24.1449

>  <SCORE.INTER>
-21.8421

>  <SCORE.INTER.CONST>
1

>  <SCORE.INTER.POLAR>
0

>  <SCORE.INTER.ROT>
8

>  <SCORE.INTER.SOLV>
14.9848

>  <SCORE.INTER.VDW>
-28.4897

>  <SCORE.INTER.norm>
-0.84008

>  <SCORE.INTRA>
-2.30283

>  <SCORE.INTRA.DIHEDRAL>
-2.81921

>  <SCORE.INTRA.DIHEDRAL.0>
7.88077

>  <SCORE.INTRA.POLAR>
0

>  <SCORE.INTRA.POLAR.0>
0

>  <SCORE.INTRA.REPUL>
0

>  <SCORE.INTRA.REPUL.0>
0

>  <SCORE.INTRA.SOLV>
-1.7677

>  <SCORE.INTRA.SOLV.lig_0>
-63.2542

>  <SCORE.INTRA.VDW>
-0.00937232

>  <SCORE.INTRA.VDW.0>
-3.15072

>  <SCORE.INTRA.norm>
-0.0885702

>  <SCORE.RESTR>
0

>  <SCORE.RESTR.CAVITY>
0

>  <SCORE.RESTR.norm>
0

>  <SCORE.SYSTEM>
0

>  <SCORE.SYSTEM.CONST>
0

>  <SCORE.SYSTEM.DIHEDRAL>
0

>  <SCORE.SYSTEM.SOLV>
0

>  <SCORE.SYSTEM.norm>
0

>  <SCORE.heavy>
26

>  <SCORE.norm>
-0.92865

>  <RMSD>
2.217

$$$$
ligand
 OpenBabel11021811473D
libRbt.so/2013.1/901 2013/11/27
 26 27  0  0  0  0  0  0  0  0999 V2000
   -6.8090  -17.1700   22.5733 C   0  0  0  0  0  0  0  0  0  0  0  0
  -10.3171  -17.0333   24.0663 C   0  0  0  0  0  0  0  0  0  0  0  0
   -9.5225  -16.7773   25.1788 C   0  0  0  0  0  0  0  0  0  0  0  0
   -8.0720  -16.2981   25.0840 C   0  0  0  0  0  0  0  0  0  0  0  0
   -7.3175  -15.7447   22.8092 C   0  0  1  0  0  0  0  0  0  0  0  0
  -13.5927  -18.0100   25.7544 C   0  0  0  0  0  0  0  0  0  0  0  0
  -12.1397  -17.5819   25.5430 C   0  0  0  0  0  0  0  0  0  0  0  0
  -10.0894  -16.9458   26.4381 C   0  0  0  0  0  0  0  0  0  0  0  0
   -8.3187  -14.1113   24.0391 C   0  0  0  0  0  0  0  0  0  0  0  0
   -7.2243  -14.7569   21.8361 C   0  0  2  0  0  0  0  0  0  0  0  0
   -6.6627  -14.8007   20.4127 C   0  0  0  0  0  0  0  0  0  0  0  0
   -5.3593  -14.0128   20.2617 C   0  0  0  0  0  0  0  0  0  0  0  0
  -11.6415  -17.4400   24.2410 N   0  0  0  0  0  0  0  0  0  0  0  0
   -7.8931  -15.3726   23.9559 N   0  0  0  0  0  0  0  0  0  0  0  0
  -11.3429  -17.3303   26.5916 N   0  0  0  0  0  0  0  0  0  0  0  0
   -9.8602  -16.8997   22.9309 O   0  0  0  0  0  0  0  0  0  0  0  0
   -4.0164  -12.4936   16.9177 O   0  5  0  0  0  0  0  0  0  0  0  0
   -1.9180  -10.6377   17.8993 O   0  0  0  0  0  0  0  0  0  0  0  0
   -5.0225  -13.8031   18.8868 O   0  0  0  0  0  0  0  0  0  0  0  0
   -3.9019  -11.5038   19.2621 O   0  0  0  0  0  0  0  0  0  0  0  0
   -4.1376   -9.3091   17.9143 O   0  5  0  0  0  0  0  0  0  0  0  0
   -2.4689  -13.5622   18.6910 O   0  0  0  0  0  0  0  0  0  0  0  0
   -2.6647   -9.3972   20.0145 O   0  0  0  0  0  0  0  0  0  0  0  0
   -7.8756  -13.3104   22.5548 S   0  0  0  0  0  0  0  0  0  0  0  0
   -3.7676  -12.8897   18.4577 P   0  0  2  0  0  0  0  0  0  0  0  0
   -3.2217  -10.1558   18.7109 P   0  0  2  0  0  0  0  0  0  0  0  0
  2 16  2  0  0  0  0
  2  3  1  0  0  0  0
  2 13  1  0  0  0  0
  3  8  2  0  0  0  0
  3  4  1  0  0  0  0
  4 14  1  0  0  0  0
  5  1  1  6  0  0  0
  5 14  1  0  0  0  0
  5 10  1  0  0  0  0
  6  7  1  0  0  0  0
  7 13  1  0  0  0  0
  7 15  2  0  0  0  0
  8 15  1  0  0  0  0
  9 14  1  0  0  0  0
  9 24  1  0  0  0  0
 10 24  1  0  0  0  0
 10 11  1  1  0  0  0
 11 12  1  0  0  0  0
 12 19  1  0  0  0  0
 17 25  1  0  0  0  0
 19 25  1  0  0  0  0
 20 26  1  0  0  0  0
 21 26  1  0  0  0  0
 22 25  2  0  0  0  0
 23 26  2  0  0  0  0
 25 20  1  1  0  0  0
 26 18  1  6  0  0  0
M  CHG  2  17  -1  21  -1
M  END
>  <CHROM.1>
36.55512862,-109.90430164,-166.32005954,-103.31847921,174.50498583,-43.61500918
-161.10966141,-30.13668412,-6.69539475,-14.09365934,21.53918037,-2.87733956
0.83945510,0.37401793

>  <Name>
ligand

>  <RI>
0

>  <Rbt.Current_Directory>
/home/itssahil/PROJECTS/Mol_Feturizer/New_Systems/rnas/3D2X

>  <Rbt.Executable>
rbdock ($Id: //depot/dev/client3/rdock/2013.1/src/exe/rbdock.cxx#4 $)

>  <Rbt.Library>
libRbt.so (2013.1, Build901 2013/11/27)

>  <Rbt.Parameter_File>
/export/apps/rDock/src/rDock_2013.1_src/data/scripts/dock_solv.prm

>  <Rbt.Receptor>
prm/pocket_docking_2.prm

>  <SCORE>
-17.948

>  <SCORE.INTER>
-17.3326

>  <SCORE.INTER.CONST>
1

>  <SCORE.INTER.POLAR>
0

>  <SCORE.INTER.ROT>
8

>  <SCORE.INTER.SOLV>
9.10438

>  <SCORE.INTER.VDW>
-23.5232

>  <SCORE.INTER.norm>
-0.66664

>  <SCORE.INTRA>
-0.63171

>  <SCORE.INTRA.DIHEDRAL>
0.505947

>  <SCORE.INTRA.DIHEDRAL.0>
7.88077

>  <SCORE.INTRA.POLAR>
0

>  <SCORE.INTRA.POLAR.0>
0

>  <SCORE.INTRA.REPUL>
0

>  <SCORE.INTRA.REPUL.0>
0

>  <SCORE.INTRA.SOLV>
-1.38886

>  <SCORE.INTRA.SOLV.lig_0>
-63.2542

>  <SCORE.INTRA.VDW>
-0.190254

>  <SCORE.INTRA.VDW.0>
-3.15072

>  <SCORE.INTRA.norm>
-0.0242965

>  <SCORE.RESTR>
0.0163707

>  <SCORE.RESTR.CAVITY>
0.0163707

>  <SCORE.RESTR.norm>
0.000629641

>  <SCORE.SYSTEM>
0

>  <SCORE.SYSTEM.CONST>
0

>  <SCORE.SYSTEM.DIHEDRAL>
0

>  <SCORE.SYSTEM.SOLV>
0

>  <SCORE.SYSTEM.norm>
0

>  <SCORE.heavy>
26

>  <SCORE.norm>
-0.690307

>  <RMSD>
2.242

$$$$
ligand
 OpenBabel11021811473D
libRbt.so/2013.1/901 2013/11/27
 26 27  0  0  0  0  0  0  0  0999 V2000
   -6.6190  -17.3884   22.9213 C   0  0  0  0  0  0  0  0  0  0  0  0
  -10.2316  -17.2897   24.1550 C   0  0  0  0  0  0  0  0  0  0  0  0
   -9.5520  -16.7706   25.2520 C   0  0  0  0  0  0  0  0  0  0  0  0
   -8.1174  -16.2421   25.1796 C   0  0  0  0  0  0  0  0  0  0  0  0
   -7.2144  -15.9774   22.9070 C   0  0  1  0  0  0  0  0  0  0  0  0
  -13.6099  -18.0816   25.7338 C   0  0  0  0  0  0  0  0  0  0  0  0
  -12.1603  -17.6266   25.5585 C   0  0  0  0  0  0  0  0  0  0  0  0
  -10.2252  -16.7113   26.4681 C   0  0  0  0  0  0  0  0  0  0  0  0
   -8.3889  -14.2475   23.8076 C   0  0  0  0  0  0  0  0  0  0  0  0
   -7.0938  -15.1362   21.8074 C   0  0  2  0  0  0  0  0  0  0  0  0
   -6.4203  -15.3503   20.4495 C   0  0  0  0  0  0  0  0  0  0  0  0
   -5.0983  -14.5913   20.3134 C   0  0  0  0  0  0  0  0  0  0  0  0
  -11.5506  -17.7243   24.3007 N   0  0  0  0  0  0  0  0  0  0  0  0
   -7.8962  -15.4796   23.9424 N   0  0  0  0  0  0  0  0  0  0  0  0
  -11.4725  -17.1246   26.5943 N   0  0  0  0  0  0  0  0  0  0  0  0
   -9.6778  -17.3641   23.0579 O   0  0  0  0  0  0  0  0  0  0  0  0
   -2.8718  -12.5600   20.9769 O   0  5  0  0  0  0  0  0  0  0  0  0
   -2.7837  -10.2216   17.7068 O   0  0  0  0  0  0  0  0  0  0  0  0
   -5.2920  -13.1745   20.3690 O   0  0  0  0  0  0  0  0  0  0  0  0
   -3.5982  -12.5003   18.5360 O   0  0  0  0  0  0  0  0  0  0  0  0
   -1.0832  -11.9139   18.6745 O   0  5  0  0  0  0  0  0  0  0  0  0
   -4.5101  -10.7322   20.1666 O   0  0  0  0  0  0  0  0  0  0  0  0
   -2.1969  -12.3495   16.4034 O   0  0  0  0  0  0  0  0  0  0  0  0
   -7.8705  -13.6433   22.2562 S   0  0  0  0  0  0  0  0  0  0  0  0
   -4.1005  -12.1481   20.0224 P   0  0  2  0  0  0  0  0  0  0  0  0
   -2.3288  -11.7545   17.8912 P   0  0  2  0  0  0  0  0  0  0  0  0
  2 16  2  0  0  0  0
  2  3  1  0  0  0  0
  2 13  1  0  0  0  0
  3  8  2  0  0  0  0
  3  4  1  0  0  0  0
  4 14  1  0  0  0  0
  5  1  1  6  0  0  0
  5 14  1  0  0  0  0
  5 10  1  0  0  0  0
  6  7  1  0  0  0  0
  7 13  1  0  0  0  0
  7 15  2  0  0  0  0
  8 15  1  0  0  0  0
  9 14  1  0  0  0  0
  9 24  1  0  0  0  0
 10 24  1  0  0  0  0
 10 11  1  1  0  0  0
 11 12  1  0  0  0  0
 12 19  1  0  0  0  0
 17 25  1  0  0  0  0
 19 25  1  0  0  0  0
 20 26  1  0  0  0  0
 21 26  1  0  0  0  0
 22 25  2  0  0  0  0
 23 26  2  0  0  0  0
 25 20  1  6  0  0  0
 26 18  1  6  0  0  0
M  CHG  2  17  -1  21  -1
M  END
>  <CHROM.1>
40.30533609,-105.87148024,-63.85816807,-104.22168108,-170.34046315,-62.92379333
-54.44034123,-66.64696919,-6.55660130,-14.37988446,21.72056040,-2.91204454
0.79122960,0.36482214

>  <Name>
ligand

>  <RI>
0

>  <Rbt.Current_Directory>
/home/itssahil/PROJECTS/Mol_Feturizer/New_Systems/rnas/3D2X

>  <Rbt.Executable>
rbdock ($Id: //depot/dev/client3/rdock/2013.1/src/exe/rbdock.cxx#4 $)

>  <Rbt.Library>
libRbt.so (2013.1, Build901 2013/11/27)

>  <Rbt.Parameter_File>
/export/apps/rDock/src/rDock_2013.1_src/data/scripts/dock_solv.prm

>  <Rbt.Receptor>
prm/pocket_docking_3.prm

>  <SCORE>
-20.4312

>  <SCORE.INTER>
-17.9799

>  <SCORE.INTER.CONST>
1

>  <SCORE.INTER.POLAR>
0

>  <SCORE.INTER.ROT>
8

>  <SCORE.INTER.SOLV>
9.78272

>  <SCORE.INTER.VDW>
-24.1809

>  <SCORE.INTER.norm>
-0.691536

>  <SCORE.INTRA>
-2.45123

>  <SCORE.INTRA.DIHEDRAL>
-2.23434

>  <SCORE.INTRA.DIHEDRAL.0>
7.88077

>  <SCORE.INTRA.POLAR>
0

>  <SCORE.INTRA.POLAR.0>
0

>  <SCORE.INTRA.REPUL>
0

>  <SCORE.INTRA.REPUL.0>
0

>  <SCORE.INTRA.SOLV>
-0.887688

>  <SCORE.INTRA.SOLV.lig_0>
-63.2542

>  <SCORE.INTRA.VDW>
-0.890212

>  <SCORE.INTRA.VDW.0>
-3.15072

>  <SCORE.INTRA.norm>
-0.0942779

>  <SCORE.RESTR>
0

>  <SCORE.RESTR.CAVITY>
0

>  <SCORE.RESTR.norm>
0

>  <SCORE.SYSTEM>
0

>  <SCORE.SYSTEM.CONST>
0

>  <SCORE.SYSTEM.DIHEDRAL>
0

>  <SCORE.SYSTEM.SOLV>
0

>  <SCORE.SYSTEM.norm>
0

>  <SCORE.heavy>
26

>  <SCORE.norm>
-0.785814

>  <RMSD>
2.243

$$$$
ligand
 OpenBabel11021811473D
libRbt.so/2013.1/901 2013/11/27
 26 27  0  0  0  0  0  0  0  0999 V2000
   -7.6317  -13.8146   22.7614 C   0  0  0  0  0  0  0  0  0  0  0  0
  -10.1189  -16.7171   26.1585 C   0  0  0  0  0  0  0  0  0  0  0  0
   -9.7444  -16.6255   24.8221 C   0  0  0  0  0  0  0  0  0  0  0  0
   -8.3551  -16.1720   24.3672 C   0  0  0  0  0  0  0  0  0  0  0  0
   -7.9028  -15.1949   22.1556 C   0  0  1  0  0  0  0  0  0  0  0  0
  -13.6793  -18.0317   25.8000 C   0  0  0  0  0  0  0  0  0  0  0  0
  -12.2796  -17.5192   25.4574 C   0  0  0  0  0  0  0  0  0  0  0  0
  -10.6781  -16.9880   23.8566 C   0  0  0  0  0  0  0  0  0  0  0  0
   -8.4150  -17.4102   22.2701 C   0  0  0  0  0  0  0  0  0  0  0  0
   -7.8141  -15.4320   20.7891 C   0  0  2  0  0  0  0  0  0  0  0  0
   -7.4542  -14.4987   19.6303 C   0  0  0  0  0  0  0  0  0  0  0  0
   -5.9449  -14.3828   19.4049 C   0  0  0  0  0  0  0  0  0  0  0  0
  -11.3984  -17.1684   26.4889 N   0  0  0  0  0  0  0  0  0  0  0  0
   -8.2244  -16.2530   22.9052 N   0  0  0  0  0  0  0  0  0  0  0  0
  -11.8849  -17.4139   24.1804 N   0  0  0  0  0  0  0  0  0  0  0  0
   -9.3280  -16.4064   27.0494 O   0  0  0  0  0  0  0  0  0  0  0  0
   -5.2632  -11.3123   19.1026 O   0  5  0  0  0  0  0  0  0  0  0  0
   -3.6149  -11.3515   14.7958 O   0  0  0  0  0  0  0  0  0  0  0  0
   -5.6416  -13.6857   18.1926 O   0  0  0  0  0  0  0  0  0  0  0  0
   -5.4140  -11.6736   16.5854 O   0  0  0  0  0  0  0  0  0  0  0  0
   -3.0470  -10.8951   17.2780 O   0  5  0  0  0  0  0  0  0  0  0  0
   -7.5272  -11.9439   18.0269 O   0  0  0  0  0  0  0  0  0  0  0  0
   -3.4419  -13.2951   16.4581 O   0  0  0  0  0  0  0  0  0  0  0  0
   -8.2457  -17.1039   20.5618 S   0  0  0  0  0  0  0  0  0  0  0  0
   -6.0608  -12.1455   17.9800 P   0  0  2  0  0  0  0  0  0  0  0  0
   -3.8262  -11.7380   16.3439 P   0  0  2  0  0  0  0  0  0  0  0  0
  2 16  2  0  0  0  0
  2  3  1  0  0  0  0
  2 13  1  0  0  0  0
  3  8  2  0  0  0  0
  3  4  1  0  0  0  0
  4 14  1  0  0  0  0
  5  1  1  1  0  0  0
  5 14  1  0  0  0  0
  5 10  1  0  0  0  0
  6  7  1  0  0  0  0
  7 13  1  0  0  0  0
  7 15  2  0  0  0  0
  8 15  1  0  0  0  0
  9 14  1  0  0  0  0
  9 24  1  0  0  0  0
 10 24  1  0  0  0  0
 10 11  1  6  0  0  0
 11 12  1  0  0  0  0
 12 19  1  0  0  0  0
 17 25  1  0  0  0  0
 19 25  1  0  0  0  0
 20 26  1  0  0  0  0
 21 26  1  0  0  0  0
 22 25  2  0  0  0  0
 23 26  2  0  0  0  0
 25 20  1  6  0  0  0
 26 18  1  6  0  0  0
M  CHG  2  17  -1  21  -1
M  END
>  <CHROM.1>
176.52027851,85.01461348,170.53860554,122.83553786,63.07740565,53.33879592
62.63150085,173.55435880,-7.45757814,-14.54318835,20.74953190,-2.56926046
-0.87258843,-1.88094223

>  <Name>
ligand

>  <RI>
0

>  <Rbt.Current_Directory>
/home/itssahil/PROJECTS/Mol_Feturizer/New_Systems/rnas/3D2X

>  <Rbt.Executable>
rbdock ($Id: //depot/dev/client3/rdock/2013.1/src/exe/rbdock.cxx#4 $)

>  <Rbt.Library>
libRbt.so (2013.1, Build901 2013/11/27)

>  <Rbt.Parameter_File>
/export/apps/rDock/src/rDock_2013.1_src/data/scripts/dock_solv.prm

>  <Rbt.Receptor>
prm/pocket_docking_3.prm

>  <SCORE>
-23.384

>  <SCORE.INTER>
-23.4215

>  <SCORE.INTER.CONST>
1

>  <SCORE.INTER.POLAR>
0

>  <SCORE.INTER.ROT>
8

>  <SCORE.INTER.SOLV>
11.9959

>  <SCORE.INTER.VDW>
-28.5463

>  <SCORE.INTER.norm>
-0.900829

>  <SCORE.INTRA>
0.0375763

>  <SCORE.INTRA.DIHEDRAL>
-2.57447

>  <SCORE.INTRA.DIHEDRAL.0>
7.88077

>  <SCORE.INTRA.POLAR>
0

>  <SCORE.INTRA.POLAR.0>
0

>  <SCORE.INTRA.REPUL>
0

>  <SCORE.INTRA.REPUL.0>
0

>  <SCORE.INTRA.SOLV>
1.27069

>  <SCORE.INTRA.SOLV.lig_0>
-63.2542

>  <SCORE.INTRA.VDW>
0.689465

>  <SCORE.INTRA.VDW.0>
-3.15072

>  <SCORE.INTRA.norm>
0.00144524

>  <SCORE.RESTR>
0

>  <SCORE.RESTR.CAVITY>
0

>  <SCORE.RESTR.norm>
0

>  <SCORE.SYSTEM>
0

>  <SCORE.SYSTEM.CONST>
0

>  <SCORE.SYSTEM.DIHEDRAL>
0

>  <SCORE.SYSTEM.SOLV>
0

>  <SCORE.SYSTEM.norm>
0

>  <SCORE.heavy>
26

>  <SCORE.norm>
-0.899384

>  <RMSD>
2.247

$$$$
ligand
 OpenBabel11021811473D
libRbt.so/2013.1/901 2013/11/27
 26 27  0  0  0  0  0  0  0  0999 V2000
   -6.5394  -13.9356   25.5193 C   0  0  0  0  0  0  0  0  0  0  0  0
   -9.8297  -16.7896   26.4827 C   0  0  0  0  0  0  0  0  0  0  0  0
   -9.3152  -16.8161   25.1907 C   0  0  0  0  0  0  0  0  0  0  0  0
   -7.8591  -16.4812   24.8582 C   0  0  0  0  0  0  0  0  0  0  0  0
   -7.1889  -14.2194   24.1617 C   0  0  1  0  0  0  0  0  0  0  0  0
  -13.4157  -17.9075   25.8320 C   0  0  0  0  0  0  0  0  0  0  0  0
  -11.9568  -17.5066   25.6084 C   0  0  0  0  0  0  0  0  0  0  0  0
  -10.1678  -17.1888   24.1565 C   0  0  0  0  0  0  0  0  0  0  0  0
   -8.2892  -15.5277   22.6580 C   0  0  0  0  0  0  0  0  0  0  0  0
   -7.1896  -13.2844   23.1335 C   0  0  2  0  0  0  0  0  0  0  0  0
   -6.6044  -11.8716   23.0618 C   0  0  0  0  0  0  0  0  0  0  0  0
   -6.7915  -11.2178   21.6908 C   0  0  0  0  0  0  0  0  0  0  0  0
  -11.1639  -17.1377   26.7031 N   0  0  0  0  0  0  0  0  0  0  0  0
   -7.7779  -15.3854   23.8817 N   0  0  0  0  0  0  0  0  0  0  0  0
  -11.4275  -17.5164   24.3765 N   0  0  0  0  0  0  0  0  0  0  0  0
   -9.1146  -16.4651   27.4309 O   0  0  0  0  0  0  0  0  0  0  0  0
   -6.0171   -9.9023   19.0273 O   0  5  0  0  0  0  0  0  0  0  0  0
   -3.4612  -10.0133   17.9097 O   0  0  0  0  0  0  0  0  0  0  0  0
   -6.0128  -11.8687   20.6820 O   0  0  0  0  0  0  0  0  0  0  0  0
   -4.8875  -12.0874   18.3648 O   0  0  0  0  0  0  0  0  0  0  0  0
   -3.0266  -11.4243   20.0339 O   0  5  0  0  0  0  0  0  0  0  0  0
   -7.4514  -11.9999   18.5535 O   0  0  0  0  0  0  0  0  0  0  0  0
   -2.4291  -12.3517   17.7163 O   0  0  0  0  0  0  0  0  0  0  0  0
   -8.0680  -14.0151   21.8191 S   0  0  0  0  0  0  0  0  0  0  0  0
   -6.1786  -11.5008   19.1230 P   0  0  2  0  0  0  0  0  0  0  0  0
   -3.4271  -11.4623   18.6096 P   0  0  2  0  0  0  0  0  0  0  0  0
  2 16  2  0  0  0  0
  2  3  1  0  0  0  0
  2 13  1  0  0  0  0
  3  8  2  0  0  0  0
  3  4  1  0  0  0  0
  4 14  1  0  0  0  0
  5  1  1  6  0  0  0
  5 14  1  0  0  0  0
  5 10  1  0  0  0  0
  6  7  1  0  0  0  0
  7 13  1  0  0  0  0
  7 15  2  0  0  0  0
  8 15  1  0  0  0  0
  9 14  1  0  0  0  0
  9 24  1  0  0  0  0
 10 24  1  0  0  0  0
 10 11  1  1  0  0  0
 11 12  1  0  0  0  0
 12 19  1  0  0  0  0
 17 25  1  0  0  0  0
 19 25  1  0  0  0  0
 20 26  1  0  0  0  0
 21 26  1  0  0  0  0
 22 25  2  0  0  0  0
 23 26  2  0  0  0  0
 25 20  1  6  0  0  0
 26 18  1  6  0  0  0
M  CHG  2  17  -1  21  -1
M  END
>  <CHROM.1>
-123.08517897,177.50005751,-67.80580978,118.17796377,171.78300829,43.68803547
52.56080190,-70.42051632,-7.20057005,-13.73046372,22.08364434,-2.22732046
-0.40102238,-1.17451120

>  <Name>
ligand

>  <RI>
0

>  <Rbt.Current_Directory>
/home/itssahil/PROJECTS/Mol_Feturizer/New_Systems/rnas/3D2X

>  <Rbt.Executable>
rbdock ($Id: //depot/dev/client3/rdock/2013.1/src/exe/rbdock.cxx#4 $)

>  <Rbt.Library>
libRbt.so (2013.1, Build901 2013/11/27)

>  <Rbt.Parameter_File>
/export/apps/rDock/src/rDock_2013.1_src/data/scripts/dock_solv.prm

>  <Rbt.Receptor>
prm/pocket_docking_3.prm

>  <SCORE>
-19.5444

>  <SCORE.INTER>
-17.8648

>  <SCORE.INTER.CONST>
1

>  <SCORE.INTER.POLAR>
0

>  <SCORE.INTER.ROT>
8

>  <SCORE.INTER.SOLV>
8.06491

>  <SCORE.INTER.VDW>
-23.5315

>  <SCORE.INTER.norm>
-0.687107

>  <SCORE.INTRA>
-1.67963

>  <SCORE.INTRA.DIHEDRAL>
-2.20215

>  <SCORE.INTRA.DIHEDRAL.0>
7.88077

>  <SCORE.INTRA.POLAR>
0

>  <SCORE.INTRA.POLAR.0>
0

>  <SCORE.INTRA.REPUL>
0

>  <SCORE.INTRA.REPUL.0>
0

>  <SCORE.INTRA.SOLV>
-1.2397

>  <SCORE.INTRA.SOLV.lig_0>
-63.2542

>  <SCORE.INTRA.VDW>
0.0412988

>  <SCORE.INTRA.VDW.0>
-3.15072

>  <SCORE.INTRA.norm>
-0.0646011

>  <SCORE.RESTR>
0

>  <SCORE.RESTR.CAVITY>
0

>  <SCORE.RESTR.norm>
0

>  <SCORE.SYSTEM>
0

>  <SCORE.SYSTEM.CONST>
0

>  <SCORE.SYSTEM.DIHEDRAL>
0

>  <SCORE.SYSTEM.SOLV>
0

>  <SCORE.SYSTEM.norm>
0

>  <SCORE.heavy>
26

>  <SCORE.norm>
-0.751708

>  <RMSD>
2.251

$$$$
ligand
 OpenBabel11021811473D
libRbt.so/2013.1/901 2013/11/27
 26 27  0  0  0  0  0  0  0  0999 V2000
   -7.8730  -13.7763   23.0226 C   0  0  0  0  0  0  0  0  0  0  0  0
  -10.2564  -16.7943   26.1968 C   0  0  0  0  0  0  0  0  0  0  0  0
   -9.8378  -16.7227   24.8723 C   0  0  0  0  0  0  0  0  0  0  0  0
   -8.4314  -16.2841   24.4572 C   0  0  0  0  0  0  0  0  0  0  0  0
   -8.0494  -15.1262   22.3210 C   0  0  1  0  0  0  0  0  0  0  0  0
  -13.8122  -18.0903   25.7391 C   0  0  0  0  0  0  0  0  0  0  0  0
  -12.3986  -17.5914   25.4359 C   0  0  0  0  0  0  0  0  0  0  0  0
  -10.7421  -17.0917   23.8816 C   0  0  0  0  0  0  0  0  0  0  0  0
   -8.4086  -17.3740   22.2785 C   0  0  0  0  0  0  0  0  0  0  0  0
   -7.9462  -15.2605   20.9416 C   0  0  2  0  0  0  0  0  0  0  0  0
   -7.6524  -14.2261   19.8521 C   0  0  0  0  0  0  0  0  0  0  0  0
   -6.3152  -14.4661   19.1473 C   0  0  0  0  0  0  0  0  0  0  0  0
  -11.5490  -17.2329   26.4910 N   0  0  0  0  0  0  0  0  0  0  0  0
   -8.2970  -16.2536   22.9936 N   0  0  0  0  0  0  0  0  0  0  0  0
  -11.9618  -17.5054   24.1712 N   0  0  0  0  0  0  0  0  0  0  0  0
   -9.4927  -16.4771   27.1090 O   0  0  0  0  0  0  0  0  0  0  0  0
   -7.1239  -11.3409   18.9415 O   0  5  0  0  0  0  0  0  0  0  0  0
   -3.2122  -10.9633   21.3997 O   0  0  0  0  0  0  0  0  0  0  0  0
   -6.1039  -13.5367   18.0799 O   0  0  0  0  0  0  0  0  0  0  0  0
   -4.7425  -11.9549   19.6056 O   0  0  0  0  0  0  0  0  0  0  0  0
   -3.6914   -9.6201   19.2414 O   0  5  0  0  0  0  0  0  0  0  0  0
   -5.2410  -11.2901   17.1713 O   0  0  0  0  0  0  0  0  0  0  0  0
   -5.5360   -9.9602   20.9935 O   0  0  0  0  0  0  0  0  0  0  0  0
   -8.2624  -16.9381   20.5965 S   0  0  0  0  0  0  0  0  0  0  0  0
   -5.7671  -11.9883   18.3668 P   0  0  2  0  0  0  0  0  0  0  0  0
   -4.2505  -10.5612   20.2374 P   0  0  2  0  0  0  0  0  0  0  0  0
  2 16  2  0  0  0  0
  2  3  1  0  0  0  0
  2 13  1  0  0  0  0
  3  8  2  0  0  0  0
  3  4  1  0  0  0  0
  4 14  1  0  0  0  0
  5  1  1  1  0  0  0
  5 14  1  0  0  0  0
  5 10  1  0  0  0  0
  6  7  1  0  0  0  0
  7 13  1  0  0  0  0
  7 15  2  0  0  0  0
  8 15  1  0  0  0  0
  9 14  1  0  0  0  0
  9 24  1  0  0  0  0
 10 24  1  0  0  0  0
 10 11  1  6  0  0  0
 11 12  1  0  0  0  0
 12 19  1  0  0  0  0
 17 25  1  0  0  0  0
 19 25  1  0  0  0  0
 20 26  1  0  0  0  0
 21 26  1  0  0  0  0
 22 25  2  0  0  0  0
 23 26  2  0  0  0  0
 25 20  1  1  0  0  0
 26 18  1  1  0  0  0
M  CHG  2  17  -1  21  -1
M  END
>  <CHROM.1>
-177.68426857,113.90513037,176.38848821,116.84925068,72.06773664,-64.09550665
-70.56323298,-178.08263495,-7.60403556,-14.23133973,21.66439687,-2.72075760
-0.87742698,-1.81351457

>  <Name>
ligand

>  <RI>
0

>  <Rbt.Current_Directory>
/home/itssahil/PROJECTS/Mol_Feturizer/New_Systems/rnas/3D2X

>  <Rbt.Executable>
rbdock ($Id: //depot/dev/client3/rdock/2013.1/src/exe/rbdock.cxx#4 $)

>  <Rbt.Library>
libRbt.so (2013.1, Build901 2013/11/27)

>  <Rbt.Parameter_File>
/export/apps/rDock/src/rDock_2013.1_src/data/scripts/dock_solv.prm

>  <Rbt.Receptor>
prm/pocket_docking_3.prm

>  <SCORE>
-19.6269

>  <SCORE.INTER>
-19.7605

>  <SCORE.INTER.CONST>
1

>  <SCORE.INTER.POLAR>
0

>  <SCORE.INTER.ROT>
8

>  <SCORE.INTER.SOLV>
8.01893

>  <SCORE.INTER.VDW>
-24.7799

>  <SCORE.INTER.norm>
-0.760017

>  <SCORE.INTRA>
0.133554

>  <SCORE.INTRA.DIHEDRAL>
-1.50345

>  <SCORE.INTRA.DIHEDRAL.0>
7.88077

>  <SCORE.INTRA.POLAR>
0

>  <SCORE.INTRA.POLAR.0>
0

>  <SCORE.INTRA.REPUL>
0

>  <SCORE.INTRA.REPUL.0>
0

>  <SCORE.INTRA.SOLV>
1.23903

>  <SCORE.INTRA.SOLV.lig_0>
-63.2542

>  <SCORE.INTRA.VDW>
0.265763

>  <SCORE.INTRA.VDW.0>
-3.15072

>  <SCORE.INTRA.norm>
0.00513669

>  <SCORE.RESTR>
0

>  <SCORE.RESTR.CAVITY>
0

>  <SCORE.RESTR.norm>
0

>  <SCORE.SYSTEM>
0

>  <SCORE.SYSTEM.CONST>
0

>  <SCORE.SYSTEM.DIHEDRAL>
0

>  <SCORE.SYSTEM.SOLV>
0

>  <SCORE.SYSTEM.norm>
0

>  <SCORE.heavy>
26

>  <SCORE.norm>
-0.754881

>  <RMSD>
2.252

$$$$
ligand
 OpenBabel11021811473D
libRbt.so/2013.1/901 2013/11/27
 26 27  0  0  0  0  0  0  0  0999 V2000
   -7.3788  -13.5875   23.9147 C   0  0  0  0  0  0  0  0  0  0  0  0
   -9.9699  -17.0197   26.6480 C   0  0  0  0  0  0  0  0  0  0  0  0
   -9.3502  -16.5988   25.4761 C   0  0  0  0  0  0  0  0  0  0  0  0
   -7.9218  -16.0507   25.4300 C   0  0  0  0  0  0  0  0  0  0  0  0
   -7.1325  -14.9917   23.3550 C   0  0  1  0  0  0  0  0  0  0  0  0
  -13.3305  -18.1914   25.2819 C   0  0  0  0  0  0  0  0  0  0  0  0
  -11.9163  -17.6142   25.3590 C   0  0  0  0  0  0  0  0  0  0  0  0
  -10.0633  -16.7058   24.2863 C   0  0  0  0  0  0  0  0  0  0  0  0
   -7.1059  -17.2646   23.4818 C   0  0  0  0  0  0  0  0  0  0  0  0
   -6.6195  -15.1990   22.0802 C   0  0  2  0  0  0  0  0  0  0  0  0
   -6.1932  -14.2055   20.9965 C   0  0  0  0  0  0  0  0  0  0  0  0
   -4.9262  -13.4297   21.3640 C   0  0  0  0  0  0  0  0  0  0  0  0
  -11.2668  -17.5348   26.5981 N   0  0  0  0  0  0  0  0  0  0  0  0
   -7.3813  -16.0965   24.0637 N   0  0  0  0  0  0  0  0  0  0  0  0
  -11.2889  -17.1949   24.2507 N   0  0  0  0  0  0  0  0  0  0  0  0
   -9.3801  -16.9437   27.7260 O   0  0  0  0  0  0  0  0  0  0  0  0
   -3.3661  -11.0392   22.1310 O   0  5  0  0  0  0  0  0  0  0  0  0
    0.4839  -12.6759   19.9888 O   0  0  0  0  0  0  0  0  0  0  0  0
   -4.5958  -12.4527   20.3720 O   0  0  0  0  0  0  0  0  0  0  0  0
   -2.0159  -12.2876   20.3681 O   0  0  0  0  0  0  0  0  0  0  0  0
   -0.4467  -10.2623   20.0157 O   0  5  0  0  0  0  0  0  0  0  0  0
   -3.4416  -10.2649   19.6660 O   0  0  0  0  0  0  0  0  0  0  0  0
   -0.3377  -11.6343   22.1823 O   0  0  0  0  0  0  0  0  0  0  0  0
   -6.5557  -16.9258   21.8622 S   0  0  0  0  0  0  0  0  0  0  0  0
   -3.3640  -11.4348   20.5709 P   0  0  2  0  0  0  0  0  0  0  0  0
   -0.5709  -11.6200   20.5915 P   0  0  2  0  0  0  0  0  0  0  0  0
  2 16  2  0  0  0  0
  2  3  1  0  0  0  0
  2 13  1  0  0  0  0
  3  8  2  0  0  0  0
  3  4  1  0  0  0  0
  4 14  1  0  0  0  0
  5  1  1  1  0  0  0
  5 14  1  0  0  0  0
  5 10  1  0  0  0  0
  6  7  1  0  0  0  0
  7 13  1  0  0  0  0
  7 15  2  0  0  0  0
  8 15  1  0  0  0  0
  9 14  1  0  0  0  0
  9 24  1  0  0  0  0
 10 24  1  0  0  0  0
 10 11  1  6  0  0  0
 11 12  1  0  0  0  0
 12 19  1  0  0  0  0
 17 25  1  0  0  0  0
 19 25  1  0  0  0  0
 20 26  1  0  0  0  0
 21 26  1  0  0  0  0
 22 25  2  0  0  0  0
 23 26  2  0  0  0  0
 25 20  1  6  0  0  0
 26 18  1  6  0  0  0
M  CHG  2  17  -1  21  -1
M  END
>  <CHROM.1>
161.61669615,69.32606714,-176.49410653,111.83848897,175.72913200,-63.74893144
-37.81813794,-167.97872615,-5.82028402,-14.29174604,22.66481391,-2.65396907
-0.53024967,-1.46492999

>  <Name>
ligand

>  <RI>
0

>  <Rbt.Current_Directory>
/home/itssahil/PROJECTS/Mol_Feturizer/New_Systems/rnas/3D2X

>  <Rbt.Executable>
rbdock ($Id: //depot/dev/client3/rdock/2013.1/src/exe/rbdock.cxx#4 $)

>  <Rbt.Library>
libRbt.so (2013.1, Build901 2013/11/27)

>  <Rbt.Parameter_File>
/export/apps/rDock/src/rDock_2013.1_src/data/scripts/dock_solv.prm

>  <Rbt.Receptor>
prm/pocket_docking_5.prm

>  <SCORE>
-19.397

>  <SCORE.INTER>
-18.5375

>  <SCORE.INTER.CONST>
1

>  <SCORE.INTER.POLAR>
0

>  <SCORE.INTER.ROT>
8

>  <SCORE.INTER.SOLV>
9.0585

>  <SCORE.INTER.VDW>
-24.3112

>  <SCORE.INTER.norm>
-0.71298

>  <SCORE.INTRA>
-0.859517

>  <SCORE.INTRA.DIHEDRAL>
-2.12474

>  <SCORE.INTRA.DIHEDRAL.0>
7.88077

>  <SCORE.INTRA.POLAR>
0

>  <SCORE.INTRA.POLAR.0>
0

>  <SCORE.INTRA.REPUL>
0

>  <SCORE.INTRA.REPUL.0>
0

>  <SCORE.INTRA.SOLV>
0.303729

>  <SCORE.INTRA.SOLV.lig_0>
-63.2542

>  <SCORE.INTRA.VDW>
0.0509871

>  <SCORE.INTRA.VDW.0>
-3.15072

>  <SCORE.INTRA.norm>
-0.0330584

>  <SCORE.RESTR>
0

>  <SCORE.RESTR.CAVITY>
0

>  <SCORE.RESTR.norm>
0

>  <SCORE.SYSTEM>
0

>  <SCORE.SYSTEM.CONST>
0

>  <SCORE.SYSTEM.DIHEDRAL>
0

>  <SCORE.SYSTEM.SOLV>
0

>  <SCORE.SYSTEM.norm>
0

>  <SCORE.heavy>
26

>  <SCORE.norm>
-0.746038

>  <RMSD>
2.253

$$$$
ligand
 OpenBabel11021811473D
libRbt.so/2013.1/901 2013/11/27
 26 27  0  0  0  0  0  0  0  0999 V2000
   -6.9744  -13.6180   24.6181 C   0  0  0  0  0  0  0  0  0  0  0  0
  -10.0670  -17.1277   26.7009 C   0  0  0  0  0  0  0  0  0  0  0  0
   -9.3486  -16.7497   25.5714 C   0  0  0  0  0  0  0  0  0  0  0  0
   -7.9144  -16.2179   25.6259 C   0  0  0  0  0  0  0  0  0  0  0  0
   -6.9221  -14.9086   23.7952 C   0  0  1  0  0  0  0  0  0  0  0  0
  -13.3197  -18.3070   25.1003 C   0  0  0  0  0  0  0  0  0  0  0  0
  -11.9092  -17.7422   25.2754 C   0  0  0  0  0  0  0  0  0  0  0  0
   -9.9637  -16.8864   24.3310 C   0  0  0  0  0  0  0  0  0  0  0  0
   -7.2334  -17.1413   23.4768 C   0  0  0  0  0  0  0  0  0  0  0  0
   -6.4109  -14.9405   22.5033 C   0  0  2  0  0  0  0  0  0  0  0  0
   -5.8140  -13.8316   21.6329 C   0  0  0  0  0  0  0  0  0  0  0  0
   -6.4638  -13.7445   20.2499 C   0  0  0  0  0  0  0  0  0  0  0  0
  -11.3619  -17.6309   26.5605 N   0  0  0  0  0  0  0  0  0  0  0  0
   -7.3497  -16.0796   24.2757 N   0  0  0  0  0  0  0  0  0  0  0  0
  -11.1884  -17.3639   24.2101 N   0  0  0  0  0  0  0  0  0  0  0  0
   -9.5660  -17.0242   27.8207 O   0  0  0  0  0  0  0  0  0  0  0  0
   -7.8983  -12.2490   17.9638 O   0  5  0  0  0  0  0  0  0  0  0  0
   -7.4421   -9.3016   18.0422 O   0  0  0  0  0  0  0  0  0  0  0  0
   -5.8511  -12.7376   19.4385 O   0  0  0  0  0  0  0  0  0  0  0  0
   -5.6928  -11.0762   17.4641 O   0  0  0  0  0  0  0  0  0  0  0  0
   -5.6398   -9.9375   19.7856 O   0  5  0  0  0  0  0  0  0  0  0  0
   -5.9090  -13.5999   17.0156 O   0  0  0  0  0  0  0  0  0  0  0  0
   -4.9968   -8.6256   17.6752 O   0  0  0  0  0  0  0  0  0  0  0  0
   -6.5957  -16.5825   21.9530 S   0  0  0  0  0  0  0  0  0  0  0  0
   -6.3081  -12.4922   17.9140 P   0  0  2  0  0  0  0  0  0  0  0  0
   -5.9271   -9.7527   18.3455 P   0  0  2  0  0  0  0  0  0  0  0  0
  2 16  2  0  0  0  0
  2  3  1  0  0  0  0
  2 13  1  0  0  0  0
  3  8  2  0  0  0  0
  3  4  1  0  0  0  0
  4 14  1  0  0  0  0
  5  1  1  1  0  0  0
  5 14  1  0  0  0  0
  5 10  1  0  0  0  0
  6  7  1  0  0  0  0
  7 13  1  0  0  0  0
  7 15  2  0  0  0  0
  8 15  1  0  0  0  0
  9 14  1  0  0  0  0
  9 24  1  0  0  0  0
 10 24  1  0  0  0  0
 10 11  1  6  0  0  0
 11 12  1  0  0  0  0
 12 19  1  0  0  0  0
 17 25  1  0  0  0  0
 19 25  1  0  0  0  0
 20 26  1  0  0  0  0
 21 26  1  0  0  0  0
 22 25  2  0  0  0  0
 23 26  2  0  0  0  0
 25 20  1  6  0  0  0
 26 18  1  6  0  0  0
M  CHG  2  17  -1  21  -1
M  END
>  <CHROM.1>
172.05183626,-127.89293373,-177.61669643,120.41525284,177.18159615,59.84240387
54.38478813,-76.19457670,-7.58696033,-14.11134653,21.69524520,-1.99927696
-0.40073776,-1.03742198

>  <Name>
ligand

>  <RI>
0

>  <Rbt.Current_Directory>
/home/itssahil/PROJECTS/Mol_Feturizer/New_Systems/rnas/3D2X

>  <Rbt.Executable>
rbdock ($Id: //depot/dev/client3/rdock/2013.1/src/exe/rbdock.cxx#4 $)

>  <Rbt.Library>
libRbt.so (2013.1, Build901 2013/11/27)

>  <Rbt.Parameter_File>
/export/apps/rDock/src/rDock_2013.1_src/data/scripts/dock_solv.prm

>  <Rbt.Receptor>
prm/pocket_docking_4.prm

>  <SCORE>
-23.3246

>  <SCORE.INTER>
-21.9106

>  <SCORE.INTER.CONST>
1

>  <SCORE.INTER.POLAR>
0

>  <SCORE.INTER.ROT>
8

>  <SCORE.INTER.SOLV>
16.2533

>  <SCORE.INTER.VDW>
-28.9582

>  <SCORE.INTER.norm>
-0.842717

>  <SCORE.INTRA>
-1.41393

>  <SCORE.INTRA.DIHEDRAL>
-2.18777

>  <SCORE.INTRA.DIHEDRAL.0>
7.88077

>  <SCORE.INTRA.POLAR>
0

>  <SCORE.INTRA.POLAR.0>
0

>  <SCORE.INTRA.REPUL>
0

>  <SCORE.INTRA.REPUL.0>
0

>  <SCORE.INTRA.SOLV>
-1.33804

>  <SCORE.INTRA.SOLV.lig_0>
-63.2542

>  <SCORE.INTRA.VDW>
0.348973

>  <SCORE.INTRA.VDW.0>
-3.15072

>  <SCORE.INTRA.norm>
-0.0543821

>  <SCORE.RESTR>
0

>  <SCORE.RESTR.CAVITY>
0

>  <SCORE.RESTR.norm>
0

>  <SCORE.SYSTEM>
0

>  <SCORE.SYSTEM.CONST>
0

>  <SCORE.SYSTEM.DIHEDRAL>
0

>  <SCORE.SYSTEM.SOLV>
0

>  <SCORE.SYSTEM.norm>
0

>  <SCORE.heavy>
26

>  <SCORE.norm>
-0.897099

>  <RMSD>
2.255

$$$$
ligand
 OpenBabel11021811473D
libRbt.so/2013.1/901 2013/11/27
 26 27  0  0  0  0  0  0  0  0999 V2000
   -8.0924  -13.6545   23.3835 C   0  0  0  0  0  0  0  0  0  0  0  0
  -10.0308  -16.9690   26.5577 C   0  0  0  0  0  0  0  0  0  0  0  0
   -9.4945  -16.5454   25.3462 C   0  0  0  0  0  0  0  0  0  0  0  0
   -8.0857  -15.9635   25.2077 C   0  0  0  0  0  0  0  0  0  0  0  0
   -7.5979  -15.0462   22.9782 C   0  0  1  0  0  0  0  0  0  0  0  0
  -13.4386  -18.2357   25.4109 C   0  0  0  0  0  0  0  0  0  0  0  0
  -12.0370  -17.6238   25.3959 C   0  0  0  0  0  0  0  0  0  0  0  0
  -10.2761  -16.6820   24.2035 C   0  0  0  0  0  0  0  0  0  0  0  0
   -7.1229  -17.2383   23.3685 C   0  0  0  0  0  0  0  0  0  0  0  0
   -7.1031  -15.3129   21.7072 C   0  0  2  0  0  0  0  0  0  0  0  0
   -6.9206  -14.4023   20.4902 C   0  0  0  0  0  0  0  0  0  0  0  0
   -5.7029  -14.7773   19.6423 C   0  0  0  0  0  0  0  0  0  0  0  0
  -11.3152  -17.5158   26.5920 N   0  0  0  0  0  0  0  0  0  0  0  0
   -7.5989  -16.0792   23.8254 N   0  0  0  0  0  0  0  0  0  0  0  0
  -11.4891  -17.2010   24.2475 N   0  0  0  0  0  0  0  0  0  0  0  0
   -9.3783  -16.8675   27.5968 O   0  0  0  0  0  0  0  0  0  0  0  0
   -4.5483  -15.2428   16.6207 O   0  5  0  0  0  0  0  0  0  0  0  0
   -6.8398  -12.5463   16.5780 O   0  0  0  0  0  0  0  0  0  0  0  0
   -5.5045  -13.8585   18.5634 O   0  0  0  0  0  0  0  0  0  0  0  0
   -4.2870  -12.7089   16.5937 O   0  0  0  0  0  0  0  0  0  0  0  0
   -5.4604  -11.1884   14.8618 O   0  5  0  0  0  0  0  0  0  0  0  0
   -2.9563  -14.0956   18.3034 O   0  0  0  0  0  0  0  0  0  0  0  0
   -5.6156  -13.7433   14.6703 O   0  0  0  0  0  0  0  0  0  0  0  0
   -6.7114  -17.0098   21.6895 S   0  0  0  0  0  0  0  0  0  0  0  0
   -4.2402  -13.9829   17.5738 P   0  0  2  0  0  0  0  0  0  0  0  0
   -5.5449  -12.4526   15.6266 P   0  0  2  0  0  0  0  0  0  0  0  0
  2 16  2  0  0  0  0
  2  3  1  0  0  0  0
  2 13  1  0  0  0  0
  3  8  2  0  0  0  0
  3  4  1  0  0  0  0
  4 14  1  0  0  0  0
  5  1  1  1  0  0  0
  5 14  1  0  0  0  0
  5 10  1  0  0  0  0
  6  7  1  0  0  0  0
  7 13  1  0  0  0  0
  7 15  2  0  0  0  0
  8 15  1  0  0  0  0
  9 14  1  0  0  0  0
  9 24  1  0  0  0  0
 10 24  1  0  0  0  0
 10 11  1  6  0  0  0
 11 12  1  0  0  0  0
 12 19  1  0  0  0  0
 17 25  1  0  0  0  0
 19 25  1  0  0  0  0
 20 26  1  0  0  0  0
 21 26  1  0  0  0  0
 22 25  2  0  0  0  0
 23 26  2  0  0  0  0
 25 20  1  6  0  0  0
 26 18  1  1  0  0  0
M  CHG  2  17  -1  21  -1
M  END
>  <CHROM.1>
158.42835016,146.74131270,-176.14079091,101.66106970,176.44429337,51.82633218
74.00952670,51.03791010,-7.22511810,-15.08277527,20.83690660,-2.06324047
0.01848314,-1.15839814

>  <Name>
ligand

>  <RI>
0

>  <Rbt.Current_Directory>
/home/itssahil/PROJECTS/Mol_Feturizer/New_Systems/rnas/3D2X

>  <Rbt.Executable>
rbdock ($Id: //depot/dev/client3/rdock/2013.1/src/exe/rbdock.cxx#4 $)

>  <Rbt.Library>
libRbt.so (2013.1, Build901 2013/11/27)

>  <Rbt.Parameter_File>
/export/apps/rDock/src/rDock_2013.1_src/data/scripts/dock_solv.prm

>  <Rbt.Receptor>
prm/pocket_docking_5.prm

>  <SCORE>
-24.3673

>  <SCORE.INTER>
-22.4252

>  <SCORE.INTER.CONST>
1

>  <SCORE.INTER.POLAR>
0

>  <SCORE.INTER.ROT>
8

>  <SCORE.INTER.SOLV>
14.565

>  <SCORE.INTER.VDW>
-28.7385

>  <SCORE.INTER.norm>
-0.862508

>  <SCORE.INTRA>
-1.94209

>  <SCORE.INTRA.DIHEDRAL>
-2.58649

>  <SCORE.INTRA.DIHEDRAL.0>
7.88077

>  <SCORE.INTRA.POLAR>
0

>  <SCORE.INTRA.POLAR.0>
0

>  <SCORE.INTRA.REPUL>
0

>  <SCORE.INTRA.REPUL.0>
0

>  <SCORE.INTRA.SOLV>
-1.64691

>  <SCORE.INTRA.SOLV.lig_0>
-63.2542

>  <SCORE.INTRA.VDW>
0.174616

>  <SCORE.INTRA.VDW.0>
-3.15072

>  <SCORE.INTRA.norm>
-0.0746956

>  <SCORE.RESTR>
0

>  <SCORE.RESTR.CAVITY>
0

>  <SCORE.RESTR.norm>
0

>  <SCORE.SYSTEM>
0

>  <SCORE.SYSTEM.CONST>
0

>  <SCORE.SYSTEM.DIHEDRAL>
0

>  <SCORE.SYSTEM.SOLV>
0

>  <SCORE.SYSTEM.norm>
0

>  <SCORE.heavy>
26

>  <SCORE.norm>
-0.937203

>  <RMSD>
2.259

$$$$
ligand
 OpenBabel11021811473D
libRbt.so/2013.1/901 2013/11/27
 26 27  0  0  0  0  0  0  0  0999 V2000
   -8.4894  -14.0062   23.3677 C   0  0  0  0  0  0  0  0  0  0  0  0
   -9.9131  -16.7529   26.4685 C   0  0  0  0  0  0  0  0  0  0  0  0
   -9.3574  -16.8196   25.1951 C   0  0  0  0  0  0  0  0  0  0  0  0
   -7.9024  -16.4536   24.8923 C   0  0  0  0  0  0  0  0  0  0  0  0
   -7.9304  -15.2815   22.7300 C   0  0  1  0  0  0  0  0  0  0  0  0
  -13.4412  -18.0114   25.7602 C   0  0  0  0  0  0  0  0  0  0  0  0
  -11.9888  -17.5746   25.5631 C   0  0  0  0  0  0  0  0  0  0  0  0
  -10.1652  -17.2641   24.1533 C   0  0  0  0  0  0  0  0  0  0  0  0
   -7.1595  -17.4229   22.7844 C   0  0  0  0  0  0  0  0  0  0  0  0
   -7.6496  -15.3659   21.3715 C   0  0  2  0  0  0  0  0  0  0  0  0
   -7.7909  -14.3318   20.2517 C   0  0  0  0  0  0  0  0  0  0  0  0
   -6.4501  -13.9504   19.6199 C   0  0  0  0  0  0  0  0  0  0  0  0
  -11.2425  -17.1331   26.6638 N   0  0  0  0  0  0  0  0  0  0  0  0
   -7.6660  -16.3797   23.4432 N   0  0  0  0  0  0  0  0  0  0  0  0
  -11.4207  -17.6216   24.3496 N   0  0  0  0  0  0  0  0  0  0  0  0
   -9.2387  -16.3645   27.4225 O   0  0  0  0  0  0  0  0  0  0  0  0
   -4.2260  -13.8506   17.4231 O   0  5  0  0  0  0  0  0  0  0  0  0
   -1.3673  -13.4730   20.9936 O   0  0  0  0  0  0  0  0  0  0  0  0
   -5.7937  -15.0838   19.0436 O   0  0  0  0  0  0  0  0  0  0  0  0
   -3.4020  -14.4192   19.7655 O   0  0  0  0  0  0  0  0  0  0  0  0
   -1.0692  -15.4619   19.3665 O   0  5  0  0  0  0  0  0  0  0  0  0
   -3.7584  -16.3117   18.0602 O   0  0  0  0  0  0  0  0  0  0  0  0
   -1.6224  -13.1224   18.4671 O   0  0  0  0  0  0  0  0  0  0  0  0
   -7.0876  -16.9913   21.0964 S   0  0  0  0  0  0  0  0  0  0  0  0
   -4.2653  -15.0064   18.5425 P   0  0  2  0  0  0  0  0  0  0  0  0
   -1.8136  -14.2112   19.6347 P   0  0  2  0  0  0  0  0  0  0  0  0
  2 16  2  0  0  0  0
  2  3  1  0  0  0  0
  2 13  1  0  0  0  0
  3  8  2  0  0  0  0
  3  4  1  0  0  0  0
  4 14  1  0  0  0  0
  5  1  1  1  0  0  0
  5 14  1  0  0  0  0
  5 10  1  0  0  0  0
  6  7  1  0  0  0  0
  7 13  1  0  0  0  0
  7 15  2  0  0  0  0
  8 15  1  0  0  0  0
  9 14  1  0  0  0  0
  9 24  1  0  0  0  0
 10 24  1  0  0  0  0
 10 11  1  6  0  0  0
 11 12  1  0  0  0  0
 12 19  1  0  0  0  0
 17 25  1  0  0  0  0
 19 25  1  0  0  0  0
 20 26  1  0  0  0  0
 21 26  1  0  0  0  0
 22 25  2  0  0  0  0
 23 26  2  0  0  0  0
 25 20  1  1  0  0  0
 26 18  1  1  0  0  0
M  CHG  2  17  -1  21  -1
M  END
>  <CHROM.1>
-169.49442455,116.47218608,60.04081644,84.26572429,-169.35507425,-68.43759994
-59.12716745,174.21660611,-6.51740883,-15.61737914,21.74516232,-2.46535578
-0.29541431,-1.53205908

>  <Name>
ligand

>  <RI>
0

>  <Rbt.Current_Directory>
/home/itssahil/PROJECTS/Mol_Feturizer/New_Systems/rnas/3D2X

>  <Rbt.Executable>
rbdock ($Id: //depot/dev/client3/rdock/2013.1/src/exe/rbdock.cxx#4 $)

>  <Rbt.Library>
libRbt.so (2013.1, Build901 2013/11/27)

>  <Rbt.Parameter_File>
/export/apps/rDock/src/rDock_2013.1_src/data/scripts/dock_solv.prm

>  <Rbt.Receptor>
prm/pocket_docking_3.prm

>  <SCORE>
-22.893

>  <SCORE.INTER>
-21.2829

>  <SCORE.INTER.CONST>
1

>  <SCORE.INTER.POLAR>
0

>  <SCORE.INTER.ROT>
8

>  <SCORE.INTER.SOLV>
11.3661

>  <SCORE.INTER.VDW>
-26.9106

>  <SCORE.INTER.norm>
-0.818574

>  <SCORE.INTRA>
-1.61642

>  <SCORE.INTRA.DIHEDRAL>
-2.0623

>  <SCORE.INTRA.DIHEDRAL.0>
7.88077

>  <SCORE.INTRA.POLAR>
0

>  <SCORE.INTRA.POLAR.0>
0

>  <SCORE.INTRA.REPUL>
0

>  <SCORE.INTRA.REPUL.0>
0

>  <SCORE.INTRA.SOLV>
0.251907

>  <SCORE.INTRA.SOLV.lig_0>
-63.2542

>  <SCORE.INTRA.VDW>
-0.711223

>  <SCORE.INTRA.VDW.0>
-3.15072

>  <SCORE.INTRA.norm>
-0.06217

>  <SCORE.RESTR>
0.00630329

>  <SCORE.RESTR.CAVITY>
0.00630329

>  <SCORE.RESTR.norm>
0.000242434

>  <SCORE.SYSTEM>
0

>  <SCORE.SYSTEM.CONST>
0

>  <SCORE.SYSTEM.DIHEDRAL>
0

>  <SCORE.SYSTEM.SOLV>
0

>  <SCORE.SYSTEM.norm>
0

>  <SCORE.heavy>
26

>  <SCORE.norm>
-0.880501

>  <RMSD>
2.260

$$$$
ligand
 OpenBabel11021811473D
libRbt.so/2013.1/901 2013/11/27
 26 27  0  0  0  0  0  0  0  0999 V2000
   -8.8196  -14.4942   22.5548 C   0  0  0  0  0  0  0  0  0  0  0  0
  -10.0265  -17.0914   24.7209 C   0  0  0  0  0  0  0  0  0  0  0  0
   -8.9234  -17.1111   23.8739 C   0  0  0  0  0  0  0  0  0  0  0  0
   -9.0166  -17.4249   22.3787 C   0  0  0  0  0  0  0  0  0  0  0  0
   -7.8999  -15.3486   21.6774 C   0  0  1  0  0  0  0  0  0  0  0  0
   -8.3699  -16.0923   28.0058 C   0  0  0  0  0  0  0  0  0  0  0  0
   -8.5718  -16.4672   26.5368 C   0  0  0  0  0  0  0  0  0  0  0  0
   -7.6789  -16.8066   24.4162 C   0  0  0  0  0  0  0  0  0  0  0  0
   -7.1334  -17.3207   20.8369 C   0  0  0  0  0  0  0  0  0  0  0  0
   -6.8903  -14.7900   20.9027 C   0  0  2  0  0  0  0  0  0  0  0  0
   -6.4489  -13.3347   20.7276 C   0  0  0  0  0  0  0  0  0  0  0  0
   -5.4788  -12.8708   21.8167 C   0  0  0  0  0  0  0  0  0  0  0  0
   -9.8580  -16.7665   26.0685 N   0  0  0  0  0  0  0  0  0  0  0  0
   -8.0041  -16.6791   21.6174 N   0  0  0  0  0  0  0  0  0  0  0  0
   -7.5314  -16.5003   25.6917 N   0  0  0  0  0  0  0  0  0  0  0  0
  -11.1485  -17.3551   24.2881 O   0  0  0  0  0  0  0  0  0  0  0  0
   -4.0075  -13.7552   19.1086 O   0  5  0  0  0  0  0  0  0  0  0  0
   -1.4340  -11.4997   18.4566 O   0  0  0  0  0  0  0  0  0  0  0  0
   -4.1817  -13.4529   21.6547 O   0  0  0  0  0  0  0  0  0  0  0  0
   -3.3536  -11.5229   20.1472 O   0  0  0  0  0  0  0  0  0  0  0  0
   -3.8482  -11.0235   17.6583 O   0  5  0  0  0  0  0  0  0  0  0  0
   -1.8650  -13.5827   20.5443 O   0  0  0  0  0  0  0  0  0  0  0  0
   -2.6005   -9.3120   19.1082 O   0  0  0  0  0  0  0  0  0  0  0  0
   -6.1473  -16.1156   20.0518 S   0  0  0  0  0  0  0  0  0  0  0  0
   -3.2592  -13.1112   20.3798 P   0  0  2  0  0  0  0  0  0  0  0  0
   -2.8778  -10.8578   18.7634 P   0  0  2  0  0  0  0  0  0  0  0  0
  2 16  2  0  0  0  0
  2  3  1  0  0  0  0
  2 13  1  0  0  0  0
  3  8  2  0  0  0  0
  3  4  1  0  0  0  0
  4 14  1  0  0  0  0
  5  1  1  1  0  0  0
  5 14  1  0  0  0  0
  5 10  1  0  0  0  0
  6  7  1  0  0  0  0
  7 13  1  0  0  0  0
  7 15  2  0  0  0  0
  8 15  1  0  0  0  0
  9 14  1  0  0  0  0
  9 24  1  0  0  0  0
 10 24  1  0  0  0  0
 10 11  1  6  0  0  0
 11 12  1  0  0  0  0
 12 19  1  0  0  0  0
 17 25  1  0  0  0  0
 19 25  1  0  0  0  0
 20 26  1  0  0  0  0
 21 26  1  0  0  0  0
 22 25  2  0  0  0  0
 23 26  2  0  0  0  0
 25 20  1  6  0  0  0
 26 18  1  6  0  0  0
M  CHG  2  17  -1  21  -1
M  END
>  <CHROM.1>
147.39868077,84.25569616,72.53135388,-55.54718379,65.39168543,-52.22326120
-67.59273311,-47.75004699,-5.94928330,-14.36050035,21.62190701,2.66967136
0.78370298,1.37643502

>  <Name>
ligand

>  <RI>
0

>  <Rbt.Current_Directory>
/home/itssahil/PROJECTS/Mol_Feturizer/New_Systems/rnas/3D2X

>  <Rbt.Executable>
rbdock ($Id: //depot/dev/client3/rdock/2013.1/src/exe/rbdock.cxx#4 $)

>  <Rbt.Library>
libRbt.so (2013.1, Build901 2013/11/27)

>  <Rbt.Parameter_File>
/export/apps/rDock/src/rDock_2013.1_src/data/scripts/dock_solv.prm

>  <Rbt.Receptor>
prm/pocket_docking_2.prm

>  <SCORE>
-9.69217

>  <SCORE.INTER>
-9.26397

>  <SCORE.INTER.CONST>
1

>  <SCORE.INTER.POLAR>
0

>  <SCORE.INTER.ROT>
8

>  <SCORE.INTER.SOLV>
9.20099

>  <SCORE.INTER.VDW>
-18.1763

>  <SCORE.INTER.norm>
-0.356306

>  <SCORE.INTRA>
-0.490563

>  <SCORE.INTRA.DIHEDRAL>
-1.35534

>  <SCORE.INTRA.DIHEDRAL.0>
7.88077

>  <SCORE.INTRA.POLAR>
0

>  <SCORE.INTRA.POLAR.0>
0

>  <SCORE.INTRA.REPUL>
0

>  <SCORE.INTRA.REPUL.0>
0

>  <SCORE.INTRA.SOLV>
-0.089687

>  <SCORE.INTRA.SOLV.lig_0>
-63.2542

>  <SCORE.INTRA.VDW>
0.231951

>  <SCORE.INTRA.VDW.0>
-3.15072

>  <SCORE.INTRA.norm>
-0.0188678

>  <SCORE.RESTR>
0.0623566

>  <SCORE.RESTR.CAVITY>
0.0623566

>  <SCORE.RESTR.norm>
0.00239833

>  <SCORE.SYSTEM>
0

>  <SCORE.SYSTEM.CONST>
0

>  <SCORE.SYSTEM.DIHEDRAL>
0

>  <SCORE.SYSTEM.SOLV>
0

>  <SCORE.SYSTEM.norm>
0

>  <SCORE.heavy>
26

>  <SCORE.norm>
-0.372776

>  <RMSD>
2.270

$$$$
ligand
 OpenBabel11021811473D
libRbt.so/2013.1/901 2013/11/27
 26 27  0  0  0  0  0  0  0  0999 V2000
   -8.4552  -14.0129   23.3103 C   0  0  0  0  0  0  0  0  0  0  0  0
  -10.0832  -17.3042   24.0590 C   0  0  0  0  0  0  0  0  0  0  0  0
   -9.2837  -16.8286   25.0931 C   0  0  0  0  0  0  0  0  0  0  0  0
   -7.8250  -16.4061   24.9023 C   0  0  0  0  0  0  0  0  0  0  0  0
   -7.7617  -15.2500   22.7322 C   0  0  1  0  0  0  0  0  0  0  0  0
  -13.3747  -17.8381   25.9065 C   0  0  0  0  0  0  0  0  0  0  0  0
  -11.9145  -17.4908   25.6129 C   0  0  0  0  0  0  0  0  0  0  0  0
   -9.8530  -16.7124   26.3571 C   0  0  0  0  0  0  0  0  0  0  0  0
   -6.8531  -17.3330   22.8698 C   0  0  0  0  0  0  0  0  0  0  0  0
   -7.3691  -15.3220   21.4010 C   0  0  2  0  0  0  0  0  0  0  0  0
   -7.4915  -14.3059   20.2626 C   0  0  0  0  0  0  0  0  0  0  0  0
   -6.1346  -13.8638   19.7096 C   0  0  0  0  0  0  0  0  0  0  0  0
  -11.4144  -17.6409   24.3126 N   0  0  0  0  0  0  0  0  0  0  0  0
   -7.4803  -16.3237   23.4757 N   0  0  0  0  0  0  0  0  0  0  0  0
  -11.1130  -17.0331   26.5855 N   0  0  0  0  0  0  0  0  0  0  0  0
   -9.6243  -17.4260   22.9230 O   0  0  0  0  0  0  0  0  0  0  0  0
   -5.5707  -11.5901   16.5586 O   0  5  0  0  0  0  0  0  0  0  0  0
   -5.0378  -11.5565   21.2427 O   0  0  0  0  0  0  0  0  0  0  0  0
   -6.2785  -12.9335   18.6319 O   0  0  0  0  0  0  0  0  0  0  0  0
   -4.4414  -11.1218   18.7935 O   0  0  0  0  0  0  0  0  0  0  0  0
   -2.8806  -12.5822   20.2495 O   0  5  0  0  0  0  0  0  0  0  0  0
   -3.9662  -13.3400   17.5808 O   0  0  0  0  0  0  0  0  0  0  0  0
   -3.0481  -10.0526   20.6509 O   0  0  0  0  0  0  0  0  0  0  0  0
   -6.6775  -16.9062   21.1882 S   0  0  0  0  0  0  0  0  0  0  0  0
   -4.9975  -12.3185   17.8744 P   0  0  2  0  0  0  0  0  0  0  0  0
   -3.7916  -11.4159   20.2339 P   0  0  2  0  0  0  0  0  0  0  0  0
  2 16  2  0  0  0  0
  2  3  1  0  0  0  0
  2 13  1  0  0  0  0
  3  8  2  0  0  0  0
  3  4  1  0  0  0  0
  4 14  1  0  0  0  0
  5  1  1  1  0  0  0
  5 14  1  0  0  0  0
  5 10  1  0  0  0  0
  6  7  1  0  0  0  0
  7 13  1  0  0  0  0
  7 15  2  0  0  0  0
  8 15  1  0  0  0  0
  9 14  1  0  0  0  0
  9 24  1  0  0  0  0
 10 24  1  0  0  0  0
 10 11  1  6  0  0  0
 11 12  1  0  0  0  0
 12 19  1  0  0  0  0
 17 25  1  0  0  0  0
 19 25  1  0  0  0  0
 20 26  1  0  0  0  0
 21 26  1  0  0  0  0
 22 25  2  0  0  0  0
 23 26  2  0  0  0  0
 25 20  1  1  0  0  0
 26 18  1  1  0  0  0
M  CHG  2  17  -1  21  -1
M  END
>  <CHROM.1>
10.94332966,117.96954754,178.94865512,82.53013860,-179.84678839,179.11707388
168.16555074,-82.27304163,-7.01335339,-14.51836057,21.59827209,-2.64133660
-0.81166365,-1.77021947

>  <Name>
ligand

>  <RI>
0

>  <Rbt.Current_Directory>
/home/itssahil/PROJECTS/Mol_Feturizer/New_Systems/rnas/3D2X

>  <Rbt.Executable>
rbdock ($Id: //depot/dev/client3/rdock/2013.1/src/exe/rbdock.cxx#4 $)

>  <Rbt.Library>
libRbt.so (2013.1, Build901 2013/11/27)

>  <Rbt.Parameter_File>
/export/apps/rDock/src/rDock_2013.1_src/data/scripts/dock_solv.prm

>  <Rbt.Receptor>
prm/pocket_docking_3.prm

>  <SCORE>
-19.3774

>  <SCORE.INTER>
-17.7032

>  <SCORE.INTER.CONST>
1

>  <SCORE.INTER.POLAR>
0

>  <SCORE.INTER.ROT>
8

>  <SCORE.INTER.SOLV>
5.98619

>  <SCORE.INTER.VDW>
-22.7308

>  <SCORE.INTER.norm>
-0.680891

>  <SCORE.INTRA>
-1.67427

>  <SCORE.INTRA.DIHEDRAL>
-1.71654

>  <SCORE.INTRA.DIHEDRAL.0>
7.88077

>  <SCORE.INTRA.POLAR>
0

>  <SCORE.INTRA.POLAR.0>
0

>  <SCORE.INTRA.REPUL>
0

>  <SCORE.INTRA.REPUL.0>
0

>  <SCORE.INTRA.SOLV>
-1.02435

>  <SCORE.INTRA.SOLV.lig_0>
-63.2542

>  <SCORE.INTRA.VDW>
-0.30383

>  <SCORE.INTRA.VDW.0>
-3.15072

>  <SCORE.INTRA.norm>
-0.0643952

>  <SCORE.RESTR>
0

>  <SCORE.RESTR.CAVITY>
0

>  <SCORE.RESTR.norm>
0

>  <SCORE.SYSTEM>
0

>  <SCORE.SYSTEM.CONST>
0

>  <SCORE.SYSTEM.DIHEDRAL>
0

>  <SCORE.SYSTEM.SOLV>
0

>  <SCORE.SYSTEM.norm>
0

>  <SCORE.heavy>
26

>  <SCORE.norm>
-0.745286

>  <RMSD>
2.271

$$$$
ligand
 OpenBabel11021811473D
libRbt.so/2013.1/901 2013/11/27
 26 27  0  0  0  0  0  0  0  0999 V2000
   -8.4652  -13.9131   23.3888 C   0  0  0  0  0  0  0  0  0  0  0  0
   -9.8454  -16.9553   26.4524 C   0  0  0  0  0  0  0  0  0  0  0  0
   -9.2967  -16.7507   25.1907 C   0  0  0  0  0  0  0  0  0  0  0  0
   -7.8456  -16.3199   24.9645 C   0  0  0  0  0  0  0  0  0  0  0  0
   -7.8113  -15.1637   22.7937 C   0  0  1  0  0  0  0  0  0  0  0  0
  -13.3704  -18.0616   25.5127 C   0  0  0  0  0  0  0  0  0  0  0  0
  -11.9216  -17.5835   25.4046 C   0  0  0  0  0  0  0  0  0  0  0  0
  -10.1080  -16.9731   24.0827 C   0  0  0  0  0  0  0  0  0  0  0  0
   -6.9422  -17.2648   22.9087 C   0  0  0  0  0  0  0  0  0  0  0  0
   -7.4526  -15.2426   21.4534 C   0  0  2  0  0  0  0  0  0  0  0  0
   -7.5819  -14.2234   20.3185 C   0  0  0  0  0  0  0  0  0  0  0  0
   -6.3181  -13.3818   20.1263 C   0  0  0  0  0  0  0  0  0  0  0  0
  -11.1714  -17.3768   26.5699 N   0  0  0  0  0  0  0  0  0  0  0  0
   -7.5339  -16.2434   23.5299 N   0  0  0  0  0  0  0  0  0  0  0  0
  -11.3603  -17.3721   24.2055 N   0  0  0  0  0  0  0  0  0  0  0  0
   -9.1676  -16.7704   27.4634 O   0  0  0  0  0  0  0  0  0  0  0  0
   -4.2167  -11.4342   19.9843 O   0  5  0  0  0  0  0  0  0  0  0  0
   -6.0702  -10.2105   16.0021 O   0  0  0  0  0  0  0  0  0  0  0  0
   -6.5656  -12.2314   19.3122 O   0  0  0  0  0  0  0  0  0  0  0  0
   -4.7542  -11.7937   17.5203 O   0  0  0  0  0  0  0  0  0  0  0  0
   -4.8292  -12.2336   14.9729 O   0  5  0  0  0  0  0  0  0  0  0  0
   -5.8359   -9.8244   18.7726 O   0  0  0  0  0  0  0  0  0  0  0  0
   -6.9186  -12.5931   16.4198 O   0  0  0  0  0  0  0  0  0  0  0  0
   -6.7988  -16.8404   21.2235 S   0  0  0  0  0  0  0  0  0  0  0  0
   -5.3788  -11.2281   18.8899 P   0  0  2  0  0  0  0  0  0  0  0  0
   -5.5847  -11.7384   16.1453 P   0  0  2  0  0  0  0  0  0  0  0  0
  2 16  2  0  0  0  0
  2  3  1  0  0  0  0
  2 13  1  0  0  0  0
  3  8  2  0  0  0  0
  3  4  1  0  0  0  0
  4 14  1  0  0  0  0
  5  1  1  1  0  0  0
  5 14  1  0  0  0  0
  5 10  1  0  0  0  0
  6  7  1  0  0  0  0
  7 13  1  0  0  0  0
  7 15  2  0  0  0  0
  8 15  1  0  0  0  0
  9 14  1  0  0  0  0
  9 24  1  0  0  0  0
 10 24  1  0  0  0  0
 10 11  1  6  0  0  0
 11 12  1  0  0  0  0
 12 19  1  0  0  0  0
 17 25  1  0  0  0  0
 19 25  1  0  0  0  0
 20 26  1  0  0  0  0
 21 26  1  0  0  0  0
 22 25  2  0  0  0  0
 23 26  2  0  0  0  0
 25 20  1  6  0  0  0
 26 18  1  6  0  0  0
M  CHG  2  17  -1  21  -1
M  END
>  <CHROM.1>
177.38440343,93.93192383,-165.26889391,84.11961199,-176.45478435,-178.26369762
-22.43783339,51.71987537,-7.48818627,-14.29681113,21.14795434,-2.17953496
-0.72244013,-1.39505133

>  <Name>
ligand

>  <RI>
0

>  <Rbt.Current_Directory>
/home/itssahil/PROJECTS/Mol_Feturizer/New_Systems/rnas/3D2X

>  <Rbt.Executable>
rbdock ($Id: //depot/dev/client3/rdock/2013.1/src/exe/rbdock.cxx#4 $)

>  <Rbt.Library>
libRbt.so (2013.1, Build901 2013/11/27)

>  <Rbt.Parameter_File>
/export/apps/rDock/src/rDock_2013.1_src/data/scripts/dock_solv.prm

>  <Rbt.Receptor>
prm/pocket_docking_4.prm

>  <SCORE>
-23.5446

>  <SCORE.INTER>
-22.4192

>  <SCORE.INTER.CONST>
1

>  <SCORE.INTER.POLAR>
0

>  <SCORE.INTER.ROT>
8

>  <SCORE.INTER.SOLV>
13.0735

>  <SCORE.INTER.VDW>
-28.2373

>  <SCORE.INTER.norm>
-0.862279

>  <SCORE.INTRA>
-1.12533

>  <SCORE.INTRA.DIHEDRAL>
-0.529681

>  <SCORE.INTRA.DIHEDRAL.0>
7.88077

>  <SCORE.INTRA.POLAR>
0

>  <SCORE.INTRA.POLAR.0>
0

>  <SCORE.INTRA.REPUL>
0

>  <SCORE.INTRA.REPUL.0>
0

>  <SCORE.INTRA.SOLV>
-1.50774

>  <SCORE.INTRA.SOLV.lig_0>
-63.2542

>  <SCORE.INTRA.VDW>
-0.106618

>  <SCORE.INTRA.VDW.0>
-3.15072

>  <SCORE.INTRA.norm>
-0.0432818

>  <SCORE.RESTR>
0

>  <SCORE.RESTR.CAVITY>
0

>  <SCORE.RESTR.norm>
0

>  <SCORE.SYSTEM>
0

>  <SCORE.SYSTEM.CONST>
0

>  <SCORE.SYSTEM.DIHEDRAL>
0

>  <SCORE.SYSTEM.SOLV>
0

>  <SCORE.SYSTEM.norm>
0

>  <SCORE.heavy>
26

>  <SCORE.norm>
-0.905561

>  <RMSD>
2.279

$$$$
ligand
 OpenBabel11021811473D
libRbt.so/2013.1/901 2013/11/27
 26 27  0  0  0  0  0  0  0  0999 V2000
   -8.3908  -13.9372   23.2745 C   0  0  0  0  0  0  0  0  0  0  0  0
   -9.6829  -16.7755   26.5360 C   0  0  0  0  0  0  0  0  0  0  0  0
   -9.1858  -16.6929   25.2396 C   0  0  0  0  0  0  0  0  0  0  0  0
   -7.7445  -16.2928   24.9154 C   0  0  0  0  0  0  0  0  0  0  0  0
   -7.8025  -15.2287   22.6985 C   0  0  1  0  0  0  0  0  0  0  0  0
  -13.2449  -17.9464   25.8476 C   0  0  0  0  0  0  0  0  0  0  0  0
  -11.8011  -17.4882   25.6367 C   0  0  0  0  0  0  0  0  0  0  0  0
  -10.0419  -17.0139   24.1910 C   0  0  0  0  0  0  0  0  0  0  0  0
   -6.9811  -17.3462   22.8556 C   0  0  0  0  0  0  0  0  0  0  0  0
   -7.5212  -15.3727   21.3452 C   0  0  2  0  0  0  0  0  0  0  0  0
   -7.6880  -14.3981   20.1765 C   0  0  0  0  0  0  0  0  0  0  0  0
   -6.9120  -13.0936   20.3728 C   0  0  0  0  0  0  0  0  0  0  0  0
  -11.0037  -17.1772   26.7461 N   0  0  0  0  0  0  0  0  0  0  0  0
   -7.5115  -16.2843   23.4639 N   0  0  0  0  0  0  0  0  0  0  0  0
  -11.2888  -17.3930   24.4013 N   0  0  0  0  0  0  0  0  0  0  0  0
   -8.9642  -16.5003   27.4970 O   0  0  0  0  0  0  0  0  0  0  0  0
   -4.7252  -11.0751   19.6442 O   0  5  0  0  0  0  0  0  0  0  0  0
   -5.5946  -10.6836   15.1267 O   0  0  0  0  0  0  0  0  0  0  0  0
   -6.9589  -12.2677   19.2052 O   0  0  0  0  0  0  0  0  0  0  0  0
   -6.1162  -10.4108   17.6161 O   0  0  0  0  0  0  0  0  0  0  0  0
   -3.8723  -11.4713   16.8889 O   0  5  0  0  0  0  0  0  0  0  0  0
   -6.9566   -9.8124   19.9724 O   0  0  0  0  0  0  0  0  0  0  0  0
   -6.0787  -12.7441   16.5727 O   0  0  0  0  0  0  0  0  0  0  0  0
   -6.9213  -16.9959   21.1484 S   0  0  0  0  0  0  0  0  0  0  0  0
   -6.2413  -10.8267   19.1644 P   0  0  2  0  0  0  0  0  0  0  0  0
   -5.3113  -11.3312   16.5728 P   0  0  2  0  0  0  0  0  0  0  0  0
  2 16  2  0  0  0  0
  2  3  1  0  0  0  0
  2 13  1  0  0  0  0
  3  8  2  0  0  0  0
  3  4  1  0  0  0  0
  4 14  1  0  0  0  0
  5  1  1  1  0  0  0
  5 14  1  0  0  0  0
  5 10  1  0  0  0  0
  6  7  1  0  0  0  0
  7 13  1  0  0  0  0
  7 15  2  0  0  0  0
  8 15  1  0  0  0  0
  9 14  1  0  0  0  0
  9 24  1  0  0  0  0
 10 24  1  0  0  0  0
 10 11  1  6  0  0  0
 11 12  1  0  0  0  0
 12 19  1  0  0  0  0
 17 25  1  0  0  0  0
 19 25  1  0  0  0  0
 20 26  1  0  0  0  0
 21 26  1  0  0  0  0
 22 25  2  0  0  0  0
 23 26  2  0  0  0  0
 25 20  1  6  0  0  0
 26 18  1  6  0  0  0
M  CHG  2  17  -1  21  -1
M  END
>  <CHROM.1>
-179.62712706,58.26741893,173.29630215,84.90150720,178.88439182,53.10785535
51.85858046,172.40065459,-7.56934376,-14.15514445,21.29910646,2.50908976
-1.03098999,3.07354703

>  <Name>
ligand

>  <RI>
0

>  <Rbt.Current_Directory>
/home/itssahil/PROJECTS/Mol_Feturizer/New_Systems/rnas/3D2X

>  <Rbt.Executable>
rbdock ($Id: //depot/dev/client3/rdock/2013.1/src/exe/rbdock.cxx#4 $)

>  <Rbt.Library>
libRbt.so (2013.1, Build901 2013/11/27)

>  <Rbt.Parameter_File>
/export/apps/rDock/src/rDock_2013.1_src/data/scripts/dock_solv.prm

>  <Rbt.Receptor>
prm/pocket_docking_4.prm

>  <SCORE>
-26.2807

>  <SCORE.INTER>
-24.8866

>  <SCORE.INTER.CONST>
1

>  <SCORE.INTER.POLAR>
0

>  <SCORE.INTER.ROT>
8

>  <SCORE.INTER.SOLV>
10.7713

>  <SCORE.INTER.VDW>
-29.1148

>  <SCORE.INTER.norm>
-0.957176

>  <SCORE.INTRA>
-1.39415

>  <SCORE.INTRA.DIHEDRAL>
-2.80277

>  <SCORE.INTRA.DIHEDRAL.0>
7.88077

>  <SCORE.INTRA.POLAR>
0

>  <SCORE.INTRA.POLAR.0>
0

>  <SCORE.INTRA.REPUL>
0

>  <SCORE.INTRA.REPUL.0>
0

>  <SCORE.INTRA.SOLV>
0.312447

>  <SCORE.INTRA.SOLV.lig_0>
-63.2542

>  <SCORE.INTRA.VDW>
-0.14899

>  <SCORE.INTRA.VDW.0>
-3.15072

>  <SCORE.INTRA.norm>
-0.0536213

>  <SCORE.RESTR>
0

>  <SCORE.RESTR.CAVITY>
0

>  <SCORE.RESTR.norm>
0

>  <SCORE.SYSTEM>
0

>  <SCORE.SYSTEM.CONST>
0

>  <SCORE.SYSTEM.DIHEDRAL>
0

>  <SCORE.SYSTEM.SOLV>
0

>  <SCORE.SYSTEM.norm>
0

>  <SCORE.heavy>
26

>  <SCORE.norm>
-1.0108

>  <RMSD>
2.284

$$$$
ligand
 OpenBabel11021811473D
libRbt.so/2013.1/901 2013/11/27
 26 27  0  0  0  0  0  0  0  0999 V2000
   -8.6528  -14.1606   23.2301 C   0  0  0  0  0  0  0  0  0  0  0  0
   -9.8796  -17.3359   24.1242 C   0  0  0  0  0  0  0  0  0  0  0  0
   -9.0136  -16.8264   25.0861 C   0  0  0  0  0  0  0  0  0  0  0  0
   -7.5711  -16.4129   24.7845 C   0  0  0  0  0  0  0  0  0  0  0  0
   -7.8298  -15.2935   22.6096 C   0  0  1  0  0  0  0  0  0  0  0  0
  -13.0407  -17.8016   26.2034 C   0  0  0  0  0  0  0  0  0  0  0  0
  -11.6034  -17.4666   25.8018 C   0  0  0  0  0  0  0  0  0  0  0  0
   -9.4977  -16.6663   26.3805 C   0  0  0  0  0  0  0  0  0  0  0  0
   -6.6212  -17.2211   22.6919 C   0  0  0  0  0  0  0  0  0  0  0  0
   -7.5261  -15.3287   21.2539 C   0  0  2  0  0  0  0  0  0  0  0  0
   -7.8748  -14.3586   20.1222 C   0  0  0  0  0  0  0  0  0  0  0  0
   -6.6389  -13.7350   19.4695 C   0  0  0  0  0  0  0  0  0  0  0  0
  -11.1907  -17.6617   24.4771 N   0  0  0  0  0  0  0  0  0  0  0  0
   -7.3437  -16.3037   23.3363 N   0  0  0  0  0  0  0  0  0  0  0  0
  -10.7395  -16.9772   26.7028 N   0  0  0  0  0  0  0  0  0  0  0  0
   -9.4971  -17.4970   22.9651 O   0  0  0  0  0  0  0  0  0  0  0  0
   -6.4841  -10.4892   17.3835 O   0  5  0  0  0  0  0  0  0  0  0  0
   -2.8596  -10.9887   16.9559 O   0  0  0  0  0  0  0  0  0  0  0  0
   -6.9941  -12.7497   18.4945 O   0  0  0  0  0  0  0  0  0  0  0  0
   -4.6368  -11.7001   18.6526 O   0  0  0  0  0  0  0  0  0  0  0  0
   -4.1039   -9.1892   18.3364 O   0  5  0  0  0  0  0  0  0  0  0  0
   -5.4748  -12.6653   16.4204 O   0  0  0  0  0  0  0  0  0  0  0  0
   -2.4085  -10.7491   19.4679 O   0  0  0  0  0  0  0  0  0  0  0  0
   -6.6287  -16.7995   20.9998 S   0  0  0  0  0  0  0  0  0  0  0  0
   -5.8734  -11.9531   17.6562 P   0  0  2  0  0  0  0  0  0  0  0  0
   -3.5459  -10.5599   18.3473 P   0  0  2  0  0  0  0  0  0  0  0  0
  2 16  2  0  0  0  0
  2  3  1  0  0  0  0
  2 13  1  0  0  0  0
  3  8  2  0  0  0  0
  3  4  1  0  0  0  0
  4 14  1  0  0  0  0
  5  1  1  1  0  0  0
  5 14  1  0  0  0  0
  5 10  1  0  0  0  0
  6  7  1  0  0  0  0
  7 13  1  0  0  0  0
  7 15  2  0  0  0  0
  8 15  1  0  0  0  0
  9 14  1  0  0  0  0
  9 24  1  0  0  0  0
 10 24  1  0  0  0  0
 10 11  1  6  0  0  0
 11 12  1  0  0  0  0
 12 19  1  0  0  0  0
 17 25  1  0  0  0  0
 19 25  1  0  0  0  0
 20 26  1  0  0  0  0
 21 26  1  0  0  0  0
 22 25  2  0  0  0  0
 23 26  2  0  0  0  0
 25 20  1  1  0  0  0
 26 18  1  6  0  0  0
M  CHG  2  17  -1  21  -1
M  END
>  <CHROM.1>
14.24775194,118.02852770,-175.05528651,73.45897081,-179.53819328,-48.34996234
-147.65176221,-62.12883422,-7.07647219,-14.24295626,21.11673631,-2.20413310
-0.49432921,-1.19256137

>  <Name>
ligand

>  <RI>
0

>  <Rbt.Current_Directory>
/home/itssahil/PROJECTS/Mol_Feturizer/New_Systems/rnas/3D2X

>  <Rbt.Executable>
rbdock ($Id: //depot/dev/client3/rdock/2013.1/src/exe/rbdock.cxx#4 $)

>  <Rbt.Library>
libRbt.so (2013.1, Build901 2013/11/27)

>  <Rbt.Parameter_File>
/export/apps/rDock/src/rDock_2013.1_src/data/scripts/dock_solv.prm

>  <Rbt.Receptor>
prm/pocket_docking_3.prm

>  <SCORE>
-20.822

>  <SCORE.INTER>
-20.0064

>  <SCORE.INTER.CONST>
1

>  <SCORE.INTER.POLAR>
0

>  <SCORE.INTER.ROT>
8

>  <SCORE.INTER.SOLV>
10.422

>  <SCORE.INTER.VDW>
-25.745

>  <SCORE.INTER.norm>
-0.769478

>  <SCORE.INTRA>
-0.832133

>  <SCORE.INTRA.DIHEDRAL>
-1.08417

>  <SCORE.INTRA.DIHEDRAL.0>
7.88077

>  <SCORE.INTRA.POLAR>
0

>  <SCORE.INTRA.POLAR.0>
0

>  <SCORE.INTRA.REPUL>
0

>  <SCORE.INTRA.REPUL.0>
0

>  <SCORE.INTRA.SOLV>
-0.947717

>  <SCORE.INTRA.SOLV.lig_0>
-63.2542

>  <SCORE.INTRA.VDW>
0.18381

>  <SCORE.INTRA.VDW.0>
-3.15072

>  <SCORE.INTRA.norm>
-0.0320051

>  <SCORE.RESTR>
0.016517

>  <SCORE.RESTR.CAVITY>
0.016517

>  <SCORE.RESTR.norm>
0.000635268

>  <SCORE.SYSTEM>
0

>  <SCORE.SYSTEM.CONST>
0

>  <SCORE.SYSTEM.DIHEDRAL>
0

>  <SCORE.SYSTEM.SOLV>
0

>  <SCORE.SYSTEM.norm>
0

>  <SCORE.heavy>
26

>  <SCORE.norm>
-0.800848

>  <RMSD>
2.316

$$$$
ligand
 OpenBabel11021811473D
libRbt.so/2013.1/901 2013/11/27
 26 27  0  0  0  0  0  0  0  0999 V2000
   -7.7885  -16.9024   21.9718 C   0  0  0  0  0  0  0  0  0  0  0  0
  -10.0578  -16.8482   26.4406 C   0  0  0  0  0  0  0  0  0  0  0  0
   -9.5185  -16.8261   25.1586 C   0  0  0  0  0  0  0  0  0  0  0  0
   -8.0716  -16.4252   24.8616 C   0  0  0  0  0  0  0  0  0  0  0  0
   -7.8833  -15.5039   22.5887 C   0  0  1  0  0  0  0  0  0  0  0  0
  -13.5819  -18.0974   25.6972 C   0  0  0  0  0  0  0  0  0  0  0  0
  -12.1368  -17.6326   25.5103 C   0  0  0  0  0  0  0  0  0  0  0  0
  -10.3356  -17.2113   24.1005 C   0  0  0  0  0  0  0  0  0  0  0  0
   -8.1134  -14.0492   24.3249 C   0  0  0  0  0  0  0  0  0  0  0  0
   -7.8517  -14.3510   21.8133 C   0  0  2  0  0  0  0  0  0  0  0  0
   -7.7361  -14.1638   20.2984 C   0  0  0  0  0  0  0  0  0  0  0  0
   -6.3797  -13.5997   19.8692 C   0  0  0  0  0  0  0  0  0  0  0  0
  -11.3804  -17.2550   26.6277 N   0  0  0  0  0  0  0  0  0  0  0  0
   -8.0172  -15.3112   23.9039 N   0  0  0  0  0  0  0  0  0  0  0  0
  -11.5846  -17.5946   24.2891 N   0  0  0  0  0  0  0  0  0  0  0  0
   -9.3746  -16.5149   27.4091 O   0  0  0  0  0  0  0  0  0  0  0  0
   -5.5813  -11.9162   16.4240 O   0  5  0  0  0  0  0  0  0  0  0  0
   -7.0403  -10.5276   18.7974 O   0  0  0  0  0  0  0  0  0  0  0  0
   -6.3732  -13.2274   18.4875 O   0  0  0  0  0  0  0  0  0  0  0  0
   -4.6173  -11.3432   18.7112 O   0  0  0  0  0  0  0  0  0  0  0  0
   -5.1851   -9.1534   19.9645 O   0  5  0  0  0  0  0  0  0  0  0  0
   -3.9842  -13.5745   17.5990 O   0  0  0  0  0  0  0  0  0  0  0  0
   -5.3046   -9.2576   17.4026 O   0  0  0  0  0  0  0  0  0  0  0  0
   -7.9396  -13.0174   22.9300 S   0  0  0  0  0  0  0  0  0  0  0  0
   -5.0688  -12.5853   17.7951 P   0  0  2  0  0  0  0  0  0  0  0  0
   -5.5151  -10.0134   18.8061 P   0  0  2  0  0  0  0  0  0  0  0  0
  2 16  2  0  0  0  0
  2  3  1  0  0  0  0
  2 13  1  0  0  0  0
  3  8  2  0  0  0  0
  3  4  1  0  0  0  0
  4 14  1  0  0  0  0
  5  1  1  6  0  0  0
  5 14  1  0  0  0  0
  5 10  1  0  0  0  0
  6  7  1  0  0  0  0
  7 13  1  0  0  0  0
  7 15  2  0  0  0  0
  8 15  1  0  0  0  0
  9 14  1  0  0  0  0
  9 24  1  0  0  0  0
 10 24  1  0  0  0  0
 10 11  1  1  0  0  0
 11 12  1  0  0  0  0
 12 19  1  0  0  0  0
 17 25  1  0  0  0  0
 19 25  1  0  0  0  0
 20 26  1  0  0  0  0
 21 26  1  0  0  0  0
 22 25  2  0  0  0  0
 23 26  2  0  0  0  0
 25 20  1  1  0  0  0
 26 18  1  1  0  0  0
M  CHG  2  17  -1  21  -1
M  END
>  <CHROM.1>
-123.39027024,-109.05444821,-170.35046023,-94.01422480,179.04626517,43.36755474
-163.46841407,37.84390195,-7.61372398,-13.90698951,21.56665588,-3.10445540
1.05722264,0.63073883

>  <Name>
ligand

>  <RI>
0

>  <Rbt.Current_Directory>
/home/itssahil/PROJECTS/Mol_Feturizer/New_Systems/rnas/3D2X

>  <Rbt.Executable>
rbdock ($Id: //depot/dev/client3/rdock/2013.1/src/exe/rbdock.cxx#4 $)

>  <Rbt.Library>
libRbt.so (2013.1, Build901 2013/11/27)

>  <Rbt.Parameter_File>
/export/apps/rDock/src/rDock_2013.1_src/data/scripts/dock_solv.prm

>  <Rbt.Receptor>
prm/pocket_docking_3.prm

>  <SCORE>
-22.5232

>  <SCORE.INTER>
-20.1531

>  <SCORE.INTER.CONST>
1

>  <SCORE.INTER.POLAR>
0

>  <SCORE.INTER.ROT>
8

>  <SCORE.INTER.SOLV>
10.5658

>  <SCORE.INTER.VDW>
-25.8906

>  <SCORE.INTER.norm>
-0.775119

>  <SCORE.INTRA>
-2.37015

>  <SCORE.INTRA.DIHEDRAL>
-1.46983

>  <SCORE.INTRA.DIHEDRAL.0>
7.88077

>  <SCORE.INTRA.POLAR>
0

>  <SCORE.INTRA.POLAR.0>
0

>  <SCORE.INTRA.REPUL>
0

>  <SCORE.INTRA.REPUL.0>
0

>  <SCORE.INTRA.SOLV>
-1.92063

>  <SCORE.INTRA.SOLV.lig_0>
-63.2542

>  <SCORE.INTRA.VDW>
-0.674912

>  <SCORE.INTRA.VDW.0>
-3.15072

>  <SCORE.INTRA.norm>
-0.0911594

>  <SCORE.RESTR>
0

>  <SCORE.RESTR.CAVITY>
0

>  <SCORE.RESTR.norm>
0

>  <SCORE.SYSTEM>
0

>  <SCORE.SYSTEM.CONST>
0

>  <SCORE.SYSTEM.DIHEDRAL>
0

>  <SCORE.SYSTEM.SOLV>
0

>  <SCORE.SYSTEM.norm>
0

>  <SCORE.heavy>
26

>  <SCORE.norm>
-0.866279

>  <RMSD>
2.316

$$$$
ligand
 OpenBabel11021811473D
libRbt.so/2013.1/901 2013/11/27
 26 27  0  0  0  0  0  0  0  0999 V2000
   -6.9608  -16.8945   22.0448 C   0  0  0  0  0  0  0  0  0  0  0  0
  -10.1132  -17.3054   24.0417 C   0  0  0  0  0  0  0  0  0  0  0  0
   -9.3002  -16.7675   25.0340 C   0  0  0  0  0  0  0  0  0  0  0  0
   -7.8563  -16.3229   24.7889 C   0  0  0  0  0  0  0  0  0  0  0  0
   -7.3853  -15.5014   22.5188 C   0  0  1  0  0  0  0  0  0  0  0  0
  -13.3471  -17.8273   25.9916 C   0  0  0  0  0  0  0  0  0  0  0  0
  -11.9024  -17.4621   25.6471 C   0  0  0  0  0  0  0  0  0  0  0  0
   -9.8417  -16.6078   26.3055 C   0  0  0  0  0  0  0  0  0  0  0  0
   -8.1616  -14.0180   24.0615 C   0  0  0  0  0  0  0  0  0  0  0  0
   -7.3855  -14.4009   21.6701 C   0  0  2  0  0  0  0  0  0  0  0  0
   -7.0153  -14.2753   20.1900 C   0  0  0  0  0  0  0  0  0  0  0  0
   -5.6358  -14.8552   19.8693 C   0  0  0  0  0  0  0  0  0  0  0  0
  -11.4301  -17.6588   24.3427 N   0  0  0  0  0  0  0  0  0  0  0  0
   -7.7939  -15.2663   23.7688 N   0  0  0  0  0  0  0  0  0  0  0  0
  -11.0884  -16.9450   26.5787 N   0  0  0  0  0  0  0  0  0  0  0  0
   -9.6789  -17.4673   22.9011 O   0  0  0  0  0  0  0  0  0  0  0  0
   -2.9803  -12.4159   21.4442 O   0  5  0  0  0  0  0  0  0  0  0  0
   -2.7411  -11.2038   17.0043 O   0  0  0  0  0  0  0  0  0  0  0  0
   -4.6071  -14.2406   20.6514 O   0  0  0  0  0  0  0  0  0  0  0  0
   -3.7297  -12.4466   19.0097 O   0  0  0  0  0  0  0  0  0  0  0  0
   -3.7499   -9.8607   18.9718 O   0  5  0  0  0  0  0  0  0  0  0  0
   -5.4190  -11.8071   20.8411 O   0  0  0  0  0  0  0  0  0  0  0  0
   -1.5465  -11.1428   19.2716 O   0  0  0  0  0  0  0  0  0  0  0  0
   -7.8880  -13.0449   22.6406 S   0  0  0  0  0  0  0  0  0  0  0  0
   -4.2647  -12.6735   20.5091 P   0  0  2  0  0  0  0  0  0  0  0  0
   -3.0004  -11.0778   18.5879 P   0  0  2  0  0  0  0  0  0  0  0  0
  2 16  2  0  0  0  0
  2  3  1  0  0  0  0
  2 13  1  0  0  0  0
  3  8  2  0  0  0  0
  3  4  1  0  0  0  0
  4 14  1  0  0  0  0
  5  1  1  6  0  0  0
  5 14  1  0  0  0  0
  5 10  1  0  0  0  0
  6  7  1  0  0  0  0
  7 13  1  0  0  0  0
  7 15  2  0  0  0  0
  8 15  1  0  0  0  0
  9 14  1  0  0  0  0
  9 24  1  0  0  0  0
 10 24  1  0  0  0  0
 10 11  1  1  0  0  0
 11 12  1  0  0  0  0
 12 19  1  0  0  0  0
 17 25  1  0  0  0  0
 19 25  1  0  0  0  0
 20 26  1  0  0  0  0
 21 26  1  0  0  0  0
 22 25  2  0  0  0  0
 23 26  2  0  0  0  0
 25 20  1  6  0  0  0
 26 18  1  6  0  0  0
M  CHG  2  17  -1  21  -1
M  END
>  <CHROM.1>
59.97188848,-52.08490740,-57.17147980,-104.28726882,-63.58472655,-54.87741766
-174.92382708,-175.31097760,-6.70187808,-14.19937584,21.91424891,-3.04123091
0.82561505,0.60924717

>  <Name>
ligand

>  <RI>
0

>  <Rbt.Current_Directory>
/home/itssahil/PROJECTS/Mol_Feturizer/New_Systems/rnas/3D2X

>  <Rbt.Executable>
rbdock ($Id: //depot/dev/client3/rdock/2013.1/src/exe/rbdock.cxx#4 $)

>  <Rbt.Library>
libRbt.so (2013.1, Build901 2013/11/27)

>  <Rbt.Parameter_File>
/export/apps/rDock/src/rDock_2013.1_src/data/scripts/dock_solv.prm

>  <Rbt.Receptor>
prm/pocket_docking_2.prm

>  <SCORE>
-18.0468

>  <SCORE.INTER>
-17.118

>  <SCORE.INTER.CONST>
1

>  <SCORE.INTER.POLAR>
0

>  <SCORE.INTER.ROT>
8

>  <SCORE.INTER.SOLV>
6.81811

>  <SCORE.INTER.VDW>
-22.618

>  <SCORE.INTER.norm>
-0.658385

>  <SCORE.INTRA>
-0.928782

>  <SCORE.INTRA.DIHEDRAL>
-2.86997

>  <SCORE.INTRA.DIHEDRAL.0>
7.88077

>  <SCORE.INTRA.POLAR>
0

>  <SCORE.INTRA.POLAR.0>
0

>  <SCORE.INTRA.REPUL>
0

>  <SCORE.INTRA.REPUL.0>
0

>  <SCORE.INTRA.SOLV>
2.14181

>  <SCORE.INTRA.SOLV.lig_0>
-63.2542

>  <SCORE.INTRA.VDW>
-0.564705

>  <SCORE.INTRA.VDW.0>
-3.15072

>  <SCORE.INTRA.norm>
-0.0357224

>  <SCORE.RESTR>
0

>  <SCORE.RESTR.CAVITY>
0

>  <SCORE.RESTR.norm>
0

>  <SCORE.SYSTEM>
0

>  <SCORE.SYSTEM.CONST>
0

>  <SCORE.SYSTEM.DIHEDRAL>
0

>  <SCORE.SYSTEM.SOLV>
0

>  <SCORE.SYSTEM.norm>
0

>  <SCORE.heavy>
26

>  <SCORE.norm>
-0.694107

>  <RMSD>
2.325

$$$$
ligand
 OpenBabel11021811473D
libRbt.so/2013.1/901 2013/11/27
 26 27  0  0  0  0  0  0  0  0999 V2000
   -7.1273  -13.4305   24.5349 C   0  0  0  0  0  0  0  0  0  0  0  0
  -10.1140  -17.1680   26.6989 C   0  0  0  0  0  0  0  0  0  0  0  0
   -9.4736  -16.5907   25.6074 C   0  0  0  0  0  0  0  0  0  0  0  0
   -8.0780  -15.9671   25.6843 C   0  0  0  0  0  0  0  0  0  0  0  0
   -7.0132  -14.7767   23.8136 C   0  0  1  0  0  0  0  0  0  0  0  0
  -13.3466  -18.3583   25.0661 C   0  0  0  0  0  0  0  0  0  0  0  0
  -11.9714  -17.7199   25.2677 C   0  0  0  0  0  0  0  0  0  0  0  0
  -10.1323  -16.6051   24.3821 C   0  0  0  0  0  0  0  0  0  0  0  0
   -7.2736  -17.0322   23.6463 C   0  0  0  0  0  0  0  0  0  0  0  0
   -6.4359  -14.8934   22.5548 C   0  0  2  0  0  0  0  0  0  0  0  0
   -5.8121  -13.8401   21.6356 C   0  0  0  0  0  0  0  0  0  0  0  0
   -6.4761  -13.7829   20.2578 C   0  0  0  0  0  0  0  0  0  0  0  0
  -11.3766  -17.7416   26.5362 N   0  0  0  0  0  0  0  0  0  0  0  0
   -7.4469  -15.9173   24.3575 N   0  0  0  0  0  0  0  0  0  0  0  0
  -11.3258  -17.1508   24.2396 N   0  0  0  0  0  0  0  0  0  0  0  0
   -9.5722  -17.1786   27.8044 O   0  0  0  0  0  0  0  0  0  0  0  0
   -7.9765  -12.1007   17.8166 O   0  5  0  0  0  0  0  0  0  0  0  0
   -5.0453   -8.5903   17.4819 O   0  0  0  0  0  0  0  0  0  0  0  0
   -6.1511  -12.5755   19.5621 O   0  0  0  0  0  0  0  0  0  0  0  0
   -5.6657  -11.0717   17.5160 O   0  0  0  0  0  0  0  0  0  0  0  0
   -7.3593   -9.3186   18.3802 O   0  5  0  0  0  0  0  0  0  0  0  0
   -5.9654  -13.6085   17.2136 O   0  0  0  0  0  0  0  0  0  0  0  0
   -5.2283   -9.8397   19.7127 O   0  0  0  0  0  0  0  0  0  0  0  0
   -6.5671  -16.5746   22.1192 S   0  0  0  0  0  0  0  0  0  0  0  0
   -6.4077  -12.4208   17.9798 P   0  0  2  0  0  0  0  0  0  0  0  0
   -5.9277   -9.6787   18.2739 P   0  0  2  0  0  0  0  0  0  0  0  0
  2 16  2  0  0  0  0
  2  3  1  0  0  0  0
  2 13  1  0  0  0  0
  3  8  2  0  0  0  0
  3  4  1  0  0  0  0
  4 14  1  0  0  0  0
  5  1  1  1  0  0  0
  5 14  1  0  0  0  0
  5 10  1  0  0  0  0
  6  7  1  0  0  0  0
  7 13  1  0  0  0  0
  7 15  2  0  0  0  0
  8 15  1  0  0  0  0
  9 14  1  0  0  0  0
  9 24  1  0  0  0  0
 10 24  1  0  0  0  0
 10 11  1  6  0  0  0
 11 12  1  0  0  0  0
 12 19  1  0  0  0  0
 17 25  1  0  0  0  0
 19 25  1  0  0  0  0
 20 26  1  0  0  0  0
 21 26  1  0  0  0  0
 22 25  2  0  0  0  0
 23 26  2  0  0  0  0
 25 20  1  6  0  0  0
 26 18  1  6  0  0  0
M  CHG  2  17  -1  21  -1
M  END
>  <CHROM.1>
157.88593550,-122.79157577,163.62300794,123.13585862,164.62102057,60.00397091
79.63726199,-178.23303559,-7.62746929,-14.04901874,21.72827744,-2.00414406
-0.39440893,-1.03320443

>  <Name>
ligand

>  <RI>
0

>  <Rbt.Current_Directory>
/home/itssahil/PROJECTS/Mol_Feturizer/New_Systems/rnas/3D2X

>  <Rbt.Executable>
rbdock ($Id: //depot/dev/client3/rdock/2013.1/src/exe/rbdock.cxx#4 $)

>  <Rbt.Library>
libRbt.so (2013.1, Build901 2013/11/27)

>  <Rbt.Parameter_File>
/export/apps/rDock/src/rDock_2013.1_src/data/scripts/dock_solv.prm

>  <Rbt.Receptor>
prm/pocket_docking_4.prm

>  <SCORE>
-22.6946

>  <SCORE.INTER>
-22.6586

>  <SCORE.INTER.CONST>
1

>  <SCORE.INTER.POLAR>
0

>  <SCORE.INTER.ROT>
8

>  <SCORE.INTER.SOLV>
16.0526

>  <SCORE.INTER.VDW>
-29.3899

>  <SCORE.INTER.norm>
-0.871484

>  <SCORE.INTRA>
-0.0359762

>  <SCORE.INTRA.DIHEDRAL>
-0.10921

>  <SCORE.INTRA.DIHEDRAL.0>
7.88077

>  <SCORE.INTRA.POLAR>
0

>  <SCORE.INTRA.POLAR.0>
0

>  <SCORE.INTRA.REPUL>
0

>  <SCORE.INTRA.REPUL.0>
0

>  <SCORE.INTRA.SOLV>
-0.112525

>  <SCORE.INTRA.SOLV.lig_0>
-63.2542

>  <SCORE.INTRA.VDW>
0.0748915

>  <SCORE.INTRA.VDW.0>
-3.15072

>  <SCORE.INTRA.norm>
-0.0013837

>  <SCORE.RESTR>
0

>  <SCORE.RESTR.CAVITY>
0

>  <SCORE.RESTR.norm>
0

>  <SCORE.SYSTEM>
0

>  <SCORE.SYSTEM.CONST>
0

>  <SCORE.SYSTEM.DIHEDRAL>
0

>  <SCORE.SYSTEM.SOLV>
0

>  <SCORE.SYSTEM.norm>
0

>  <SCORE.heavy>
26

>  <SCORE.norm>
-0.872868

>  <RMSD>
2.339

$$$$
ligand
 OpenBabel11021811473D
libRbt.so/2013.1/901 2013/11/27
 26 27  0  0  0  0  0  0  0  0999 V2000
   -6.8359  -17.1031   22.3218 C   0  0  0  0  0  0  0  0  0  0  0  0
  -10.1438  -17.1796   24.1116 C   0  0  0  0  0  0  0  0  0  0  0  0
   -9.3299  -16.7267   25.1446 C   0  0  0  0  0  0  0  0  0  0  0  0
   -7.8893  -16.2542   24.9350 C   0  0  0  0  0  0  0  0  0  0  0  0
   -7.3188  -15.6790   22.6125 C   0  0  1  0  0  0  0  0  0  0  0  0
  -13.3674  -17.8894   26.0186 C   0  0  0  0  0  0  0  0  0  0  0  0
  -11.9260  -17.4872   25.7028 C   0  0  0  0  0  0  0  0  0  0  0  0
   -9.8674  -16.6827   26.4271 C   0  0  0  0  0  0  0  0  0  0  0  0
   -8.2119  -14.0559   23.9357 C   0  0  0  0  0  0  0  0  0  0  0  0
   -7.3010  -14.6814   21.6451 C   0  0  2  0  0  0  0  0  0  0  0  0
   -6.8561  -14.7117   20.1807 C   0  0  0  0  0  0  0  0  0  0  0  0
   -5.3448  -14.8926   20.0204 C   0  0  0  0  0  0  0  0  0  0  0  0
  -11.4577  -17.5656   24.3845 N   0  0  0  0  0  0  0  0  0  0  0  0
   -7.7988  -15.3174   23.8056 N   0  0  0  0  0  0  0  0  0  0  0  0
  -11.1113  -17.0496   26.6736 N   0  0  0  0  0  0  0  0  0  0  0  0
   -9.7130  -17.2380   22.9597 O   0  0  0  0  0  0  0  0  0  0  0  0
   -2.9543  -13.3325   18.5604 O   0  5  0  0  0  0  0  0  0  0  0  0
   -4.9461  -11.1681   21.1784 O   0  0  0  0  0  0  0  0  0  0  0  0
   -4.6222  -13.7430   20.4720 O   0  0  0  0  0  0  0  0  0  0  0  0
   -2.6145  -12.1453   20.7884 O   0  0  0  0  0  0  0  0  0  0  0  0
   -2.8913   -9.5971   21.1331 O   0  5  0  0  0  0  0  0  0  0  0  0
   -2.2346  -14.6852   20.6422 O   0  0  0  0  0  0  0  0  0  0  0  0
   -3.7148  -10.7177   18.9757 O   0  0  0  0  0  0  0  0  0  0  0  0
   -7.8872  -13.2407   22.4288 S   0  0  0  0  0  0  0  0  0  0  0  0
   -3.0554  -13.5544   20.1513 P   0  0  2  0  0  0  0  0  0  0  0  0
   -3.4987  -10.8216   20.5656 P   0  0  2  0  0  0  0  0  0  0  0  0
  2 16  2  0  0  0  0
  2  3  1  0  0  0  0
  2 13  1  0  0  0  0
  3  8  2  0  0  0  0
  3  4  1  0  0  0  0
  4 14  1  0  0  0  0
  5  1  1  6  0  0  0
  5 14  1  0  0  0  0
  5 10  1  0  0  0  0
  6  7  1  0  0  0  0
  7 13  1  0  0  0  0
  7 15  2  0  0  0  0
  8 15  1  0  0  0  0
  9 14  1  0  0  0  0
  9 24  1  0  0  0  0
 10 24  1  0  0  0  0
 10 11  1  1  0  0  0
 11 12  1  0  0  0  0
 12 19  1  0  0  0  0
 17 25  1  0  0  0  0
 19 25  1  0  0  0  0
 20 26  1  0  0  0  0
 21 26  1  0  0  0  0
 22 25  2  0  0  0  0
 23 26  2  0  0  0  0
 25 20  1  1  0  0  0
 26 18  1  1  0  0  0
M  CHG  2  17  -1  21  -1
M  END
>  <CHROM.1>
47.67409229,-68.53973460,-68.36174929,-103.51598533,-167.82595835,65.25458710
67.58026766,59.37639386,-6.60486069,-14.37566340,22.22804154,-2.75465118
0.67446925,0.21475137

>  <Name>
ligand

>  <RI>
0

>  <Rbt.Current_Directory>
/home/itssahil/PROJECTS/Mol_Feturizer/New_Systems/rnas/3D2X

>  <Rbt.Executable>
rbdock ($Id: //depot/dev/client3/rdock/2013.1/src/exe/rbdock.cxx#4 $)

>  <Rbt.Library>
libRbt.so (2013.1, Build901 2013/11/27)

>  <Rbt.Parameter_File>
/export/apps/rDock/src/rDock_2013.1_src/data/scripts/dock_solv.prm

>  <Rbt.Receptor>
prm/pocket_docking_3.prm

>  <SCORE>
-18.3757

>  <SCORE.INTER>
-15.8228

>  <SCORE.INTER.CONST>
1

>  <SCORE.INTER.POLAR>
0

>  <SCORE.INTER.ROT>
8

>  <SCORE.INTER.SOLV>
7.96949

>  <SCORE.INTER.VDW>
-22.1383

>  <SCORE.INTER.norm>
-0.608567

>  <SCORE.INTRA>
-2.55296

>  <SCORE.INTRA.DIHEDRAL>
-2.10492

>  <SCORE.INTRA.DIHEDRAL.0>
7.88077

>  <SCORE.INTRA.POLAR>
0

>  <SCORE.INTRA.POLAR.0>
0

>  <SCORE.INTRA.REPUL>
0

>  <SCORE.INTRA.REPUL.0>
0

>  <SCORE.INTRA.SOLV>
-1.09031

>  <SCORE.INTRA.SOLV.lig_0>
-63.2542

>  <SCORE.INTRA.VDW>
-0.955339

>  <SCORE.INTRA.VDW.0>
-3.15072

>  <SCORE.INTRA.norm>
-0.0981906

>  <SCORE.RESTR>
0

>  <SCORE.RESTR.CAVITY>
0

>  <SCORE.RESTR.norm>
0

>  <SCORE.SYSTEM>
0

>  <SCORE.SYSTEM.CONST>
0

>  <SCORE.SYSTEM.DIHEDRAL>
0

>  <SCORE.SYSTEM.SOLV>
0

>  <SCORE.SYSTEM.norm>
0

>  <SCORE.heavy>
26

>  <SCORE.norm>
-0.706758

>  <RMSD>
2.342

$$$$
ligand
 OpenBabel11021811473D
libRbt.so/2013.1/901 2013/11/27
 26 27  0  0  0  0  0  0  0  0999 V2000
   -6.4396  -17.4168   23.4476 C   0  0  0  0  0  0  0  0  0  0  0  0
  -10.6327  -17.2514   24.1675 C   0  0  0  0  0  0  0  0  0  0  0  0
   -9.9309  -16.8137   25.2858 C   0  0  0  0  0  0  0  0  0  0  0  0
   -8.4950  -16.2871   25.2246 C   0  0  0  0  0  0  0  0  0  0  0  0
   -7.2736  -16.1823   23.0922 C   0  0  1  0  0  0  0  0  0  0  0  0
  -13.9863  -18.1392   25.7480 C   0  0  0  0  0  0  0  0  0  0  0  0
  -12.5377  -17.6787   25.5787 C   0  0  0  0  0  0  0  0  0  0  0  0
  -10.5818  -16.8376   26.5150 C   0  0  0  0  0  0  0  0  0  0  0  0
   -8.8863  -14.6247   23.4872 C   0  0  0  0  0  0  0  0  0  0  0  0
   -7.1202  -15.5099   21.8857 C   0  0  2  0  0  0  0  0  0  0  0  0
   -6.1920  -15.7786   20.6983 C   0  0  0  0  0  0  0  0  0  0  0  0
   -6.5919  -15.0021   19.4415 C   0  0  0  0  0  0  0  0  0  0  0  0
  -11.9511  -17.6899   24.3063 N   0  0  0  0  0  0  0  0  0  0  0  0
   -8.2058  -15.6901   23.9127 N   0  0  0  0  0  0  0  0  0  0  0  0
  -11.8289  -17.2538   26.6345 N   0  0  0  0  0  0  0  0  0  0  0  0
  -10.0991  -17.2504   23.0580 O   0  0  0  0  0  0  0  0  0  0  0  0
   -2.9398  -14.5084   19.1099 O   0  5  0  0  0  0  0  0  0  0  0  0
   -1.6477  -12.1546   18.4036 O   0  0  0  0  0  0  0  0  0  0  0  0
   -5.4573  -14.6906   18.6270 O   0  0  0  0  0  0  0  0  0  0  0  0
   -4.1360  -12.5660   17.9763 O   0  0  0  0  0  0  0  0  0  0  0  0
   -2.9868  -10.4934   16.9409 O   0  5  0  0  0  0  0  0  0  0  0  0
   -4.6247  -13.0772   20.4494 O   0  0  0  0  0  0  0  0  0  0  0  0
   -3.4060  -10.6240   19.4698 O   0  0  0  0  0  0  0  0  0  0  0  0
   -8.2255  -14.1650   21.9404 S   0  0  0  0  0  0  0  0  0  0  0  0
   -4.3151  -13.6726   19.1292 P   0  0  2  0  0  0  0  0  0  0  0  0
   -3.0384  -11.3994   18.1100 P   0  0  2  0  0  0  0  0  0  0  0  0
  2 16  2  0  0  0  0
  2  3  1  0  0  0  0
  2 13  1  0  0  0  0
  3  8  2  0  0  0  0
  3  4  1  0  0  0  0
  4 14  1  0  0  0  0
  5  1  1  6  0  0  0
  5 14  1  0  0  0  0
  5 10  1  0  0  0  0
  6  7  1  0  0  0  0
  7 13  1  0  0  0  0
  7 15  2  0  0  0  0
  8 15  1  0  0  0  0
  9 14  1  0  0  0  0
  9 24  1  0  0  0  0
 10 24  1  0  0  0  0
 10 11  1  1  0  0  0
 11 12  1  0  0  0  0
 12 19  1  0  0  0  0
 17 25  1  0  0  0  0
 19 25  1  0  0  0  0
 20 26  1  0  0  0  0
 21 26  1  0  0  0  0
 22 25  2  0  0  0  0
 23 26  2  0  0  0  0
 25 20  1  6  0  0  0
 26 18  1  1  0  0  0
M  CHG  2  17  -1  21  -1
M  END
>  <CHROM.1>
28.01481947,165.76392667,149.83701029,-117.15675223,-66.60595885,-66.04682380
121.46625757,53.28026511,-6.93418504,-14.75435021,21.57828376,-2.49151213
0.54488239,-0.33455624

>  <Name>
ligand

>  <RI>
0

>  <Rbt.Current_Directory>
/home/itssahil/PROJECTS/Mol_Feturizer/New_Systems/rnas/3D2X

>  <Rbt.Executable>
rbdock ($Id: //depot/dev/client3/rdock/2013.1/src/exe/rbdock.cxx#4 $)

>  <Rbt.Library>
libRbt.so (2013.1, Build901 2013/11/27)

>  <Rbt.Parameter_File>
/export/apps/rDock/src/rDock_2013.1_src/data/scripts/dock_solv.prm

>  <Rbt.Receptor>
prm/pocket_docking_2.prm

>  <SCORE>
-15.2797

>  <SCORE.INTER>
-17.2696

>  <SCORE.INTER.CONST>
1

>  <SCORE.INTER.POLAR>
0

>  <SCORE.INTER.ROT>
8

>  <SCORE.INTER.SOLV>
11.3717

>  <SCORE.INTER.VDW>
-24.237

>  <SCORE.INTER.norm>
-0.664216

>  <SCORE.INTRA>
1.98988

>  <SCORE.INTRA.DIHEDRAL>
2.17727

>  <SCORE.INTRA.DIHEDRAL.0>
7.88077

>  <SCORE.INTRA.POLAR>
0

>  <SCORE.INTRA.POLAR.0>
0

>  <SCORE.INTRA.REPUL>
0

>  <SCORE.INTRA.REPUL.0>
0

>  <SCORE.INTRA.SOLV>
0.925922

>  <SCORE.INTRA.SOLV.lig_0>
-63.2542

>  <SCORE.INTRA.VDW>
0.438285

>  <SCORE.INTRA.VDW.0>
-3.15072

>  <SCORE.INTRA.norm>
0.076534

>  <SCORE.RESTR>
0

>  <SCORE.RESTR.CAVITY>
0

>  <SCORE.RESTR.norm>
0

>  <SCORE.SYSTEM>
0

>  <SCORE.SYSTEM.CONST>
0

>  <SCORE.SYSTEM.DIHEDRAL>
0

>  <SCORE.SYSTEM.SOLV>
0

>  <SCORE.SYSTEM.norm>
0

>  <SCORE.heavy>
26

>  <SCORE.norm>
-0.587682

>  <RMSD>
2.346

$$$$
ligand
 OpenBabel11021811473D
libRbt.so/2013.1/901 2013/11/27
 26 27  0  0  0  0  0  0  0  0999 V2000
   -6.3577  -17.5503   23.1748 C   0  0  0  0  0  0  0  0  0  0  0  0
  -10.5207  -16.6730   26.3674 C   0  0  0  0  0  0  0  0  0  0  0  0
   -9.9543  -16.7904   25.1024 C   0  0  0  0  0  0  0  0  0  0  0  0
   -8.5199  -16.3645   24.7804 C   0  0  0  0  0  0  0  0  0  0  0  0
   -7.3916  -16.5747   22.6048 C   0  0  1  0  0  0  0  0  0  0  0  0
  -13.9695  -18.1681   25.7326 C   0  0  0  0  0  0  0  0  0  0  0  0
  -12.5422  -17.6650   25.5115 C   0  0  0  0  0  0  0  0  0  0  0  0
  -10.7299  -17.3451   24.0893 C   0  0  0  0  0  0  0  0  0  0  0  0
   -9.2255  -15.2326   22.7418 C   0  0  0  0  0  0  0  0  0  0  0  0
   -7.3837  -16.1867   21.2703 C   0  0  2  0  0  0  0  0  0  0  0  0
   -6.4575  -16.5800   20.1167 C   0  0  0  0  0  0  0  0  0  0  0  0
   -5.7354  -15.3814   19.4969 C   0  0  0  0  0  0  0  0  0  0  0  0
  -11.8282  -17.1130   26.5833 N   0  0  0  0  0  0  0  0  0  0  0  0
   -8.3686  -16.0528   23.3517 N   0  0  0  0  0  0  0  0  0  0  0  0
  -11.9649  -17.7583   24.3049 N   0  0  0  0  0  0  0  0  0  0  0  0
   -9.8746  -16.1874   27.2961 O   0  0  0  0  0  0  0  0  0  0  0  0
   -3.4167  -12.8386   21.3988 O   0  5  0  0  0  0  0  0  0  0  0  0
   -5.2023  -13.7192   17.0904 O   0  0  0  0  0  0  0  0  0  0  0  0
   -4.9591  -14.6704   20.4662 O   0  0  0  0  0  0  0  0  0  0  0  0
   -3.4372  -13.2952   18.8927 O   0  0  0  0  0  0  0  0  0  0  0  0
   -4.2010  -11.3502   17.3688 O   0  5  0  0  0  0  0  0  0  0  0  0
   -5.4881  -12.1982   19.9915 O   0  0  0  0  0  0  0  0  0  0  0  0
   -2.7695  -13.2605   16.4254 O   0  0  0  0  0  0  0  0  0  0  0  0
   -8.6918  -15.0509   21.0917 S   0  0  0  0  0  0  0  0  0  0  0  0
   -4.4018  -13.1880   20.1749 P   0  0  2  0  0  0  0  0  0  0  0  0
   -3.9270  -12.8027   17.4432 P   0  0  2  0  0  0  0  0  0  0  0  0
  2 16  2  0  0  0  0
  2  3  1  0  0  0  0
  2 13  1  0  0  0  0
  3  8  2  0  0  0  0
  3  4  1  0  0  0  0
  4 14  1  0  0  0  0
  5  1  1  6  0  0  0
  5 14  1  0  0  0  0
  5 10  1  0  0  0  0
  6  7  1  0  0  0  0
  7 13  1  0  0  0  0
  7 15  2  0  0  0  0
  8 15  1  0  0  0  0
  9 14  1  0  0  0  0
  9 24  1  0  0  0  0
 10 24  1  0  0  0  0
 10 11  1  1  0  0  0
 11 12  1  0  0  0  0
 12 19  1  0  0  0  0
 17 25  1  0  0  0  0
 19 25  1  0  0  0  0
 20 26  1  0  0  0  0
 21 26  1  0  0  0  0
 22 25  2  0  0  0  0
 23 26  2  0  0  0  0
 25 20  1  6  0  0  0
 26 18  1  6  0  0  0
M  CHG  2  17  -1  21  -1
M  END
>  <CHROM.1>
-155.62724646,-120.68135985,57.92203381,-129.53557618,-164.71275623,-144.53646326
-171.89981588,-61.11584545,-7.20173135,-15.07401509,21.59823610,-2.39009226
-0.46240140,-1.48859819

>  <Name>
ligand

>  <RI>
0

>  <Rbt.Current_Directory>
/home/itssahil/PROJECTS/Mol_Feturizer/New_Systems/rnas/3D2X

>  <Rbt.Executable>
rbdock ($Id: //depot/dev/client3/rdock/2013.1/src/exe/rbdock.cxx#4 $)

>  <Rbt.Library>
libRbt.so (2013.1, Build901 2013/11/27)

>  <Rbt.Parameter_File>
/export/apps/rDock/src/rDock_2013.1_src/data/scripts/dock_solv.prm

>  <Rbt.Receptor>
prm/pocket_docking_3.prm

>  <SCORE>
-21.6634

>  <SCORE.INTER>
-20.3902

>  <SCORE.INTER.CONST>
1

>  <SCORE.INTER.POLAR>
0

>  <SCORE.INTER.ROT>
8

>  <SCORE.INTER.SOLV>
9.11221

>  <SCORE.INTER.VDW>
-25.5642

>  <SCORE.INTER.norm>
-0.784238

>  <SCORE.INTRA>
-1.27316

>  <SCORE.INTRA.DIHEDRAL>
0.192883

>  <SCORE.INTRA.DIHEDRAL.0>
7.88077

>  <SCORE.INTRA.POLAR>
0

>  <SCORE.INTRA.POLAR.0>
0

>  <SCORE.INTRA.REPUL>
0

>  <SCORE.INTRA.REPUL.0>
0

>  <SCORE.INTRA.SOLV>
-2.26194

>  <SCORE.INTRA.SOLV.lig_0>
-63.2542

>  <SCORE.INTRA.VDW>
-0.238633

>  <SCORE.INTRA.VDW.0>
-3.15072

>  <SCORE.INTRA.norm>
-0.0489678

>  <SCORE.RESTR>
0

>  <SCORE.RESTR.CAVITY>
0

>  <SCORE.RESTR.norm>
0

>  <SCORE.SYSTEM>
0

>  <SCORE.SYSTEM.CONST>
0

>  <SCORE.SYSTEM.DIHEDRAL>
0

>  <SCORE.SYSTEM.SOLV>
0

>  <SCORE.SYSTEM.norm>
0

>  <SCORE.heavy>
26

>  <SCORE.norm>
-0.833206

>  <RMSD>
2.348

$$$$
ligand
 OpenBabel11021811473D
libRbt.so/2013.1/901 2013/11/27
 26 27  0  0  0  0  0  0  0  0999 V2000
   -7.2218  -13.5478   23.3762 C   0  0  0  0  0  0  0  0  0  0  0  0
   -9.8759  -16.6978   26.3161 C   0  0  0  0  0  0  0  0  0  0  0  0
   -9.2813  -16.5302   25.0699 C   0  0  0  0  0  0  0  0  0  0  0  0
   -7.8599  -15.9945   24.8813 C   0  0  0  0  0  0  0  0  0  0  0  0
   -7.1685  -14.9507   22.7641 C   0  0  1  0  0  0  0  0  0  0  0  0
  -13.2470  -18.1550   25.2940 C   0  0  0  0  0  0  0  0  0  0  0  0
  -11.8379  -17.5649   25.2199 C   0  0  0  0  0  0  0  0  0  0  0  0
  -10.0138  -16.8915   23.9437 C   0  0  0  0  0  0  0  0  0  0  0  0
   -7.3539  -17.2187   22.8367 C   0  0  0  0  0  0  0  0  0  0  0  0
   -6.8003  -15.1658   21.4414 C   0  0  2  0  0  0  0  0  0  0  0  0
   -6.3820  -14.1838   20.3441 C   0  0  0  0  0  0  0  0  0  0  0  0
   -7.5699  -13.6366   19.5493 C   0  0  0  0  0  0  0  0  0  0  0  0
  -11.1678  -17.2207   26.4014 N   0  0  0  0  0  0  0  0  0  0  0  0
   -7.4572  -16.0486   23.4686 N   0  0  0  0  0  0  0  0  0  0  0  0
  -11.2345  -17.3854   24.0361 N   0  0  0  0  0  0  0  0  0  0  0  0
   -9.2681  -16.3912   27.3420 O   0  0  0  0  0  0  0  0  0  0  0  0
   -4.9091  -11.8788   19.0938 O   0  5  0  0  0  0  0  0  0  0  0  0
   -5.1157  -11.0949   14.6094 O   0  0  0  0  0  0  0  0  0  0  0  0
   -7.1451  -12.9266   18.3817 O   0  0  0  0  0  0  0  0  0  0  0  0
   -6.0643  -11.0391   16.9844 O   0  0  0  0  0  0  0  0  0  0  0  0
   -3.8992  -12.3694   16.5036 O   0  5  0  0  0  0  0  0  0  0  0  0
   -7.0982  -10.5170   19.2811 O   0  0  0  0  0  0  0  0  0  0  0  0
   -6.1629  -13.2023   15.6259 O   0  0  0  0  0  0  0  0  0  0  0  0
   -6.9274  -16.8830   21.1796 S   0  0  0  0  0  0  0  0  0  0  0  0
   -6.3581  -11.5257   18.4886 P   0  0  2  0  0  0  0  0  0  0  0  0
   -5.2142  -11.9503   15.9692 P   0  0  2  0  0  0  0  0  0  0  0  0
  2 16  2  0  0  0  0
  2  3  1  0  0  0  0
  2 13  1  0  0  0  0
  3  8  2  0  0  0  0
  3  4  1  0  0  0  0
  4 14  1  0  0  0  0
  5  1  1  1  0  0  0
  5 14  1  0  0  0  0
  5 10  1  0  0  0  0
  6  7  1  0  0  0  0
  7 13  1  0  0  0  0
  7 15  2  0  0  0  0
  8 15  1  0  0  0  0
  9 14  1  0  0  0  0
  9 24  1  0  0  0  0
 10 24  1  0  0  0  0
 10 11  1  6  0  0  0
 11 12  1  0  0  0  0
 12 19  1  0  0  0  0
 17 25  1  0  0  0  0
 19 25  1  0  0  0  0
 20 26  1  0  0  0  0
 21 26  1  0  0  0  0
 22 25  2  0  0  0  0
 23 26  2  0  0  0  0
 25 20  1  6  0  0  0
 26 18  1  6  0  0  0
M  CHG  2  17  -1  21  -1
M  END
>  <CHROM.1>
174.53560323,-88.19153083,-169.06253214,117.22324657,-68.01309225,53.41872931
69.16593652,-178.40062135,-7.50909361,-14.37545891,20.93946997,-2.27540729
-0.86488195,-1.59359900

>  <Name>
ligand

>  <RI>
0

>  <Rbt.Current_Directory>
/home/itssahil/PROJECTS/Mol_Feturizer/New_Systems/rnas/3D2X

>  <Rbt.Executable>
rbdock ($Id: //depot/dev/client3/rdock/2013.1/src/exe/rbdock.cxx#4 $)

>  <Rbt.Library>
libRbt.so (2013.1, Build901 2013/11/27)

>  <Rbt.Parameter_File>
/export/apps/rDock/src/rDock_2013.1_src/data/scripts/dock_solv.prm

>  <Rbt.Receptor>
prm/pocket_docking_6.prm

>  <SCORE>
-23.7606

>  <SCORE.INTER>
-23.3697

>  <SCORE.INTER.CONST>
1

>  <SCORE.INTER.POLAR>
0

>  <SCORE.INTER.ROT>
8

>  <SCORE.INTER.SOLV>
10.6174

>  <SCORE.INTER.VDW>
-28.0523

>  <SCORE.INTER.norm>
-0.898836

>  <SCORE.INTRA>
-0.390907

>  <SCORE.INTRA.DIHEDRAL>
-2.17443

>  <SCORE.INTRA.DIHEDRAL.0>
7.88077

>  <SCORE.INTRA.POLAR>
0

>  <SCORE.INTRA.POLAR.0>
0

>  <SCORE.INTRA.REPUL>
0

>  <SCORE.INTRA.REPUL.0>
0

>  <SCORE.INTRA.SOLV>
1.0621

>  <SCORE.INTRA.SOLV.lig_0>
-63.2542

>  <SCORE.INTRA.VDW>
0.165258

>  <SCORE.INTRA.VDW.0>
-3.15072

>  <SCORE.INTRA.norm>
-0.0150349

>  <SCORE.RESTR>
0

>  <SCORE.RESTR.CAVITY>
0

>  <SCORE.RESTR.norm>
0

>  <SCORE.SYSTEM>
0

>  <SCORE.SYSTEM.CONST>
0

>  <SCORE.SYSTEM.DIHEDRAL>
0

>  <SCORE.SYSTEM.SOLV>
0

>  <SCORE.SYSTEM.norm>
0

>  <SCORE.heavy>
26

>  <SCORE.norm>
-0.913871

>  <RMSD>
2.350

$$$$
ligand
 OpenBabel11021811473D
libRbt.so/2013.1/901 2013/11/27
 26 27  0  0  0  0  0  0  0  0999 V2000
   -6.6495  -14.0527   25.5817 C   0  0  0  0  0  0  0  0  0  0  0  0
  -10.1107  -16.7554   26.4414 C   0  0  0  0  0  0  0  0  0  0  0  0
   -9.5311  -16.8805   25.1832 C   0  0  0  0  0  0  0  0  0  0  0  0
   -8.0679  -16.5372   24.8933 C   0  0  0  0  0  0  0  0  0  0  0  0
   -7.3308  -14.2862   24.2301 C   0  0  1  0  0  0  0  0  0  0  0  0
  -13.6335  -18.0206   25.7191 C   0  0  0  0  0  0  0  0  0  0  0  0
  -12.1745  -17.6020   25.5318 C   0  0  0  0  0  0  0  0  0  0  0  0
  -10.3218  -17.3643   24.1458 C   0  0  0  0  0  0  0  0  0  0  0  0
   -8.5007  -15.5249   22.7201 C   0  0  0  0  0  0  0  0  0  0  0  0
   -7.3158  -13.3310   23.2208 C   0  0  2  0  0  0  0  0  0  0  0  0
   -6.6830  -11.9382   23.1669 C   0  0  0  0  0  0  0  0  0  0  0  0
   -6.7065  -11.3265   21.7642 C   0  0  0  0  0  0  0  0  0  0  0  0
  -11.4463  -17.1183   26.6268 N   0  0  0  0  0  0  0  0  0  0  0  0
   -7.9647  -15.4252   23.9374 N   0  0  0  0  0  0  0  0  0  0  0  0
  -11.5834  -17.7049   24.3327 N   0  0  0  0  0  0  0  0  0  0  0  0
   -9.4519  -16.3305   27.3908 O   0  0  0  0  0  0  0  0  0  0  0  0
   -7.3374  -11.5102   18.6917 O   0  5  0  0  0  0  0  0  0  0  0  0
   -3.9469  -10.0115   17.1029 O   0  0  0  0  0  0  0  0  0  0  0  0
   -6.0371  -12.1583   20.8115 O   0  0  0  0  0  0  0  0  0  0  0  0
   -5.2300  -10.2177   19.3062 O   0  0  0  0  0  0  0  0  0  0  0  0
   -6.4059   -9.2184   17.2308 O   0  5  0  0  0  0  0  0  0  0  0  0
   -5.0261  -12.6512   18.4981 O   0  0  0  0  0  0  0  0  0  0  0  0
   -4.5569   -7.9097   18.4376 O   0  0  0  0  0  0  0  0  0  0  0  0
   -8.2407  -14.0042   21.9075 S   0  0  0  0  0  0  0  0  0  0  0  0
   -5.8510  -11.7008   19.2788 P   0  0  2  0  0  0  0  0  0  0  0  0
   -5.1267   -9.3372   17.9656 P   0  0  2  0  0  0  0  0  0  0  0  0
  2 16  2  0  0  0  0
  2  3  1  0  0  0  0
  2 13  1  0  0  0  0
  3  8  2  0  0  0  0
  3  4  1  0  0  0  0
  4 14  1  0  0  0  0
  5  1  1  6  0  0  0
  5 14  1  0  0  0  0
  5 10  1  0  0  0  0
  6  7  1  0  0  0  0
  7 13  1  0  0  0  0
  7 15  2  0  0  0  0
  8 15  1  0  0  0  0
  9 14  1  0  0  0  0
  9 24  1  0  0  0  0
 10 24  1  0  0  0  0
 10 11  1  1  0  0  0
 11 12  1  0  0  0  0
 12 19  1  0  0  0  0
 17 25  1  0  0  0  0
 19 25  1  0  0  0  0
 20 26  1  0  0  0  0
 21 26  1  0  0  0  0
 22 25  2  0  0  0  0
 23 26  2  0  0  0  0
 25 20  1  6  0  0  0
 26 18  1  6  0  0  0
M  CHG  2  17  -1  21  -1
M  END
>  <CHROM.1>
-116.81806402,169.91764515,-57.74895049,121.39712391,-176.55088012,-57.87896687
-60.70069351,-72.45908167,-7.60560992,-13.38999242,21.97430906,-2.19011068
-0.63507466,-1.20859359

>  <Name>
ligand

>  <RI>
0

>  <Rbt.Current_Directory>
/home/itssahil/PROJECTS/Mol_Feturizer/New_Systems/rnas/3D2X

>  <Rbt.Executable>
rbdock ($Id: //depot/dev/client3/rdock/2013.1/src/exe/rbdock.cxx#4 $)

>  <Rbt.Library>
libRbt.so (2013.1, Build901 2013/11/27)

>  <Rbt.Parameter_File>
/export/apps/rDock/src/rDock_2013.1_src/data/scripts/dock_solv.prm

>  <Rbt.Receptor>
prm/pocket_docking_4.prm

>  <SCORE>
-21.1202

>  <SCORE.INTER>
-19.1508

>  <SCORE.INTER.CONST>
1

>  <SCORE.INTER.POLAR>
0

>  <SCORE.INTER.ROT>
8

>  <SCORE.INTER.SOLV>
18.3871

>  <SCORE.INTER.VDW>
-27.8296

>  <SCORE.INTER.norm>
-0.736569

>  <SCORE.INTRA>
-1.96938

>  <SCORE.INTRA.DIHEDRAL>
-2.96787

>  <SCORE.INTRA.DIHEDRAL.0>
7.88077

>  <SCORE.INTRA.POLAR>
0

>  <SCORE.INTRA.POLAR.0>
0

>  <SCORE.INTRA.REPUL>
0

>  <SCORE.INTRA.REPUL.0>
0

>  <SCORE.INTRA.SOLV>
-1.23779

>  <SCORE.INTRA.SOLV.lig_0>
-63.2542

>  <SCORE.INTRA.VDW>
0.133446

>  <SCORE.INTRA.VDW.0>
-3.15072

>  <SCORE.INTRA.norm>
-0.0757454

>  <SCORE.RESTR>
0

>  <SCORE.RESTR.CAVITY>
0

>  <SCORE.RESTR.norm>
0

>  <SCORE.SYSTEM>
0

>  <SCORE.SYSTEM.CONST>
0

>  <SCORE.SYSTEM.DIHEDRAL>
0

>  <SCORE.SYSTEM.SOLV>
0

>  <SCORE.SYSTEM.norm>
0

>  <SCORE.heavy>
26

>  <SCORE.norm>
-0.812315

>  <RMSD>
2.357

$$$$
ligand
 OpenBabel11021811473D
libRbt.so/2013.1/901 2013/11/27
 26 27  0  0  0  0  0  0  0  0999 V2000
   -7.9540  -13.6863   23.6577 C   0  0  0  0  0  0  0  0  0  0  0  0
  -10.0896  -17.0904   26.7051 C   0  0  0  0  0  0  0  0  0  0  0  0
   -9.5158  -16.5612   25.5539 C   0  0  0  0  0  0  0  0  0  0  0  0
   -8.1071  -15.9639   25.5145 C   0  0  0  0  0  0  0  0  0  0  0  0
   -7.4348  -15.0863   23.3172 C   0  0  1  0  0  0  0  0  0  0  0  0
  -13.4482  -18.2660   25.3374 C   0  0  0  0  0  0  0  0  0  0  0  0
  -12.0511  -17.6496   25.4233 C   0  0  0  0  0  0  0  0  0  0  0  0
  -10.2576  -16.6011   24.3776 C   0  0  0  0  0  0  0  0  0  0  0  0
   -7.0039  -17.2731   23.7813 C   0  0  0  0  0  0  0  0  0  0  0  0
   -6.8394  -15.3762   22.0954 C   0  0  2  0  0  0  0  0  0  0  0  0
   -6.5540  -14.4870   20.8824 C   0  0  0  0  0  0  0  0  0  0  0  0
   -7.8205  -14.1026   20.1139 C   0  0  0  0  0  0  0  0  0  0  0  0
  -11.3707  -17.6432   26.6482 N   0  0  0  0  0  0  0  0  0  0  0  0
   -7.5099  -16.1047   24.1786 N   0  0  0  0  0  0  0  0  0  0  0  0
  -11.4678  -17.1266   24.3352 N   0  0  0  0  0  0  0  0  0  0  0  0
   -9.4731  -17.0770   27.7707 O   0  0  0  0  0  0  0  0  0  0  0  0
   -5.2976  -12.4917   19.1819 O   0  5  0  0  0  0  0  0  0  0  0  0
   -5.4329  -11.5528   14.6487 O   0  0  0  0  0  0  0  0  0  0  0  0
   -7.5260  -13.7043   18.7714 O   0  0  0  0  0  0  0  0  0  0  0  0
   -6.3851  -12.3580   16.8821 O   0  0  0  0  0  0  0  0  0  0  0  0
   -5.9153   -9.8398   16.5263 O   0  5  0  0  0  0  0  0  0  0  0  0
   -7.4743  -11.1341   18.8651 O   0  0  0  0  0  0  0  0  0  0  0  0
   -3.9777  -11.5072   16.7585 O   0  0  0  0  0  0  0  0  0  0  0  0
   -6.4558  -17.0745   22.1378 S   0  0  0  0  0  0  0  0  0  0  0  0
   -6.7253  -12.3437   18.4537 P   0  0  2  0  0  0  0  0  0  0  0  0
   -5.4655  -11.2167   16.2224 P   0  0  2  0  0  0  0  0  0  0  0  0
  2 16  2  0  0  0  0
  2  3  1  0  0  0  0
  2 13  1  0  0  0  0
  3  8  2  0  0  0  0
  3  4  1  0  0  0  0
  4 14  1  0  0  0  0
  5  1  1  1  0  0  0
  5 14  1  0  0  0  0
  5 10  1  0  0  0  0
  6  7  1  0  0  0  0
  7 13  1  0  0  0  0
  7 15  2  0  0  0  0
  8 15  1  0  0  0  0
  9 14  1  0  0  0  0
  9 24  1  0  0  0  0
 10 24  1  0  0  0  0
 10 11  1  6  0  0  0
 11 12  1  0  0  0  0
 12 19  1  0  0  0  0
 17 25  1  0  0  0  0
 19 25  1  0  0  0  0
 20 26  1  0  0  0  0
 21 26  1  0  0  0  0
 22 25  2  0  0  0  0
 23 26  2  0  0  0  0
 25 20  1  6  0  0  0
 26 18  1  6  0  0  0
M  CHG  2  17  -1  21  -1
M  END
>  <CHROM.1>
151.57127120,-71.49830482,-159.08502311,102.68098573,-68.21487948,-62.12910281
59.94026040,-177.28510978,-7.68458345,-14.46422179,21.30500955,-1.97643633
0.04535713,-0.97990332

>  <Name>
ligand

>  <RI>
0

>  <Rbt.Current_Directory>
/home/itssahil/PROJECTS/Mol_Feturizer/New_Systems/rnas/3D2X

>  <Rbt.Executable>
rbdock ($Id: //depot/dev/client3/rdock/2013.1/src/exe/rbdock.cxx#4 $)

>  <Rbt.Library>
libRbt.so (2013.1, Build901 2013/11/27)

>  <Rbt.Parameter_File>
/export/apps/rDock/src/rDock_2013.1_src/data/scripts/dock_solv.prm

>  <Rbt.Receptor>
prm/pocket_docking_5.prm

>  <SCORE>
-24.6651

>  <SCORE.INTER>
-25.022

>  <SCORE.INTER.CONST>
1

>  <SCORE.INTER.POLAR>
0

>  <SCORE.INTER.ROT>
8

>  <SCORE.INTER.SOLV>
14.9861

>  <SCORE.INTER.VDW>
-30.61

>  <SCORE.INTER.norm>
-0.962383

>  <SCORE.INTRA>
0.356863

>  <SCORE.INTRA.DIHEDRAL>
-1.23476

>  <SCORE.INTRA.DIHEDRAL.0>
7.88077

>  <SCORE.INTRA.POLAR>
0

>  <SCORE.INTRA.POLAR.0>
0

>  <SCORE.INTRA.REPUL>
0

>  <SCORE.INTRA.REPUL.0>
0

>  <SCORE.INTRA.SOLV>
1.74634

>  <SCORE.INTRA.SOLV.lig_0>
-63.2542

>  <SCORE.INTRA.VDW>
0.101075

>  <SCORE.INTRA.VDW.0>
-3.15072

>  <SCORE.INTRA.norm>
0.0137255

>  <SCORE.RESTR>
0

>  <SCORE.RESTR.CAVITY>
0

>  <SCORE.RESTR.norm>
0

>  <SCORE.SYSTEM>
0

>  <SCORE.SYSTEM.CONST>
0

>  <SCORE.SYSTEM.DIHEDRAL>
0

>  <SCORE.SYSTEM.SOLV>
0

>  <SCORE.SYSTEM.norm>
0

>  <SCORE.heavy>
26

>  <SCORE.norm>
-0.948658

>  <RMSD>
2.368

$$$$
ligand
 OpenBabel11021811473D
libRbt.so/2013.1/901 2013/11/27
 26 27  0  0  0  0  0  0  0  0999 V2000
   -6.5836  -17.4134   22.9146 C   0  0  0  0  0  0  0  0  0  0  0  0
  -10.4086  -16.9392   23.9385 C   0  0  0  0  0  0  0  0  0  0  0  0
   -9.6170  -16.4828   24.9872 C   0  0  0  0  0  0  0  0  0  0  0  0
   -8.2352  -15.8558   24.7868 C   0  0  0  0  0  0  0  0  0  0  0  0
   -7.2964  -16.1141   22.5280 C   0  0  1  0  0  0  0  0  0  0  0  0
  -13.4983  -18.0998   25.8462 C   0  0  0  0  0  0  0  0  0  0  0  0
  -12.1115  -17.5351   25.5349 C   0  0  0  0  0  0  0  0  0  0  0  0
  -10.1237  -16.5840   26.2789 C   0  0  0  0  0  0  0  0  0  0  0  0
   -8.6381  -14.3211   22.9382 C   0  0  0  0  0  0  0  0  0  0  0  0
   -7.2179  -15.5818   21.2467 C   0  0  2  0  0  0  0  0  0  0  0  0
   -6.4918  -16.0821   19.9953 C   0  0  0  0  0  0  0  0  0  0  0  0
   -5.1000  -15.4678   19.8280 C   0  0  0  0  0  0  0  0  0  0  0  0
  -11.6712  -17.4722   24.2061 N   0  0  0  0  0  0  0  0  0  0  0  0
   -8.0461  -15.4262   23.3937 N   0  0  0  0  0  0  0  0  0  0  0  0
  -11.3191  -17.0892   26.5203 N   0  0  0  0  0  0  0  0  0  0  0  0
  -10.0034  -16.8722   22.7779 O   0  0  0  0  0  0  0  0  0  0  0  0
   -2.6145  -13.9924   20.4003 O   0  5  0  0  0  0  0  0  0  0  0  0
   -1.7813  -11.2257   18.1848 O   0  0  0  0  0  0  0  0  0  0  0  0
   -5.1370  -14.0398   19.9114 O   0  0  0  0  0  0  0  0  0  0  0  0
   -3.4650  -13.1513   18.1512 O   0  0  0  0  0  0  0  0  0  0  0  0
   -0.9353  -13.6621   17.9835 O   0  5  0  0  0  0  0  0  0  0  0  0
   -3.9536  -11.7849   20.2751 O   0  0  0  0  0  0  0  0  0  0  0  0
   -2.1737  -12.5537   16.0275 O   0  0  0  0  0  0  0  0  0  0  0  0
   -8.1308  -14.0992   21.2847 S   0  0  0  0  0  0  0  0  0  0  0  0
   -3.8074  -13.1511   19.7224 P   0  0  2  0  0  0  0  0  0  0  0  0
   -2.0124  -12.7148   17.6191 P   0  0  2  0  0  0  0  0  0  0  0  0
  2 16  2  0  0  0  0
  2  3  1  0  0  0  0
  2 13  1  0  0  0  0
  3  8  2  0  0  0  0
  3  4  1  0  0  0  0
  4 14  1  0  0  0  0
  5  1  1  6  0  0  0
  5 14  1  0  0  0  0
  5 10  1  0  0  0  0
  6  7  1  0  0  0  0
  7 13  1  0  0  0  0
  7 15  2  0  0  0  0
  8 15  1  0  0  0  0
  9 14  1  0  0  0  0
  9 24  1  0  0  0  0
 10 24  1  0  0  0  0
 10 11  1  1  0  0  0
 11 12  1  0  0  0  0
 12 19  1  0  0  0  0
 17 25  1  0  0  0  0
 19 25  1  0  0  0  0
 20 26  1  0  0  0  0
 21 26  1  0  0  0  0
 22 25  2  0  0  0  0
 23 26  2  0  0  0  0
 25 20  1  6  0  0  0
 26 18  1  1  0  0  0
M  CHG  2  17  -1  21  -1
M  END
>  <CHROM.1>
17.56948013,-94.16743632,-51.68289764,-103.78722193,-178.11257830,-51.19206756
-36.46055716,-57.04619779,-6.47796166,-14.83074614,21.38517134,2.70702022
0.63881286,1.22035252

>  <Name>
ligand

>  <RI>
0

>  <Rbt.Current_Directory>
/home/itssahil/PROJECTS/Mol_Feturizer/New_Systems/rnas/3D2X

>  <Rbt.Executable>
rbdock ($Id: //depot/dev/client3/rdock/2013.1/src/exe/rbdock.cxx#4 $)

>  <Rbt.Library>
libRbt.so (2013.1, Build901 2013/11/27)

>  <Rbt.Parameter_File>
/export/apps/rDock/src/rDock_2013.1_src/data/scripts/dock_solv.prm

>  <Rbt.Receptor>
prm/pocket_docking_3.prm

>  <SCORE>
-19.8663

>  <SCORE.INTER>
-18.1518

>  <SCORE.INTER.CONST>
1

>  <SCORE.INTER.POLAR>
0

>  <SCORE.INTER.ROT>
8

>  <SCORE.INTER.SOLV>
10.7327

>  <SCORE.INTER.VDW>
-24.6121

>  <SCORE.INTER.norm>
-0.698145

>  <SCORE.INTRA>
-1.71455

>  <SCORE.INTRA.DIHEDRAL>
-1.76955

>  <SCORE.INTRA.DIHEDRAL.0>
7.88077

>  <SCORE.INTRA.POLAR>
0

>  <SCORE.INTRA.POLAR.0>
0

>  <SCORE.INTRA.REPUL>
0

>  <SCORE.INTRA.REPUL.0>
0

>  <SCORE.INTRA.SOLV>
-0.847713

>  <SCORE.INTRA.SOLV.lig_0>
-63.2542

>  <SCORE.INTRA.VDW>
-0.405919

>  <SCORE.INTRA.VDW.0>
-3.15072

>  <SCORE.INTRA.norm>
-0.0659442

>  <SCORE.RESTR>
0

>  <SCORE.RESTR.CAVITY>
0

>  <SCORE.RESTR.norm>
0

>  <SCORE.SYSTEM>
0

>  <SCORE.SYSTEM.CONST>
0

>  <SCORE.SYSTEM.DIHEDRAL>
0

>  <SCORE.SYSTEM.SOLV>
0

>  <SCORE.SYSTEM.norm>
0

>  <SCORE.heavy>
26

>  <SCORE.norm>
-0.764089

>  <RMSD>
2.372

$$$$
ligand
 OpenBabel11021811473D
libRbt.so/2013.1/901 2013/11/27
 26 27  0  0  0  0  0  0  0  0999 V2000
   -7.5163  -13.9074   23.2947 C   0  0  0  0  0  0  0  0  0  0  0  0
  -10.0256  -16.7428   25.9299 C   0  0  0  0  0  0  0  0  0  0  0  0
   -9.6197  -16.9487   24.6155 C   0  0  0  0  0  0  0  0  0  0  0  0
   -8.2047  -16.6481   24.1153 C   0  0  0  0  0  0  0  0  0  0  0  0
   -7.9142  -15.0074   22.3060 C   0  0  1  0  0  0  0  0  0  0  0  0
  -13.6256  -17.9846   25.7544 C   0  0  0  0  0  0  0  0  0  0  0  0
  -12.2003  -17.6029   25.3519 C   0  0  0  0  0  0  0  0  0  0  0  0
  -10.5461  -17.4763   23.7217 C   0  0  0  0  0  0  0  0  0  0  0  0
   -8.5268  -17.1280   21.7487 C   0  0  0  0  0  0  0  0  0  0  0  0
   -7.9678  -14.7842   20.9354 C   0  0  2  0  0  0  0  0  0  0  0  0
   -7.6717  -13.5287   20.1110 C   0  0  0  0  0  0  0  0  0  0  0  0
   -6.1745  -13.2377   19.9849 C   0  0  0  0  0  0  0  0  0  0  0  0
  -11.3282  -17.0712   26.3110 N   0  0  0  0  0  0  0  0  0  0  0  0
   -8.2175  -16.2470   22.7011 N   0  0  0  0  0  0  0  0  0  0  0  0
  -11.7750  -17.7836   24.0932 N   0  0  0  0  0  0  0  0  0  0  0  0
   -9.2422  -16.2768   26.7575 O   0  0  0  0  0  0  0  0  0  0  0  0
   -4.5438  -10.6835   21.4449 O   0  5  0  0  0  0  0  0  0  0  0  0
   -6.0676   -9.3170   17.3704 O   0  0  0  0  0  0  0  0  0  0  0  0
   -5.9271  -11.8725   19.6346 O   0  0  0  0  0  0  0  0  0  0  0  0
   -6.0591   -9.3075   19.9284 O   0  0  0  0  0  0  0  0  0  0  0  0
   -4.4894   -7.7069   18.6389 O   0  5  0  0  0  0  0  0  0  0  0  0
   -7.1112  -10.8654   21.6842 O   0  0  0  0  0  0  0  0  0  0  0  0
   -4.0472  -10.2353   18.6533 O   0  0  0  0  0  0  0  0  0  0  0  0
   -8.5045  -16.2809   20.2247 S   0  0  0  0  0  0  0  0  0  0  0  0
   -5.9877  -10.6974   20.7339 P   0  0  2  0  0  0  0  0  0  0  0  0
   -5.1259   -9.0430   18.6467 P   0  0  2  0  0  0  0  0  0  0  0  0
  2 16  2  0  0  0  0
  2  3  1  0  0  0  0
  2 13  1  0  0  0  0
  3  8  2  0  0  0  0
  3  4  1  0  0  0  0
  4 14  1  0  0  0  0
  5  1  1  6  0  0  0
  5 14  1  0  0  0  0
  5 10  1  0  0  0  0
  6  7  1  0  0  0  0
  7 13  1  0  0  0  0
  7 15  2  0  0  0  0
  8 15  1  0  0  0  0
  9 14  1  0  0  0  0
  9 24  1  0  0  0  0
 10 24  1  0  0  0  0
 10 11  1  1  0  0  0
 11 12  1  0  0  0  0
 12 19  1  0  0  0  0
 17 25  1  0  0  0  0
 19 25  1  0  0  0  0
 20 26  1  0  0  0  0
 21 26  1  0  0  0  0
 22 25  2  0  0  0  0
 23 26  2  0  0  0  0
 25 20  1  6  0  0  0
 26 18  1  6  0  0  0
M  CHG  2  17  -1  21  -1
M  END
>  <CHROM.1>
-149.02355227,74.90683317,-159.90158385,112.06321607,79.22580137,68.71078954
83.83536774,99.72320091,-7.72126404,-13.58086476,21.73246601,-3.01031046
-1.04211076,-2.05536338

>  <Name>
ligand

>  <RI>
0

>  <Rbt.Current_Directory>
/home/itssahil/PROJECTS/Mol_Feturizer/New_Systems/rnas/3D2X

>  <Rbt.Executable>
rbdock ($Id: //depot/dev/client3/rdock/2013.1/src/exe/rbdock.cxx#4 $)

>  <Rbt.Library>
libRbt.so (2013.1, Build901 2013/11/27)

>  <Rbt.Parameter_File>
/export/apps/rDock/src/rDock_2013.1_src/data/scripts/dock_solv.prm

>  <Rbt.Receptor>
prm/pocket_docking_6.prm

>  <SCORE>
-19.9233

>  <SCORE.INTER>
-22.0348

>  <SCORE.INTER.CONST>
1

>  <SCORE.INTER.POLAR>
0

>  <SCORE.INTER.ROT>
8

>  <SCORE.INTER.SOLV>
13.1824

>  <SCORE.INTER.VDW>
-28.0173

>  <SCORE.INTER.norm>
-0.847491

>  <SCORE.INTRA>
2.11144

>  <SCORE.INTRA.DIHEDRAL>
2.68023

>  <SCORE.INTRA.DIHEDRAL.0>
7.88077

>  <SCORE.INTRA.POLAR>
0

>  <SCORE.INTRA.POLAR.0>
0

>  <SCORE.INTRA.REPUL>
0

>  <SCORE.INTRA.REPUL.0>
0

>  <SCORE.INTRA.SOLV>
1.3576

>  <SCORE.INTRA.SOLV.lig_0>
-63.2542

>  <SCORE.INTRA.VDW>
0.0925168

>  <SCORE.INTRA.VDW.0>
-3.15072

>  <SCORE.INTRA.norm>
0.0812091

>  <SCORE.RESTR>
0

>  <SCORE.RESTR.CAVITY>
0

>  <SCORE.RESTR.norm>
0

>  <SCORE.SYSTEM>
0

>  <SCORE.SYSTEM.CONST>
0

>  <SCORE.SYSTEM.DIHEDRAL>
0

>  <SCORE.SYSTEM.SOLV>
0

>  <SCORE.SYSTEM.norm>
0

>  <SCORE.heavy>
26

>  <SCORE.norm>
-0.766282

>  <RMSD>
2.383

$$$$
ligand
 OpenBabel11021811473D
libRbt.so/2013.1/901 2013/11/27
 26 27  0  0  0  0  0  0  0  0999 V2000
   -6.9420  -13.9218   25.1205 C   0  0  0  0  0  0  0  0  0  0  0  0
  -10.3337  -16.7109   26.3873 C   0  0  0  0  0  0  0  0  0  0  0  0
   -9.7443  -16.8813   25.1390 C   0  0  0  0  0  0  0  0  0  0  0  0
   -8.2858  -16.5248   24.8418 C   0  0  0  0  0  0  0  0  0  0  0  0
   -7.5893  -14.3998   23.8173 C   0  0  1  0  0  0  0  0  0  0  0  0
  -13.8289  -18.0707   25.7036 C   0  0  0  0  0  0  0  0  0  0  0  0
  -12.3764  -17.6345   25.5055 C   0  0  0  0  0  0  0  0  0  0  0  0
  -10.5200  -17.4251   24.1201 C   0  0  0  0  0  0  0  0  0  0  0  0
   -8.6976  -15.9081   22.5212 C   0  0  0  0  0  0  0  0  0  0  0  0
   -7.5763  -13.6297   22.6605 C   0  0  2  0  0  0  0  0  0  0  0  0
   -6.9761  -12.2495   22.3808 C   0  0  0  0  0  0  0  0  0  0  0  0
   -6.5563  -12.0669   20.9204 C   0  0  0  0  0  0  0  0  0  0  0  0
  -11.6637  -17.0894   26.5817 N   0  0  0  0  0  0  0  0  0  0  0  0
   -8.1895  -15.5888   23.7124 N   0  0  0  0  0  0  0  0  0  0  0  0
  -11.7764  -17.7799   24.3153 N   0  0  0  0  0  0  0  0  0  0  0  0
   -9.6884  -16.2324   27.3202 O   0  0  0  0  0  0  0  0  0  0  0  0
   -6.0360  -14.3144   18.3803 O   0  5  0  0  0  0  0  0  0  0  0  0
   -7.9406  -12.4465   17.6819 O   0  0  0  0  0  0  0  0  0  0  0  0
   -5.5467  -13.0059   20.5374 O   0  0  0  0  0  0  0  0  0  0  0  0
   -5.5230  -11.8232   18.2386 O   0  0  0  0  0  0  0  0  0  0  0  0
   -6.7716  -10.5517   16.3645 O   0  5  0  0  0  0  0  0  0  0  0  0
   -3.6442  -13.4638   18.8676 O   0  0  0  0  0  0  0  0  0  0  0  0
   -6.0582  -12.9945   16.0304 O   0  0  0  0  0  0  0  0  0  0  0  0
   -8.4574  -14.5408   21.4660 S   0  0  0  0  0  0  0  0  0  0  0  0
   -5.0897  -13.1706   19.0020 P   0  0  2  0  0  0  0  0  0  0  0  0
   -6.5889  -11.8578   17.0361 P   0  0  2  0  0  0  0  0  0  0  0  0
  2 16  2  0  0  0  0
  2  3  1  0  0  0  0
  2 13  1  0  0  0  0
  3  8  2  0  0  0  0
  3  4  1  0  0  0  0
  4 14  1  0  0  0  0
  5  1  1  6  0  0  0
  5 14  1  0  0  0  0
  5 10  1  0  0  0  0
  6  7  1  0  0  0  0
  7 13  1  0  0  0  0
  7 15  2  0  0  0  0
  8 15  1  0  0  0  0
  9 14  1  0  0  0  0
  9 24  1  0  0  0  0
 10 24  1  0  0  0  0
 10 11  1  1  0  0  0
 11 12  1  0  0  0  0
 12 19  1  0  0  0  0
 17 25  1  0  0  0  0
 19 25  1  0  0  0  0
 20 26  1  0  0  0  0
 21 26  1  0  0  0  0
 22 25  2  0  0  0  0
 23 26  2  0  0  0  0
 25 20  1  6  0  0  0
 26 18  1  1  0  0  0
M  CHG  2  17  -1  21  -1
M  END
>  <CHROM.1>
-124.49869471,150.87091714,-61.32375236,122.84446211,170.81285089,-5.34639839
-90.82004598,60.47429690,-7.89129801,-14.35237903,21.57702835,-2.13286275
-0.45629114,-1.30673077

>  <Name>
ligand

>  <RI>
0

>  <Rbt.Current_Directory>
/home/itssahil/PROJECTS/Mol_Feturizer/New_Systems/rnas/3D2X

>  <Rbt.Executable>
rbdock ($Id: //depot/dev/client3/rdock/2013.1/src/exe/rbdock.cxx#4 $)

>  <Rbt.Library>
libRbt.so (2013.1, Build901 2013/11/27)

>  <Rbt.Parameter_File>
/export/apps/rDock/src/rDock_2013.1_src/data/scripts/dock_solv.prm

>  <Rbt.Receptor>
prm/pocket_docking_5.prm

>  <SCORE>
-19.8472

>  <SCORE.INTER>
-20.6301

>  <SCORE.INTER.CONST>
1

>  <SCORE.INTER.POLAR>
0

>  <SCORE.INTER.ROT>
8

>  <SCORE.INTER.SOLV>
12.6634

>  <SCORE.INTER.VDW>
-26.9079

>  <SCORE.INTER.norm>
-0.793466

>  <SCORE.INTRA>
0.782925

>  <SCORE.INTRA.DIHEDRAL>
1.26772

>  <SCORE.INTRA.DIHEDRAL.0>
7.88077

>  <SCORE.INTRA.POLAR>
0

>  <SCORE.INTRA.POLAR.0>
0

>  <SCORE.INTRA.REPUL>
0

>  <SCORE.INTRA.REPUL.0>
0

>  <SCORE.INTRA.SOLV>
-0.573659

>  <SCORE.INTRA.SOLV.lig_0>
-63.2542

>  <SCORE.INTRA.VDW>
0.435897

>  <SCORE.INTRA.VDW.0>
-3.15072

>  <SCORE.INTRA.norm>
0.0301125

>  <SCORE.RESTR>
0

>  <SCORE.RESTR.CAVITY>
0

>  <SCORE.RESTR.norm>
0

>  <SCORE.SYSTEM>
0

>  <SCORE.SYSTEM.CONST>
0

>  <SCORE.SYSTEM.DIHEDRAL>
0

>  <SCORE.SYSTEM.SOLV>
0

>  <SCORE.SYSTEM.norm>
0

>  <SCORE.heavy>
26

>  <SCORE.norm>
-0.763353

>  <RMSD>
2.394

$$$$
ligand
 OpenBabel11021811473D
libRbt.so/2013.1/901 2013/11/27
 26 27  0  0  0  0  0  0  0  0999 V2000
   -6.7056  -14.0979   24.9102 C   0  0  0  0  0  0  0  0  0  0  0  0
  -10.2989  -16.7546   26.3645 C   0  0  0  0  0  0  0  0  0  0  0  0
   -9.7280  -16.9336   25.1088 C   0  0  0  0  0  0  0  0  0  0  0  0
   -8.2720  -16.5860   24.7895 C   0  0  0  0  0  0  0  0  0  0  0  0
   -7.4850  -14.5426   23.6691 C   0  0  1  0  0  0  0  0  0  0  0  0
  -13.8102  -18.0993   25.7363 C   0  0  0  0  0  0  0  0  0  0  0  0
  -12.3585  -17.6715   25.5158 C   0  0  0  0  0  0  0  0  0  0  0  0
  -10.5208  -17.4779   24.1034 C   0  0  0  0  0  0  0  0  0  0  0  0
   -8.8052  -15.9760   22.4920 C   0  0  0  0  0  0  0  0  0  0  0  0
   -7.4966  -13.7954   22.4974 C   0  0  2  0  0  0  0  0  0  0  0  0
   -6.8096  -12.4740   22.1434 C   0  0  0  0  0  0  0  0  0  0  0  0
   -5.5213  -12.6683   21.3403 C   0  0  0  0  0  0  0  0  0  0  0  0
  -11.6279  -17.1253   26.5794 N   0  0  0  0  0  0  0  0  0  0  0  0
   -8.1853  -15.6798   23.6352 N   0  0  0  0  0  0  0  0  0  0  0  0
  -11.7761  -17.8253   24.3179 N   0  0  0  0  0  0  0  0  0  0  0  0
   -9.6380  -16.2753   27.2861 O   0  0  0  0  0  0  0  0  0  0  0  0
   -4.2334  -12.2174   18.4213 O   0  5  0  0  0  0  0  0  0  0  0  0
   -1.6477  -13.1787   18.1253 O   0  0  0  0  0  0  0  0  0  0  0  0
   -5.7562  -13.3900   20.1272 O   0  0  0  0  0  0  0  0  0  0  0  0
   -3.2657  -14.0473   19.9061 O   0  0  0  0  0  0  0  0  0  0  0  0
   -0.7430  -14.5823   20.1011 O   0  5  0  0  0  0  0  0  0  0  0  0
   -4.9380  -14.6774   18.0559 O   0  0  0  0  0  0  0  0  0  0  0  0
   -2.1717  -15.6835   18.2751 O   0  0  0  0  0  0  0  0  0  0  0  0
   -8.5351  -14.6507   21.3914 S   0  0  0  0  0  0  0  0  0  0  0  0
   -4.5769  -13.6530   19.0627 P   0  0  2  0  0  0  0  0  0  0  0  0
   -1.8762  -14.3813   19.1705 P   0  0  2  0  0  0  0  0  0  0  0  0
  2 16  2  0  0  0  0
  2  3  1  0  0  0  0
  2 13  1  0  0  0  0
  3  8  2  0  0  0  0
  3  4  1  0  0  0  0
  4 14  1  0  0  0  0
  5  1  1  6  0  0  0
  5 14  1  0  0  0  0
  5 10  1  0  0  0  0
  6  7  1  0  0  0  0
  7 13  1  0  0  0  0
  7 15  2  0  0  0  0
  8 15  1  0  0  0  0
  9 14  1  0  0  0  0
  9 24  1  0  0  0  0
 10 24  1  0  0  0  0
 10 11  1  1  0  0  0
 11 12  1  0  0  0  0
 12 19  1  0  0  0  0
 17 25  1  0  0  0  0
 19 25  1  0  0  0  0
 20 26  1  0  0  0  0
 21 26  1  0  0  0  0
 22 25  2  0  0  0  0
 23 26  2  0  0  0  0
 25 20  1  1  0  0  0
 26 18  1  6  0  0  0
M  CHG  2  17  -1  21  -1
M  END
>  <CHROM.1>
-125.80076641,99.25706243,57.67602355,128.81629930,176.46431469,-67.85177091
-69.26252986,48.76719602,-6.74060559,-14.99206150,21.97895880,-2.43488720
-0.16845857,-1.31913065

>  <Name>
ligand

>  <RI>
0

>  <Rbt.Current_Directory>
/home/itssahil/PROJECTS/Mol_Feturizer/New_Systems/rnas/3D2X

>  <Rbt.Executable>
rbdock ($Id: //depot/dev/client3/rdock/2013.1/src/exe/rbdock.cxx#4 $)

>  <Rbt.Library>
libRbt.so (2013.1, Build901 2013/11/27)

>  <Rbt.Parameter_File>
/export/apps/rDock/src/rDock_2013.1_src/data/scripts/dock_solv.prm

>  <Rbt.Receptor>
prm/pocket_docking_3.prm

>  <SCORE>
-19.1005

>  <SCORE.INTER>
-17.3982

>  <SCORE.INTER.CONST>
1

>  <SCORE.INTER.POLAR>
0

>  <SCORE.INTER.ROT>
8

>  <SCORE.INTER.SOLV>
8.88574

>  <SCORE.INTER.VDW>
-23.494

>  <SCORE.INTER.norm>
-0.66916

>  <SCORE.INTRA>
-1.70237

>  <SCORE.INTRA.DIHEDRAL>
-2.32059

>  <SCORE.INTRA.DIHEDRAL.0>
7.88077

>  <SCORE.INTRA.POLAR>
0

>  <SCORE.INTRA.POLAR.0>
0

>  <SCORE.INTRA.REPUL>
0

>  <SCORE.INTRA.REPUL.0>
0

>  <SCORE.INTRA.SOLV>
-1.15331

>  <SCORE.INTRA.SOLV.lig_0>
-63.2542

>  <SCORE.INTRA.VDW>
0.0345762

>  <SCORE.INTRA.VDW.0>
-3.15072

>  <SCORE.INTRA.norm>
-0.0654758

>  <SCORE.RESTR>
0

>  <SCORE.RESTR.CAVITY>
0

>  <SCORE.RESTR.norm>
0

>  <SCORE.SYSTEM>
0

>  <SCORE.SYSTEM.CONST>
0

>  <SCORE.SYSTEM.DIHEDRAL>
0

>  <SCORE.SYSTEM.SOLV>
0

>  <SCORE.SYSTEM.norm>
0

>  <SCORE.heavy>
26

>  <SCORE.norm>
-0.734636

>  <RMSD>
2.404

$$$$
ligand
 OpenBabel11021811473D
libRbt.so/2013.1/901 2013/11/27
 26 27  0  0  0  0  0  0  0  0999 V2000
   -8.4017  -13.8814   23.1653 C   0  0  0  0  0  0  0  0  0  0  0  0
   -9.7021  -16.5390   26.4547 C   0  0  0  0  0  0  0  0  0  0  0  0
   -9.1722  -16.6261   25.1716 C   0  0  0  0  0  0  0  0  0  0  0  0
   -7.7381  -16.2192   24.8246 C   0  0  0  0  0  0  0  0  0  0  0  0
   -7.8221  -15.1800   22.5967 C   0  0  1  0  0  0  0  0  0  0  0  0
  -13.1978  -17.9414   25.8659 C   0  0  0  0  0  0  0  0  0  0  0  0
  -11.7664  -17.4605   25.6225 C   0  0  0  0  0  0  0  0  0  0  0  0
   -9.9861  -17.1309   24.1626 C   0  0  0  0  0  0  0  0  0  0  0  0
   -7.0015  -17.2967   22.7676 C   0  0  0  0  0  0  0  0  0  0  0  0
   -7.5578  -15.3397   21.2417 C   0  0  2  0  0  0  0  0  0  0  0  0
   -7.7378  -14.3780   20.0643 C   0  0  0  0  0  0  0  0  0  0  0  0
   -6.9253  -13.0901   20.2170 C   0  0  0  0  0  0  0  0  0  0  0  0
  -11.0125  -16.9591   26.6918 N   0  0  0  0  0  0  0  0  0  0  0  0
   -7.5230  -16.2273   23.3704 N   0  0  0  0  0  0  0  0  0  0  0  0
  -11.2235  -17.5256   24.3982 N   0  0  0  0  0  0  0  0  0  0  0  0
   -9.0213  -16.0977   27.3807 O   0  0  0  0  0  0  0  0  0  0  0  0
   -6.1271  -10.3268   20.6863 O   0  5  0  0  0  0  0  0  0  0  0  0
   -6.1104  -10.1745   16.1019 O   0  0  0  0  0  0  0  0  0  0  0  0
   -7.3094  -12.1034   19.2544 O   0  0  0  0  0  0  0  0  0  0  0  0
   -5.1991  -10.8913   18.3821 O   0  0  0  0  0  0  0  0  0  0  0  0
   -3.8413  -11.4088   16.2427 O   0  5  0  0  0  0  0  0  0  0  0  0
   -7.4318   -9.6275   18.5672 O   0  0  0  0  0  0  0  0  0  0  0  0
   -6.0296  -12.6580   16.7317 O   0  0  0  0  0  0  0  0  0  0  0  0
   -6.9624  -16.9658   21.0559 S   0  0  0  0  0  0  0  0  0  0  0  0
   -6.5777  -10.6708   19.1800 P   0  0  2  0  0  0  0  0  0  0  0  0
   -5.1968  -11.2857   16.8239 P   0  0  2  0  0  0  0  0  0  0  0  0
  2 16  2  0  0  0  0
  2  3  1  0  0  0  0
  2 13  1  0  0  0  0
  3  8  2  0  0  0  0
  3  4  1  0  0  0  0
  4 14  1  0  0  0  0
  5  1  1  1  0  0  0
  5 14  1  0  0  0  0
  5 10  1  0  0  0  0
  6  7  1  0  0  0  0
  7 13  1  0  0  0  0
  7 15  2  0  0  0  0
  8 15  1  0  0  0  0
  9 14  1  0  0  0  0
  9 24  1  0  0  0  0
 10 24  1  0  0  0  0
 10 11  1  6  0  0  0
 11 12  1  0  0  0  0
 12 19  1  0  0  0  0
 17 25  1  0  0  0  0
 19 25  1  0  0  0  0
 20 26  1  0  0  0  0
 21 26  1  0  0  0  0
 22 25  2  0  0  0  0
 23 26  2  0  0  0  0
 25 20  1  6  0  0  0
 26 18  1  6  0  0  0
M  CHG  2  17  -1  21  -1
M  END
>  <CHROM.1>
-171.44556338,59.96289303,-168.32658718,85.41906307,-178.41038809,178.89068150
-31.30614704,53.16419104,-7.65635071,-14.05409652,21.30896428,2.37093295
-0.96600206,2.93165425

>  <Name>
ligand

>  <RI>
0

>  <Rbt.Current_Directory>
/home/itssahil/PROJECTS/Mol_Feturizer/New_Systems/rnas/3D2X

>  <Rbt.Executable>
rbdock ($Id: //depot/dev/client3/rdock/2013.1/src/exe/rbdock.cxx#4 $)

>  <Rbt.Library>
libRbt.so (2013.1, Build901 2013/11/27)

>  <Rbt.Parameter_File>
/export/apps/rDock/src/rDock_2013.1_src/data/scripts/dock_solv.prm

>  <Rbt.Receptor>
prm/pocket_docking_4.prm

>  <SCORE>
-26.0084

>  <SCORE.INTER>
-24.2288

>  <SCORE.INTER.CONST>
1

>  <SCORE.INTER.POLAR>
0

>  <SCORE.INTER.ROT>
8

>  <SCORE.INTER.SOLV>
12.887

>  <SCORE.INTER.VDW>
-29.3816

>  <SCORE.INTER.norm>
-0.931878

>  <SCORE.INTRA>
-1.77957

>  <SCORE.INTRA.DIHEDRAL>
-1.90592

>  <SCORE.INTRA.DIHEDRAL.0>
7.88077

>  <SCORE.INTRA.POLAR>
0

>  <SCORE.INTRA.POLAR.0>
0

>  <SCORE.INTRA.REPUL>
0

>  <SCORE.INTRA.REPUL.0>
0

>  <SCORE.INTRA.SOLV>
-1.35058

>  <SCORE.INTRA.SOLV.lig_0>
-63.2542

>  <SCORE.INTRA.VDW>
-0.151322

>  <SCORE.INTRA.VDW.0>
-3.15072

>  <SCORE.INTRA.norm>
-0.068445

>  <SCORE.RESTR>
0

>  <SCORE.RESTR.CAVITY>
0

>  <SCORE.RESTR.norm>
0

>  <SCORE.SYSTEM>
0

>  <SCORE.SYSTEM.CONST>
0

>  <SCORE.SYSTEM.DIHEDRAL>
0

>  <SCORE.SYSTEM.SOLV>
0

>  <SCORE.SYSTEM.norm>
0

>  <SCORE.heavy>
26

>  <SCORE.norm>
-1.00032

>  <RMSD>
2.408

$$$$
ligand
 OpenBabel11021811473D
libRbt.so/2013.1/901 2013/11/27
 26 27  0  0  0  0  0  0  0  0999 V2000
   -6.7648  -17.5044   22.7768 C   0  0  0  0  0  0  0  0  0  0  0  0
  -10.3663  -16.7668   23.9677 C   0  0  0  0  0  0  0  0  0  0  0  0
   -9.5110  -16.4510   25.0182 C   0  0  0  0  0  0  0  0  0  0  0  0
   -8.1114  -15.8654   24.8162 C   0  0  0  0  0  0  0  0  0  0  0  0
   -7.3213  -16.1048   22.4991 C   0  0  1  0  0  0  0  0  0  0  0  0
  -13.4231  -17.9825   25.8941 C   0  0  0  0  0  0  0  0  0  0  0  0
  -12.0260  -17.4478   25.5755 C   0  0  0  0  0  0  0  0  0  0  0  0
   -9.9669  -16.6597   26.3159 C   0  0  0  0  0  0  0  0  0  0  0  0
   -8.3994  -14.1845   23.0764 C   0  0  0  0  0  0  0  0  0  0  0  0
   -7.2352  -15.5111   21.2455 C   0  0  2  0  0  0  0  0  0  0  0  0
   -6.6396  -16.0234   19.9316 C   0  0  0  0  0  0  0  0  0  0  0  0
   -5.1477  -15.7120   19.7920 C   0  0  0  0  0  0  0  0  0  0  0  0
  -11.6397  -17.2708   24.2402 N   0  0  0  0  0  0  0  0  0  0  0  0
   -7.9343  -15.3806   23.4397 N   0  0  0  0  0  0  0  0  0  0  0  0
  -11.1731  -17.1362   26.5619 N   0  0  0  0  0  0  0  0  0  0  0  0
  -10.0078  -16.6010   22.8017 O   0  0  0  0  0  0  0  0  0  0  0  0
   -2.9470  -14.0524   18.4367 O   0  5  0  0  0  0  0  0  0  0  0  0
   -6.0677  -11.9676   20.1991 O   0  0  0  0  0  0  0  0  0  0  0  0
   -4.8555  -14.3529   20.1313 O   0  0  0  0  0  0  0  0  0  0  0  0
   -3.5219  -12.1410   20.0197 O   0  0  0  0  0  0  0  0  0  0  0  0
   -4.6988   -9.9226   19.4015 O   0  5  0  0  0  0  0  0  0  0  0  0
   -2.4212  -14.2680   20.9584 O   0  0  0  0  0  0  0  0  0  0  0  0
   -4.9391  -11.9888   17.8977 O   0  0  0  0  0  0  0  0  0  0  0  0
   -7.9463  -13.9300   21.4119 S   0  0  0  0  0  0  0  0  0  0  0  0
   -3.3762  -13.7412   19.9564 P   0  0  2  0  0  0  0  0  0  0  0  0
   -4.7997  -11.3991   19.3870 P   0  0  2  0  0  0  0  0  0  0  0  0
  2 16  2  0  0  0  0
  2  3  1  0  0  0  0
  2 13  1  0  0  0  0
  3  8  2  0  0  0  0
  3  4  1  0  0  0  0
  4 14  1  0  0  0  0
  5  1  1  6  0  0  0
  5 14  1  0  0  0  0
  5 10  1  0  0  0  0
  6  7  1  0  0  0  0
  7 13  1  0  0  0  0
  7 15  2  0  0  0  0
  8 15  1  0  0  0  0
  9 14  1  0  0  0  0
  9 24  1  0  0  0  0
 10 24  1  0  0  0  0
 10 11  1  1  0  0  0
 11 12  1  0  0  0  0
 12 19  1  0  0  0  0
 17 25  1  0  0  0  0
 19 25  1  0  0  0  0
 20 26  1  0  0  0  0
 21 26  1  0  0  0  0
 22 25  2  0  0  0  0
 23 26  2  0  0  0  0
 25 20  1  1  0  0  0
 26 18  1  1  0  0  0
M  CHG  2  17  -1  21  -1
M  END
>  <CHROM.1>
14.11918717,-87.88512767,-46.73319517,-98.19394478,-175.14774076,75.94045325
52.75210621,61.29541367,-6.97497855,-14.67523913,21.78148617,-2.45476493
0.47243224,-0.39762408

>  <Name>
ligand

>  <RI>
0

>  <Rbt.Current_Directory>
/home/itssahil/PROJECTS/Mol_Feturizer/New_Systems/rnas/3D2X

>  <Rbt.Executable>
rbdock ($Id: //depot/dev/client3/rdock/2013.1/src/exe/rbdock.cxx#4 $)

>  <Rbt.Library>
libRbt.so (2013.1, Build901 2013/11/27)

>  <Rbt.Parameter_File>
/export/apps/rDock/src/rDock_2013.1_src/data/scripts/dock_solv.prm

>  <Rbt.Receptor>
prm/pocket_docking_2.prm

>  <SCORE>
-19.2579

>  <SCORE.INTER>
-17.299

>  <SCORE.INTER.CONST>
1

>  <SCORE.INTER.POLAR>
0

>  <SCORE.INTER.ROT>
8

>  <SCORE.INTER.SOLV>
8.29365

>  <SCORE.INTER.VDW>
-23.2306

>  <SCORE.INTER.norm>
-0.665348

>  <SCORE.INTRA>
-2.02793

>  <SCORE.INTRA.DIHEDRAL>
-1.43202

>  <SCORE.INTRA.DIHEDRAL.0>
7.88077

>  <SCORE.INTRA.POLAR>
0

>  <SCORE.INTRA.POLAR.0>
0

>  <SCORE.INTRA.REPUL>
0

>  <SCORE.INTRA.REPUL.0>
0

>  <SCORE.INTRA.SOLV>
-0.991992

>  <SCORE.INTRA.SOLV.lig_0>
-63.2542

>  <SCORE.INTRA.VDW>
-0.815924

>  <SCORE.INTRA.VDW.0>
-3.15072

>  <SCORE.INTRA.norm>
-0.0779973

>  <SCORE.RESTR>
0.0691035

>  <SCORE.RESTR.CAVITY>
0.0691035

>  <SCORE.RESTR.norm>
0.00265783

>  <SCORE.SYSTEM>
0

>  <SCORE.SYSTEM.CONST>
0

>  <SCORE.SYSTEM.DIHEDRAL>
0

>  <SCORE.SYSTEM.SOLV>
0

>  <SCORE.SYSTEM.norm>
0

>  <SCORE.heavy>
26

>  <SCORE.norm>
-0.740687

>  <RMSD>
2.420

$$$$
ligand
 OpenBabel11021811473D
libRbt.so/2013.1/901 2013/11/27
 26 27  0  0  0  0  0  0  0  0999 V2000
   -7.4758  -16.8807   22.0309 C   0  0  0  0  0  0  0  0  0  0  0  0
  -10.0288  -16.9010   26.4596 C   0  0  0  0  0  0  0  0  0  0  0  0
   -9.4981  -16.8400   25.1754 C   0  0  0  0  0  0  0  0  0  0  0  0
   -8.0528  -16.4312   24.8812 C   0  0  0  0  0  0  0  0  0  0  0  0
   -7.7369  -15.4950   22.6286 C   0  0  1  0  0  0  0  0  0  0  0  0
  -13.5590  -18.1240   25.7017 C   0  0  0  0  0  0  0  0  0  0  0  0
  -12.1148  -17.6548   25.5196 C   0  0  0  0  0  0  0  0  0  0  0  0
  -10.3225  -17.1918   24.1114 C   0  0  0  0  0  0  0  0  0  0  0  0
   -8.2368  -14.0656   24.3287 C   0  0  0  0  0  0  0  0  0  0  0  0
   -7.7287  -14.3424   21.8522 C   0  0  2  0  0  0  0  0  0  0  0  0
   -7.4939  -14.1447   20.3525 C   0  0  0  0  0  0  0  0  0  0  0  0
   -6.0154  -14.2233   19.9651 C   0  0  0  0  0  0  0  0  0  0  0  0
  -11.3506  -17.3123   26.6430 N   0  0  0  0  0  0  0  0  0  0  0  0
   -8.0026  -15.3153   23.9255 N   0  0  0  0  0  0  0  0  0  0  0  0
  -11.5707  -17.5798   24.2965 N   0  0  0  0  0  0  0  0  0  0  0  0
   -9.3389  -16.5981   27.4333 O   0  0  0  0  0  0  0  0  0  0  0  0
   -4.5294  -13.4483   16.4092 O   0  5  0  0  0  0  0  0  0  0  0  0
   -3.1510  -14.0836   20.8984 O   0  0  0  0  0  0  0  0  0  0  0  0
   -5.8180  -13.9689   18.5709 O   0  0  0  0  0  0  0  0  0  0  0  0
   -3.4697  -12.8913   18.6578 O   0  0  0  0  0  0  0  0  0  0  0  0
   -1.2293  -14.0789   19.1664 O   0  5  0  0  0  0  0  0  0  0  0  0
   -3.7368  -15.3541   17.9652 O   0  0  0  0  0  0  0  0  0  0  0  0
   -1.8696  -11.9204   20.3989 O   0  0  0  0  0  0  0  0  0  0  0  0
   -8.0225  -13.0215   22.9486 S   0  0  0  0  0  0  0  0  0  0  0  0
   -4.3511  -14.0077   17.9077 P   0  0  2  0  0  0  0  0  0  0  0  0
   -2.3533  -13.3040   19.7379 P   0  0  2  0  0  0  0  0  0  0  0  0
  2 16  2  0  0  0  0
  2  3  1  0  0  0  0
  2 13  1  0  0  0  0
  3  8  2  0  0  0  0
  3  4  1  0  0  0  0
  4 14  1  0  0  0  0
  5  1  1  6  0  0  0
  5 14  1  0  0  0  0
  5 10  1  0  0  0  0
  6  7  1  0  0  0  0
  7 13  1  0  0  0  0
  7 15  2  0  0  0  0
  8 15  1  0  0  0  0
  9 14  1  0  0  0  0
  9 24  1  0  0  0  0
 10 24  1  0  0  0  0
 10 11  1  1  0  0  0
 11 12  1  0  0  0  0
 12 19  1  0  0  0  0
 17 25  1  0  0  0  0
 19 25  1  0  0  0  0
 20 26  1  0  0  0  0
 21 26  1  0  0  0  0
 22 25  2  0  0  0  0
 23 26  2  0  0  0  0
 25 20  1  1  0  0  0
 26 18  1  1  0  0  0
M  CHG  2  17  -1  21  -1
M  END
>  <CHROM.1>
-125.14935609,-77.48164091,-177.07904592,-100.64959817,-179.35592671,-142.91587839
-171.29064781,-60.39127592,-6.74759731,-14.91941465,21.83754611,2.46253535
0.44437428,1.54462712

>  <Name>
ligand

>  <RI>
0

>  <Rbt.Current_Directory>
/home/itssahil/PROJECTS/Mol_Feturizer/New_Systems/rnas/3D2X

>  <Rbt.Executable>
rbdock ($Id: //depot/dev/client3/rdock/2013.1/src/exe/rbdock.cxx#4 $)

>  <Rbt.Library>
libRbt.so (2013.1, Build901 2013/11/27)

>  <Rbt.Parameter_File>
/export/apps/rDock/src/rDock_2013.1_src/data/scripts/dock_solv.prm

>  <Rbt.Receptor>
prm/pocket_docking_3.prm

>  <SCORE>
-21.2528

>  <SCORE.INTER>
-18.8967

>  <SCORE.INTER.CONST>
1

>  <SCORE.INTER.POLAR>
0

>  <SCORE.INTER.ROT>
8

>  <SCORE.INTER.SOLV>
6.84877

>  <SCORE.INTER.VDW>
-23.8141

>  <SCORE.INTER.norm>
-0.726797

>  <SCORE.INTRA>
-2.35608

>  <SCORE.INTRA.DIHEDRAL>
-1.30479

>  <SCORE.INTRA.DIHEDRAL.0>
7.88077

>  <SCORE.INTRA.POLAR>
0

>  <SCORE.INTRA.POLAR.0>
0

>  <SCORE.INTRA.REPUL>
0

>  <SCORE.INTRA.REPUL.0>
0

>  <SCORE.INTRA.SOLV>
-2.23589

>  <SCORE.INTRA.SOLV.lig_0>
-63.2542

>  <SCORE.INTRA.VDW>
-0.585735

>  <SCORE.INTRA.VDW.0>
-3.15072

>  <SCORE.INTRA.norm>
-0.0906183

>  <SCORE.RESTR>
0

>  <SCORE.RESTR.CAVITY>
0

>  <SCORE.RESTR.norm>
0

>  <SCORE.SYSTEM>
0

>  <SCORE.SYSTEM.CONST>
0

>  <SCORE.SYSTEM.DIHEDRAL>
0

>  <SCORE.SYSTEM.SOLV>
0

>  <SCORE.SYSTEM.norm>
0

>  <SCORE.heavy>
26

>  <SCORE.norm>
-0.817415

>  <RMSD>
2.424

$$$$
ligand
 OpenBabel11021811473D
libRbt.so/2013.1/901 2013/11/27
 26 27  0  0  0  0  0  0  0  0999 V2000
   -7.9096  -13.5941   23.8315 C   0  0  0  0  0  0  0  0  0  0  0  0
   -9.9755  -17.0671   26.5608 C   0  0  0  0  0  0  0  0  0  0  0  0
   -9.3606  -16.6496   25.3851 C   0  0  0  0  0  0  0  0  0  0  0  0
   -7.9227  -16.1282   25.3272 C   0  0  0  0  0  0  0  0  0  0  0  0
   -7.4299  -14.9231   23.2404 C   0  0  1  0  0  0  0  0  0  0  0  0
  -13.3723  -18.1652   25.2235 C   0  0  0  0  0  0  0  0  0  0  0  0
  -11.9466  -17.6154   25.2891 C   0  0  0  0  0  0  0  0  0  0  0  0
  -10.0885  -16.7345   24.2025 C   0  0  0  0  0  0  0  0  0  0  0  0
   -6.9762  -17.1523   23.3296 C   0  0  0  0  0  0  0  0  0  0  0  0
   -6.9401  -15.0204   21.9434 C   0  0  2  0  0  0  0  0  0  0  0  0
   -6.7508  -13.9556   20.8600 C   0  0  0  0  0  0  0  0  0  0  0  0
   -7.7268  -14.1137   19.6918 C   0  0  0  0  0  0  0  0  0  0  0  0
  -11.2824  -17.5573   26.5215 N   0  0  0  0  0  0  0  0  0  0  0  0
   -7.4397  -16.0609   23.9404 N   0  0  0  0  0  0  0  0  0  0  0  0
  -11.3234  -17.2001   24.1770 N   0  0  0  0  0  0  0  0  0  0  0  0
   -9.3727  -17.0100   27.6328 O   0  0  0  0  0  0  0  0  0  0  0  0
   -7.8612  -12.5558   16.4689 O   0  5  0  0  0  0  0  0  0  0  0  0
   -6.7975  -10.7381   20.5401 O   0  0  0  0  0  0  0  0  0  0  0  0
   -7.9529  -12.8719   19.0176 O   0  0  0  0  0  0  0  0  0  0  0  0
   -6.8203  -10.7911   17.9827 O   0  0  0  0  0  0  0  0  0  0  0  0
   -4.5821  -10.4564   19.2344 O   0  5  0  0  0  0  0  0  0  0  0  0
   -5.7056  -13.1011   17.7870 O   0  0  0  0  0  0  0  0  0  0  0  0
   -6.3501   -8.5959   19.2052 O   0  0  0  0  0  0  0  0  0  0  0  0
   -6.5656  -16.7031   21.6955 S   0  0  0  0  0  0  0  0  0  0  0  0
   -6.9992  -12.3806   17.8167 P   0  0  2  0  0  0  0  0  0  0  0  0
   -6.0345  -10.1721   19.2408 P   0  0  2  0  0  0  0  0  0  0  0  0
  2 16  2  0  0  0  0
  2  3  1  0  0  0  0
  2 13  1  0  0  0  0
  3  8  2  0  0  0  0
  3  4  1  0  0  0  0
  4 14  1  0  0  0  0
  5  1  1  1  0  0  0
  5 14  1  0  0  0  0
  5 10  1  0  0  0  0
  6  7  1  0  0  0  0
  7 13  1  0  0  0  0
  7 15  2  0  0  0  0
  8 15  1  0  0  0  0
  9 14  1  0  0  0  0
  9 24  1  0  0  0  0
 10 24  1  0  0  0  0
 10 11  1  6  0  0  0
 11 12  1  0  0  0  0
 12 19  1  0  0  0  0
 17 25  1  0  0  0  0
 19 25  1  0  0  0  0
 20 26  1  0  0  0  0
 21 26  1  0  0  0  0
 22 25  2  0  0  0  0
 23 26  2  0  0  0  0
 25 20  1  1  0  0  0
 26 18  1  1  0  0  0
M  CHG  2  17  -1  21  -1
M  END
>  <CHROM.1>
166.70432788,-110.14447707,154.66275724,99.05464359,87.56239330,178.59764207
107.12458404,-56.70679307,-7.87519272,-14.19241590,21.69541960,-2.22387787
-0.89302346,-1.39645795

>  <Name>
ligand

>  <RI>
0

>  <Rbt.Current_Directory>
/home/itssahil/PROJECTS/Mol_Feturizer/New_Systems/rnas/3D2X

>  <Rbt.Executable>
rbdock ($Id: //depot/dev/client3/rdock/2013.1/src/exe/rbdock.cxx#4 $)

>  <Rbt.Library>
libRbt.so (2013.1, Build901 2013/11/27)

>  <Rbt.Parameter_File>
/export/apps/rDock/src/rDock_2013.1_src/data/scripts/dock_solv.prm

>  <Rbt.Receptor>
prm/pocket_docking_6.prm

>  <SCORE>
-22.5561

>  <SCORE.INTER>
-23.3583

>  <SCORE.INTER.CONST>
1

>  <SCORE.INTER.POLAR>
0

>  <SCORE.INTER.ROT>
8

>  <SCORE.INTER.SOLV>
18.2383

>  <SCORE.INTER.VDW>
-30.5849

>  <SCORE.INTER.norm>
-0.898394

>  <SCORE.INTRA>
0.802161

>  <SCORE.INTRA.DIHEDRAL>
4.56796

>  <SCORE.INTRA.DIHEDRAL.0>
7.88077

>  <SCORE.INTRA.POLAR>
0

>  <SCORE.INTRA.POLAR.0>
0

>  <SCORE.INTRA.REPUL>
0

>  <SCORE.INTRA.REPUL.0>
0

>  <SCORE.INTRA.SOLV>
-1.70507

>  <SCORE.INTRA.SOLV.lig_0>
-63.2542

>  <SCORE.INTRA.VDW>
-0.629285

>  <SCORE.INTRA.VDW.0>
-3.15072

>  <SCORE.INTRA.norm>
0.0308523

>  <SCORE.RESTR>
0

>  <SCORE.RESTR.CAVITY>
0

>  <SCORE.RESTR.norm>
0

>  <SCORE.SYSTEM>
0

>  <SCORE.SYSTEM.CONST>
0

>  <SCORE.SYSTEM.DIHEDRAL>
0

>  <SCORE.SYSTEM.SOLV>
0

>  <SCORE.SYSTEM.norm>
0

>  <SCORE.heavy>
26

>  <SCORE.norm>
-0.867542

>  <RMSD>
2.429

$$$$
ligand
 OpenBabel11021811473D
libRbt.so/2013.1/901 2013/11/27
 26 27  0  0  0  0  0  0  0  0999 V2000
   -7.1395  -16.8441   20.6079 C   0  0  0  0  0  0  0  0  0  0  0  0
   -8.7620  -16.6067   25.4515 C   0  0  0  0  0  0  0  0  0  0  0  0
   -8.4357  -16.9216   24.1366 C   0  0  0  0  0  0  0  0  0  0  0  0
   -7.0376  -16.7228   23.5463 C   0  0  0  0  0  0  0  0  0  0  0  0
   -7.0163  -15.5347   21.3926 C   0  0  1  0  0  0  0  0  0  0  0  0
  -12.4165  -17.6878   25.5450 C   0  0  0  0  0  0  0  0  0  0  0  0
  -10.9994  -17.4019   25.0456 C   0  0  0  0  0  0  0  0  0  0  0  0
   -9.4302  -17.4657   23.3301 C   0  0  0  0  0  0  0  0  0  0  0  0
   -6.8924  -14.3032   23.3034 C   0  0  0  0  0  0  0  0  0  0  0  0
   -6.9536  -14.2984   20.7610 C   0  0  2  0  0  0  0  0  0  0  0  0
   -6.9938  -13.9271   19.2764 C   0  0  0  0  0  0  0  0  0  0  0  0
   -6.8846  -12.4196   19.0358 C   0  0  0  0  0  0  0  0  0  0  0  0
  -10.0555  -16.8466   25.9197 N   0  0  0  0  0  0  0  0  0  0  0  0
   -6.9775  -15.5033   22.7277 N   0  0  0  0  0  0  0  0  0  0  0  0
  -10.6498  -17.6888   23.7834 N   0  0  0  0  0  0  0  0  0  0  0  0
   -7.9164  -16.1219   26.2037 O   0  0  0  0  0  0  0  0  0  0  0  0
   -5.2661   -9.7121   18.0986 O   0  5  0  0  0  0  0  0  0  0  0  0
   -2.9884  -13.5059   18.9097 O   0  0  0  0  0  0  0  0  0  0  0  0
   -5.5858  -11.9215   19.3717 O   0  0  0  0  0  0  0  0  0  0  0  0
   -3.2210  -10.9591   18.9659 O   0  0  0  0  0  0  0  0  0  0  0  0
   -0.9368  -12.0462   19.5034 O   0  5  0  0  0  0  0  0  0  0  0  0
   -4.5664  -11.9498   17.0101 O   0  0  0  0  0  0  0  0  0  0  0  0
   -2.8984  -12.2551   21.1455 O   0  0  0  0  0  0  0  0  0  0  0  0
   -6.7731  -13.1186   22.0294 S   0  0  0  0  0  0  0  0  0  0  0  0
   -4.6562  -11.1907   18.2786 P   0  0  2  0  0  0  0  0  0  0  0  0
   -2.4062  -12.1822   19.6166 P   0  0  2  0  0  0  0  0  0  0  0  0
  2 16  2  0  0  0  0
  2  3  1  0  0  0  0
  2 13  1  0  0  0  0
  3  8  2  0  0  0  0
  3  4  1  0  0  0  0
  4 14  1  0  0  0  0
  5  1  1  1  0  0  0
  5 14  1  0  0  0  0
  5 10  1  0  0  0  0
  6  7  1  0  0  0  0
  7 13  1  0  0  0  0
  7 15  2  0  0  0  0
  8 15  1  0  0  0  0
  9 14  1  0  0  0  0
  9 24  1  0  0  0  0
 10 24  1  0  0  0  0
 10 11  1  6  0  0  0
 11 12  1  0  0  0  0
 12 19  1  0  0  0  0
 17 25  1  0  0  0  0
 19 25  1  0  0  0  0
 20 26  1  0  0  0  0
 21 26  1  0  0  0  0
 22 25  2  0  0  0  0
 23 26  2  0  0  0  0
 25 20  1  1  0  0  0
 26 18  1  6  0  0  0
M  CHG  2  17  -1  21  -1
M  END
>  <CHROM.1>
-101.12507223,-179.64840814,68.65016731,-101.94152613,120.44294495,166.45439244
76.33838905,22.07911577,-6.30007056,-14.02931498,21.33540061,2.24455103,0.22858920
2.13085918

>  <Name>
ligand

>  <RI>
0

>  <Rbt.Current_Directory>
/home/itssahil/PROJECTS/Mol_Feturizer/New_Systems/rnas/3D2X

>  <Rbt.Executable>
rbdock ($Id: //depot/dev/client3/rdock/2013.1/src/exe/rbdock.cxx#4 $)

>  <Rbt.Library>
libRbt.so (2013.1, Build901 2013/11/27)

>  <Rbt.Parameter_File>
/export/apps/rDock/src/rDock_2013.1_src/data/scripts/dock_solv.prm

>  <Rbt.Receptor>
prm/pocket_docking_2.prm

>  <SCORE>
-10.2213

>  <SCORE.INTER>
-11.6661

>  <SCORE.INTER.CONST>
1

>  <SCORE.INTER.POLAR>
0

>  <SCORE.INTER.ROT>
8

>  <SCORE.INTER.SOLV>
6.00101

>  <SCORE.INTER.VDW>
-18.7111

>  <SCORE.INTER.norm>
-0.448698

>  <SCORE.INTRA>
1.24201

>  <SCORE.INTRA.DIHEDRAL>
5.99659

>  <SCORE.INTRA.DIHEDRAL.0>
7.88077

>  <SCORE.INTRA.POLAR>
0

>  <SCORE.INTRA.POLAR.0>
0

>  <SCORE.INTRA.REPUL>
0

>  <SCORE.INTRA.REPUL.0>
0

>  <SCORE.INTRA.SOLV>
-2.47586

>  <SCORE.INTRA.SOLV.lig_0>
-63.2542

>  <SCORE.INTRA.VDW>
-0.518355

>  <SCORE.INTRA.VDW.0>
-3.15072

>  <SCORE.INTRA.norm>
0.0477696

>  <SCORE.RESTR>
0.202831

>  <SCORE.RESTR.CAVITY>
0.202831

>  <SCORE.RESTR.norm>
0.00780118

>  <SCORE.SYSTEM>
0

>  <SCORE.SYSTEM.CONST>
0

>  <SCORE.SYSTEM.DIHEDRAL>
0

>  <SCORE.SYSTEM.SOLV>
0

>  <SCORE.SYSTEM.norm>
0

>  <SCORE.heavy>
26

>  <SCORE.norm>
-0.393127

>  <RMSD>
2.431

$$$$
ligand
 OpenBabel11021811473D
libRbt.so/2013.1/901 2013/11/27
 26 27  0  0  0  0  0  0  0  0999 V2000
   -7.3445  -17.4140   22.7996 C   0  0  0  0  0  0  0  0  0  0  0  0
  -10.0213  -16.8411   26.5020 C   0  0  0  0  0  0  0  0  0  0  0  0
   -9.5037  -16.4120   25.2844 C   0  0  0  0  0  0  0  0  0  0  0  0
   -8.1117  -15.7938   25.1332 C   0  0  0  0  0  0  0  0  0  0  0  0
   -7.5897  -15.9037   22.7320 C   0  0  1  0  0  0  0  0  0  0  0  0
  -13.4010  -18.2058   25.3851 C   0  0  0  0  0  0  0  0  0  0  0  0
  -12.0163  -17.5570   25.3573 C   0  0  0  0  0  0  0  0  0  0  0  0
  -10.2883  -16.5773   24.1475 C   0  0  0  0  0  0  0  0  0  0  0  0
   -8.1526  -13.8846   23.6205 C   0  0  0  0  0  0  0  0  0  0  0  0
   -7.4744  -15.1893   21.5455 C   0  0  2  0  0  0  0  0  0  0  0  0
   -7.1207  -15.6480   20.1285 C   0  0  0  0  0  0  0  0  0  0  0  0
   -5.7105  -16.2339   20.0263 C   0  0  0  0  0  0  0  0  0  0  0  0
  -11.2904  -17.4216   26.5481 N   0  0  0  0  0  0  0  0  0  0  0  0
   -7.9429  -15.1890   23.8040 N   0  0  0  0  0  0  0  0  0  0  0  0
  -11.4868  -17.1279   24.2026 N   0  0  0  0  0  0  0  0  0  0  0  0
   -9.3654  -16.7150   27.5363 O   0  0  0  0  0  0  0  0  0  0  0  0
   -5.5219  -14.0044   17.9471 O   0  5  0  0  0  0  0  0  0  0  0  0
   -3.7770  -13.0103   21.7108 O   0  0  0  0  0  0  0  0  0  0  0  0
   -4.7081  -15.2133   20.0638 O   0  0  0  0  0  0  0  0  0  0  0  0
   -3.4696  -13.1258   19.1740 O   0  0  0  0  0  0  0  0  0  0  0  0
   -1.6575  -14.1210   20.7278 O   0  5  0  0  0  0  0  0  0  0  0  0
   -3.3198  -15.3572   17.9031 O   0  0  0  0  0  0  0  0  0  0  0  0
   -1.9838  -11.5802   20.5661 O   0  0  0  0  0  0  0  0  0  0  0  0
   -7.7919  -13.5259   21.9526 S   0  0  0  0  0  0  0  0  0  0  0  0
   -4.1958  -14.4872   18.7209 P   0  0  2  0  0  0  0  0  0  0  0  0
   -2.6551  -13.0412   20.5571 P   0  0  2  0  0  0  0  0  0  0  0  0
  2 16  2  0  0  0  0
  2  3  1  0  0  0  0
  2 13  1  0  0  0  0
  3  8  2  0  0  0  0
  3  4  1  0  0  0  0
  4 14  1  0  0  0  0
  5  1  1  6  0  0  0
  5 14  1  0  0  0  0
  5 10  1  0  0  0  0
  6  7  1  0  0  0  0
  7 13  1  0  0  0  0
  7 15  2  0  0  0  0
  8 15  1  0  0  0  0
  9 14  1  0  0  0  0
  9 24  1  0  0  0  0
 10 24  1  0  0  0  0
 10 11  1  1  0  0  0
 11 12  1  0  0  0  0
 12 19  1  0  0  0  0
 17 25  1  0  0  0  0
 19 25  1  0  0  0  0
 20 26  1  0  0  0  0
 21 26  1  0  0  0  0
 22 25  2  0  0  0  0
 23 26  2  0  0  0  0
 25 20  1  1  0  0  0
 26 18  1  1  0  0  0
M  CHG  2  17  -1  21  -1
M  END
>  <CHROM.1>
-168.34101708,-62.74461196,-75.06168940,-83.50209145,-88.73525223,145.70570982
50.72295961,-73.61237999,-6.71041573,-15.10250517,22.09870275,2.61769910
0.54690752,1.34621931

>  <Name>
ligand

>  <RI>
0

>  <Rbt.Current_Directory>
/home/itssahil/PROJECTS/Mol_Feturizer/New_Systems/rnas/3D2X

>  <Rbt.Executable>
rbdock ($Id: //depot/dev/client3/rdock/2013.1/src/exe/rbdock.cxx#4 $)

>  <Rbt.Library>
libRbt.so (2013.1, Build901 2013/11/27)

>  <Rbt.Parameter_File>
/export/apps/rDock/src/rDock_2013.1_src/data/scripts/dock_solv.prm

>  <Rbt.Receptor>
prm/pocket_docking_2.prm

>  <SCORE>
-19.2052

>  <SCORE.INTER>
-18.88

>  <SCORE.INTER.CONST>
1

>  <SCORE.INTER.POLAR>
0

>  <SCORE.INTER.ROT>
8

>  <SCORE.INTER.SOLV>
9.62914

>  <SCORE.INTER.VDW>
-24.7297

>  <SCORE.INTER.norm>
-0.726154

>  <SCORE.INTRA>
-0.325191

>  <SCORE.INTRA.DIHEDRAL>
2.48669

>  <SCORE.INTRA.DIHEDRAL.0>
7.88077

>  <SCORE.INTRA.POLAR>
0

>  <SCORE.INTRA.POLAR.0>
0

>  <SCORE.INTRA.REPUL>
0

>  <SCORE.INTRA.REPUL.0>
0

>  <SCORE.INTRA.SOLV>
-1.73941

>  <SCORE.INTRA.SOLV.lig_0>
-63.2542

>  <SCORE.INTRA.VDW>
-0.698833

>  <SCORE.INTRA.VDW.0>
-3.15072

>  <SCORE.INTRA.norm>
-0.0125074

>  <SCORE.RESTR>
0

>  <SCORE.RESTR.CAVITY>
0

>  <SCORE.RESTR.norm>
0

>  <SCORE.SYSTEM>
0

>  <SCORE.SYSTEM.CONST>
0

>  <SCORE.SYSTEM.DIHEDRAL>
0

>  <SCORE.SYSTEM.SOLV>
0

>  <SCORE.SYSTEM.norm>
0

>  <SCORE.heavy>
26

>  <SCORE.norm>
-0.738662

>  <RMSD>
2.431

$$$$
ligand
 OpenBabel11021811473D
libRbt.so/2013.1/901 2013/11/27
 26 27  0  0  0  0  0  0  0  0999 V2000
   -7.3329  -14.1666   22.9924 C   0  0  0  0  0  0  0  0  0  0  0  0
   -9.9743  -16.7532   25.8080 C   0  0  0  0  0  0  0  0  0  0  0  0
   -9.6072  -17.0541   24.5005 C   0  0  0  0  0  0  0  0  0  0  0  0
   -8.2019  -16.8118   23.9446 C   0  0  0  0  0  0  0  0  0  0  0  0
   -7.8669  -15.2617   22.0644 C   0  0  1  0  0  0  0  0  0  0  0  0
  -13.5960  -17.9430   25.8106 C   0  0  0  0  0  0  0  0  0  0  0  0
  -12.1766  -17.6135   25.3462 C   0  0  0  0  0  0  0  0  0  0  0  0
  -10.5653  -17.6250   23.6689 C   0  0  0  0  0  0  0  0  0  0  0  0
   -8.6769  -17.3413   21.6146 C   0  0  0  0  0  0  0  0  0  0  0  0
   -7.9687  -15.0803   20.6903 C   0  0  2  0  0  0  0  0  0  0  0  0
   -7.6117  -13.8818   19.8074 C   0  0  0  0  0  0  0  0  0  0  0  0
   -6.2181  -13.9942   19.1848 C   0  0  0  0  0  0  0  0  0  0  0  0
  -11.2709  -17.0331   26.2442 N   0  0  0  0  0  0  0  0  0  0  0  0
   -8.2507  -16.4580   22.5186 N   0  0  0  0  0  0  0  0  0  0  0  0
  -11.7882  -17.8857   24.0921 N   0  0  0  0  0  0  0  0  0  0  0  0
   -9.1619  -16.2458   26.5815 O   0  0  0  0  0  0  0  0  0  0  0  0
   -4.8941  -16.9274   16.9360 O   0  5  0  0  0  0  0  0  0  0  0  0
   -4.8884  -12.5683   14.4550 O   0  0  0  0  0  0  0  0  0  0  0  0
   -6.0928  -15.1658   18.3729 O   0  0  0  0  0  0  0  0  0  0  0  0
   -5.0861  -14.5371   16.0762 O   0  0  0  0  0  0  0  0  0  0  0  0
   -5.4903  -12.1305   16.9325 O   0  5  0  0  0  0  0  0  0  0  0  0
   -3.5413  -15.0395   18.0707 O   0  0  0  0  0  0  0  0  0  0  0  0
   -3.1296  -12.9058   16.2891 O   0  0  0  0  0  0  0  0  0  0  0  0
   -8.6598  -16.5499   20.0609 S   0  0  0  0  0  0  0  0  0  0  0  0
   -4.8202  -15.3917   17.4122 P   0  0  2  0  0  0  0  0  0  0  0  0
   -4.7100  -12.9762   16.0018 P   0  0  2  0  0  0  0  0  0  0  0  0
  2 16  2  0  0  0  0
  2  3  1  0  0  0  0
  2 13  1  0  0  0  0
  3  8  2  0  0  0  0
  3  4  1  0  0  0  0
  4 14  1  0  0  0  0
  5  1  1  6  0  0  0
  5 14  1  0  0  0  0
  5 10  1  0  0  0  0
  6  7  1  0  0  0  0
  7 13  1  0  0  0  0
  7 15  2  0  0  0  0
  8 15  1  0  0  0  0
  9 14  1  0  0  0  0
  9 24  1  0  0  0  0
 10 24  1  0  0  0  0
 10 11  1  1  0  0  0
 11 12  1  0  0  0  0
 12 19  1  0  0  0  0
 17 25  1  0  0  0  0
 19 25  1  0  0  0  0
 20 26  1  0  0  0  0
 21 26  1  0  0  0  0
 22 25  2  0  0  0  0
 23 26  2  0  0  0  0
 25 20  1  6  0  0  0
 26 18  1  6  0  0  0
M  CHG  2  17  -1  21  -1
M  END
>  <CHROM.1>
-146.92669910,95.82784002,59.22510531,115.26001364,169.58182766,-163.07842958
167.93299529,170.53335070,-7.41070843,-15.44019626,20.41775051,-2.52458667
-0.82249624,-2.00043090

>  <Name>
ligand

>  <RI>
0

>  <Rbt.Current_Directory>
/home/itssahil/PROJECTS/Mol_Feturizer/New_Systems/rnas/3D2X

>  <Rbt.Executable>
rbdock ($Id: //depot/dev/client3/rdock/2013.1/src/exe/rbdock.cxx#4 $)

>  <Rbt.Library>
libRbt.so (2013.1, Build901 2013/11/27)

>  <Rbt.Parameter_File>
/export/apps/rDock/src/rDock_2013.1_src/data/scripts/dock_solv.prm

>  <Rbt.Receptor>
prm/pocket_docking_4.prm

>  <SCORE>
-23.7191

>  <SCORE.INTER>
-23.1659

>  <SCORE.INTER.CONST>
1

>  <SCORE.INTER.POLAR>
0

>  <SCORE.INTER.ROT>
8

>  <SCORE.INTER.SOLV>
8.58371

>  <SCORE.INTER.VDW>
-27.2385

>  <SCORE.INTER.norm>
-0.890997

>  <SCORE.INTRA>
-0.553221

>  <SCORE.INTRA.DIHEDRAL>
-1.24508

>  <SCORE.INTRA.DIHEDRAL.0>
7.88077

>  <SCORE.INTRA.POLAR>
0

>  <SCORE.INTRA.POLAR.0>
0

>  <SCORE.INTRA.REPUL>
0

>  <SCORE.INTRA.REPUL.0>
0

>  <SCORE.INTRA.SOLV>
0.779528

>  <SCORE.INTRA.SOLV.lig_0>
-63.2542

>  <SCORE.INTRA.VDW>
-0.320448

>  <SCORE.INTRA.VDW.0>
-3.15072

>  <SCORE.INTRA.norm>
-0.0212777

>  <SCORE.RESTR>
0

>  <SCORE.RESTR.CAVITY>
0

>  <SCORE.RESTR.norm>
0

>  <SCORE.SYSTEM>
0

>  <SCORE.SYSTEM.CONST>
0

>  <SCORE.SYSTEM.DIHEDRAL>
0

>  <SCORE.SYSTEM.SOLV>
0

>  <SCORE.SYSTEM.norm>
0

>  <SCORE.heavy>
26

>  <SCORE.norm>
-0.912274

>  <RMSD>
2.449

$$$$
ligand
 OpenBabel11021811473D
libRbt.so/2013.1/901 2013/11/27
 26 27  0  0  0  0  0  0  0  0999 V2000
   -7.1459  -14.2952   24.9665 C   0  0  0  0  0  0  0  0  0  0  0  0
  -10.0754  -16.8975   26.0264 C   0  0  0  0  0  0  0  0  0  0  0  0
   -9.6244  -17.1742   24.7401 C   0  0  0  0  0  0  0  0  0  0  0  0
   -8.1743  -16.9692   24.2950 C   0  0  0  0  0  0  0  0  0  0  0  0
   -7.6188  -14.6874   23.5636 C   0  0  1  0  0  0  0  0  0  0  0  0
  -13.7276  -17.9494   25.7299 C   0  0  0  0  0  0  0  0  0  0  0  0
  -12.2670  -17.6604   25.3800 C   0  0  0  0  0  0  0  0  0  0  0  0
  -10.5386  -17.6843   23.8239 C   0  0  0  0  0  0  0  0  0  0  0  0
   -8.4391  -16.1441   22.0182 C   0  0  0  0  0  0  0  0  0  0  0  0
   -7.5839  -13.7973   22.4969 C   0  0  2  0  0  0  0  0  0  0  0  0
   -7.1114  -12.3433   22.4185 C   0  0  0  0  0  0  0  0  0  0  0  0
   -6.5915  -11.9595   21.0312 C   0  0  0  0  0  0  0  0  0  0  0  0
  -11.4096  -17.1407   26.3588 N   0  0  0  0  0  0  0  0  0  0  0  0
   -8.0770  -15.9099   23.2804 N   0  0  0  0  0  0  0  0  0  0  0  0
  -11.7977  -17.9108   24.1492 N   0  0  0  0  0  0  0  0  0  0  0  0
   -9.3044  -16.4436   26.8723 O   0  0  0  0  0  0  0  0  0  0  0  0
   -5.4861  -11.4447   18.4339 O   0  5  0  0  0  0  0  0  0  0  0  0
   -2.7910  -14.2562   21.1034 O   0  0  0  0  0  0  0  0  0  0  0  0
   -5.5932  -12.8737   20.5671 O   0  0  0  0  0  0  0  0  0  0  0  0
   -3.5162  -12.9461   19.0295 O   0  0  0  0  0  0  0  0  0  0  0  0
   -3.2467  -15.5145   18.8895 O   0  5  0  0  0  0  0  0  0  0  0  0
   -5.7285  -14.0126   18.2645 O   0  0  0  0  0  0  0  0  0  0  0  0
   -1.1883  -13.9984   19.1195 O   0  0  0  0  0  0  0  0  0  0  0  0
   -8.2519  -14.6524   21.1346 S   0  0  0  0  0  0  0  0  0  0  0  0
   -5.1235  -12.8963   19.0270 P   0  0  2  0  0  0  0  0  0  0  0  0
   -2.7284  -14.2675   19.4951 P   0  0  2  0  0  0  0  0  0  0  0  0
  2 16  2  0  0  0  0
  2  3  1  0  0  0  0
  2 13  1  0  0  0  0
  3  8  2  0  0  0  0
  3  4  1  0  0  0  0
  4 14  1  0  0  0  0
  5  1  1  6  0  0  0
  5 14  1  0  0  0  0
  5 10  1  0  0  0  0
  6  7  1  0  0  0  0
  7 13  1  0  0  0  0
  7 15  2  0  0  0  0
  8 15  1  0  0  0  0
  9 14  1  0  0  0  0
  9 24  1  0  0  0  0
 10 24  1  0  0  0  0
 10 11  1  1  0  0  0
 11 12  1  0  0  0  0
 12 19  1  0  0  0  0
 17 25  1  0  0  0  0
 19 25  1  0  0  0  0
 20 26  1  0  0  0  0
 21 26  1  0  0  0  0
 22 25  2  0  0  0  0
 23 26  2  0  0  0  0
 25 20  1  6  0  0  0
 26 18  1  1  0  0  0
M  CHG  2  17  -1  21  -1
M  END
>  <CHROM.1>
-114.13025878,151.21282189,-52.62635030,104.18214025,166.14641058,-177.34041819
22.57667186,-77.83696841,-7.02148724,-14.85351609,21.96679131,-2.37663398
0.14225307,-0.87581190

>  <Name>
ligand

>  <RI>
0

>  <Rbt.Current_Directory>
/home/itssahil/PROJECTS/Mol_Feturizer/New_Systems/rnas/3D2X

>  <Rbt.Executable>
rbdock ($Id: //depot/dev/client3/rdock/2013.1/src/exe/rbdock.cxx#4 $)

>  <Rbt.Library>
libRbt.so (2013.1, Build901 2013/11/27)

>  <Rbt.Parameter_File>
/export/apps/rDock/src/rDock_2013.1_src/data/scripts/dock_solv.prm

>  <Rbt.Receptor>
prm/pocket_docking_2.prm

>  <SCORE>
-14.4835

>  <SCORE.INTER>
-14.5096

>  <SCORE.INTER.CONST>
1

>  <SCORE.INTER.POLAR>
0

>  <SCORE.INTER.ROT>
8

>  <SCORE.INTER.SOLV>
8.504

>  <SCORE.INTER.VDW>
-21.4411

>  <SCORE.INTER.norm>
-0.558062

>  <SCORE.INTRA>
-1.30892

>  <SCORE.INTRA.DIHEDRAL>
0.305057

>  <SCORE.INTRA.DIHEDRAL.0>
7.88077

>  <SCORE.INTRA.POLAR>
0

>  <SCORE.INTRA.POLAR.0>
0

>  <SCORE.INTRA.REPUL>
0

>  <SCORE.INTRA.REPUL.0>
0

>  <SCORE.INTRA.SOLV>
-2.12547

>  <SCORE.INTRA.SOLV.lig_0>
-63.2542

>  <SCORE.INTRA.VDW>
-0.398715

>  <SCORE.INTRA.VDW.0>
-3.15072

>  <SCORE.INTRA.norm>
-0.0503431

>  <SCORE.RESTR>
1.335

>  <SCORE.RESTR.CAVITY>
1.335

>  <SCORE.RESTR.norm>
0.0513463

>  <SCORE.SYSTEM>
0

>  <SCORE.SYSTEM.CONST>
0

>  <SCORE.SYSTEM.DIHEDRAL>
0

>  <SCORE.SYSTEM.SOLV>
0

>  <SCORE.SYSTEM.norm>
0

>  <SCORE.heavy>
26

>  <SCORE.norm>
-0.557059

>  <RMSD>
2.475

$$$$
ligand
 OpenBabel11021811473D
libRbt.so/2013.1/901 2013/11/27
 26 27  0  0  0  0  0  0  0  0999 V2000
   -8.1107  -17.2631   22.1206 C   0  0  0  0  0  0  0  0  0  0  0  0
  -10.2253  -17.0945   26.4733 C   0  0  0  0  0  0  0  0  0  0  0  0
   -9.7284  -16.8324   25.2008 C   0  0  0  0  0  0  0  0  0  0  0  0
   -8.2806  -16.4142   24.9330 C   0  0  0  0  0  0  0  0  0  0  0  0
   -8.1233  -15.7953   22.5576 C   0  0  1  0  0  0  0  0  0  0  0  0
  -13.8082  -18.0910   25.6349 C   0  0  0  0  0  0  0  0  0  0  0  0
  -12.3567  -17.6319   25.4876 C   0  0  0  0  0  0  0  0  0  0  0  0
  -10.5913  -16.9824   24.1199 C   0  0  0  0  0  0  0  0  0  0  0  0
   -8.2331  -14.1251   24.1009 C   0  0  0  0  0  0  0  0  0  0  0  0
   -8.0647  -14.7516   21.6418 C   0  0  2  0  0  0  0  0  0  0  0  0
   -7.9888  -14.7616   20.1129 C   0  0  0  0  0  0  0  0  0  0  0  0
   -6.5764  -15.0289   19.5879 C   0  0  0  0  0  0  0  0  0  0  0  0
  -11.5527  -17.4997   26.6275 N   0  0  0  0  0  0  0  0  0  0  0  0
   -8.2067  -15.4330   23.8408 N   0  0  0  0  0  0  0  0  0  0  0  0
  -11.8443  -17.3665   24.2774 N   0  0  0  0  0  0  0  0  0  0  0  0
   -9.5007  -16.9747   27.4614 O   0  0  0  0  0  0  0  0  0  0  0  0
   -4.5164  -12.4776   17.4172 O   0  5  0  0  0  0  0  0  0  0  0  0
   -1.5284  -14.6195   19.6921 O   0  0  0  0  0  0  0  0  0  0  0  0
   -6.1485  -14.0130   18.6755 O   0  0  0  0  0  0  0  0  0  0  0  0
   -3.8164  -13.4763   19.6536 O   0  0  0  0  0  0  0  0  0  0  0  0
   -1.7942  -12.3275   18.5224 O   0  5  0  0  0  0  0  0  0  0  0  0
   -4.0350  -15.0106   17.6007 O   0  0  0  0  0  0  0  0  0  0  0  0
   -1.9316  -12.5021   21.0795 O   0  0  0  0  0  0  0  0  0  0  0  0
   -8.0575  -13.2858   22.5824 S   0  0  0  0  0  0  0  0  0  0  0  0
   -4.5957  -13.8266   18.2914 P   0  0  2  0  0  0  0  0  0  0  0  0
   -2.2375  -13.1751   19.6517 P   0  0  2  0  0  0  0  0  0  0  0  0
  2 16  2  0  0  0  0
  2  3  1  0  0  0  0
  2 13  1  0  0  0  0
  3  8  2  0  0  0  0
  3  4  1  0  0  0  0
  4 14  1  0  0  0  0
  5  1  1  6  0  0  0
  5 14  1  0  0  0  0
  5 10  1  0  0  0  0
  6  7  1  0  0  0  0
  7 13  1  0  0  0  0
  7 15  2  0  0  0  0
  8 15  1  0  0  0  0
  9 14  1  0  0  0  0
  9 24  1  0  0  0  0
 10 24  1  0  0  0  0
 10 11  1  1  0  0  0
 11 12  1  0  0  0  0
 12 19  1  0  0  0  0
 17 25  1  0  0  0  0
 19 25  1  0  0  0  0
 20 26  1  0  0  0  0
 21 26  1  0  0  0  0
 22 25  2  0  0  0  0
 23 26  2  0  0  0  0
 25 20  1  1  0  0  0
 26 18  1  6  0  0  0
M  CHG  2  17  -1  21  -1
M  END
>  <CHROM.1>
-143.37401703,-79.94717596,-125.98451404,-87.10643173,163.13353284,-66.00697217
-172.48841835,-83.23976071,-6.90913240,-14.96399355,21.81835333,2.44357570
0.35526294,1.68826271

>  <Name>
ligand

>  <RI>
0

>  <Rbt.Current_Directory>
/home/itssahil/PROJECTS/Mol_Feturizer/New_Systems/rnas/3D2X

>  <Rbt.Executable>
rbdock ($Id: //depot/dev/client3/rdock/2013.1/src/exe/rbdock.cxx#4 $)

>  <Rbt.Library>
libRbt.so (2013.1, Build901 2013/11/27)

>  <Rbt.Parameter_File>
/export/apps/rDock/src/rDock_2013.1_src/data/scripts/dock_solv.prm

>  <Rbt.Receptor>
prm/pocket_docking_2.prm

>  <SCORE>
-17.7737

>  <SCORE.INTER>
-18.89

>  <SCORE.INTER.CONST>
1

>  <SCORE.INTER.POLAR>
0

>  <SCORE.INTER.ROT>
8

>  <SCORE.INTER.SOLV>
7.66807

>  <SCORE.INTER.VDW>
-24.0827

>  <SCORE.INTER.norm>
-0.72654

>  <SCORE.INTRA>
1.05472

>  <SCORE.INTRA.DIHEDRAL>
4.0112

>  <SCORE.INTRA.DIHEDRAL.0>
7.88077

>  <SCORE.INTRA.POLAR>
0

>  <SCORE.INTRA.POLAR.0>
0

>  <SCORE.INTRA.REPUL>
0

>  <SCORE.INTRA.REPUL.0>
0

>  <SCORE.INTRA.SOLV>
-1.30768

>  <SCORE.INTRA.SOLV.lig_0>
-63.2542

>  <SCORE.INTRA.VDW>
-0.297039

>  <SCORE.INTRA.VDW.0>
-3.15072

>  <SCORE.INTRA.norm>
0.0405663

>  <SCORE.RESTR>
0.0616521

>  <SCORE.RESTR.CAVITY>
0.0616521

>  <SCORE.RESTR.norm>
0.00237124

>  <SCORE.SYSTEM>
0

>  <SCORE.SYSTEM.CONST>
0

>  <SCORE.SYSTEM.DIHEDRAL>
0

>  <SCORE.SYSTEM.SOLV>
0

>  <SCORE.SYSTEM.norm>
0

>  <SCORE.heavy>
26

>  <SCORE.norm>
-0.683602

>  <RMSD>
2.481

$$$$
ligand
 OpenBabel11021811473D
libRbt.so/2013.1/901 2013/11/27
 26 27  0  0  0  0  0  0  0  0999 V2000
   -8.1606  -13.6807   23.6523 C   0  0  0  0  0  0  0  0  0  0  0  0
  -10.1661  -17.0559   23.9743 C   0  0  0  0  0  0  0  0  0  0  0  0
   -9.2864  -16.7922   25.0190 C   0  0  0  0  0  0  0  0  0  0  0  0
   -7.8314  -16.3675   24.8063 C   0  0  0  0  0  0  0  0  0  0  0  0
   -7.7067  -14.8965   22.8389 C   0  0  1  0  0  0  0  0  0  0  0  0
  -13.3434  -17.8623   25.9204 C   0  0  0  0  0  0  0  0  0  0  0  0
  -11.8959  -17.4925   25.5931 C   0  0  0  0  0  0  0  0  0  0  0  0
   -9.7674  -16.9002   26.3199 C   0  0  0  0  0  0  0  0  0  0  0  0
   -7.1354  -17.0856   22.5848 C   0  0  0  0  0  0  0  0  0  0  0  0
   -7.4061  -14.8086   21.4849 C   0  0  2  0  0  0  0  0  0  0  0  0
   -7.4288  -13.6142   20.5277 C   0  0  0  0  0  0  0  0  0  0  0  0
   -6.0366  -13.2292   20.0218 C   0  0  0  0  0  0  0  0  0  0  0  0
  -11.4872  -17.4101   24.2553 N   0  0  0  0  0  0  0  0  0  0  0  0
   -7.5586  -16.1065   23.3856 N   0  0  0  0  0  0  0  0  0  0  0  0
  -11.0187  -17.2353   26.5740 N   0  0  0  0  0  0  0  0  0  0  0  0
   -9.7869  -16.9750   22.8058 O   0  0  0  0  0  0  0  0  0  0  0  0
   -4.5346  -11.0651   21.7410 O   0  5  0  0  0  0  0  0  0  0  0  0
   -3.2690  -10.1111   19.4321 O   0  0  0  0  0  0  0  0  0  0  0  0
   -5.9450  -11.8305   19.7337 O   0  0  0  0  0  0  0  0  0  0  0  0
   -5.5735   -9.3164   20.2075 O   0  0  0  0  0  0  0  0  0  0  0  0
   -5.0853   -9.5476   17.6783 O   0  5  0  0  0  0  0  0  0  0  0  0
   -7.0950  -10.7101   21.7435 O   0  0  0  0  0  0  0  0  0  0  0  0
   -3.9858   -7.6793   19.0526 O   0  0  0  0  0  0  0  0  0  0  0  0
   -6.9888  -16.4220   20.9789 S   0  0  0  0  0  0  0  0  0  0  0  0
   -5.8716  -10.7322   20.9091 P   0  0  2  0  0  0  0  0  0  0  0  0
   -4.5198   -9.1950   18.9998 P   0  0  2  0  0  0  0  0  0  0  0  0
  2 16  2  0  0  0  0
  2  3  1  0  0  0  0
  2 13  1  0  0  0  0
  3  8  2  0  0  0  0
  3  4  1  0  0  0  0
  4 14  1  0  0  0  0
  5  1  1  1  0  0  0
  5 14  1  0  0  0  0
  5 10  1  0  0  0  0
  6  7  1  0  0  0  0
  7 13  1  0  0  0  0
  7 15  2  0  0  0  0
  8 15  1  0  0  0  0
  9 14  1  0  0  0  0
  9 24  1  0  0  0  0
 10 24  1  0  0  0  0
 10 11  1  6  0  0  0
 11 12  1  0  0  0  0
 12 19  1  0  0  0  0
 17 25  1  0  0  0  0
 19 25  1  0  0  0  0
 20 26  1  0  0  0  0
 21 26  1  0  0  0  0
 22 25  2  0  0  0  0
 23 26  2  0  0  0  0
 25 20  1  6  0  0  0
 26 18  1  1  0  0  0
M  CHG  2  17  -1  21  -1
M  END
>  <CHROM.1>
7.62342647,113.68291443,-150.32012830,90.72627109,73.72430575,70.88145986
61.09792885,-42.32609109,-7.31588083,-13.59256602,21.94908587,2.49520706
-0.85945209,-2.97003084

>  <Name>
ligand

>  <RI>
0

>  <Rbt.Current_Directory>
/home/itssahil/PROJECTS/Mol_Feturizer/New_Systems/rnas/3D2X

>  <Rbt.Executable>
rbdock ($Id: //depot/dev/client3/rdock/2013.1/src/exe/rbdock.cxx#4 $)

>  <Rbt.Library>
libRbt.so (2013.1, Build901 2013/11/27)

>  <Rbt.Parameter_File>
/export/apps/rDock/src/rDock_2013.1_src/data/scripts/dock_solv.prm

>  <Rbt.Receptor>
prm/pocket_docking_5.prm

>  <SCORE>
-17.735

>  <SCORE.INTER>
-18.6473

>  <SCORE.INTER.CONST>
1

>  <SCORE.INTER.POLAR>
0

>  <SCORE.INTER.ROT>
8

>  <SCORE.INTER.SOLV>
12.1676

>  <SCORE.INTER.VDW>
-25.4208

>  <SCORE.INTER.norm>
-0.717205

>  <SCORE.INTRA>
0.912316

>  <SCORE.INTRA.DIHEDRAL>
2.05537

>  <SCORE.INTRA.DIHEDRAL.0>
7.88077

>  <SCORE.INTRA.POLAR>
0

>  <SCORE.INTRA.POLAR.0>
0

>  <SCORE.INTRA.REPUL>
0

>  <SCORE.INTRA.REPUL.0>
0

>  <SCORE.INTRA.SOLV>
-0.0465875

>  <SCORE.INTRA.SOLV.lig_0>
-63.2542

>  <SCORE.INTRA.VDW>
-0.0920755

>  <SCORE.INTRA.VDW.0>
-3.15072

>  <SCORE.INTRA.norm>
0.0350891

>  <SCORE.RESTR>
0

>  <SCORE.RESTR.CAVITY>
0

>  <SCORE.RESTR.norm>
0

>  <SCORE.SYSTEM>
0

>  <SCORE.SYSTEM.CONST>
0

>  <SCORE.SYSTEM.DIHEDRAL>
0

>  <SCORE.SYSTEM.SOLV>
0

>  <SCORE.SYSTEM.norm>
0

>  <SCORE.heavy>
26

>  <SCORE.norm>
-0.682116

>  <RMSD>
2.484

$$$$
ligand
 OpenBabel11021811473D
libRbt.so/2013.1/901 2013/11/27
 26 27  0  0  0  0  0  0  0  0999 V2000
   -8.2990  -15.0488   22.3683 C   0  0  0  0  0  0  0  0  0  0  0  0
  -10.2201  -17.4951   24.0873 C   0  0  0  0  0  0  0  0  0  0  0  0
   -9.3505  -17.0065   25.0566 C   0  0  0  0  0  0  0  0  0  0  0  0
   -7.8806  -16.6810   24.7808 C   0  0  0  0  0  0  0  0  0  0  0  0
   -7.8273  -14.4695   23.7053 C   0  0  1  0  0  0  0  0  0  0  0  0
  -13.4509  -17.7284   26.0973 C   0  0  0  0  0  0  0  0  0  0  0  0
  -11.9882  -17.4838   25.7234 C   0  0  0  0  0  0  0  0  0  0  0  0
   -9.8558  -16.7834   26.3335 C   0  0  0  0  0  0  0  0  0  0  0  0
   -7.2587  -14.6113   25.9052 C   0  0  0  0  0  0  0  0  0  0  0  0
   -7.5716  -13.1139   23.8736 C   0  0  2  0  0  0  0  0  0  0  0  0
   -7.6817  -11.9430   22.8937 C   0  0  0  0  0  0  0  0  0  0  0  0
   -6.4338  -11.7742   22.0239 C   0  0  0  0  0  0  0  0  0  0  0  0
  -11.5553  -17.7388   24.4154 N   0  0  0  0  0  0  0  0  0  0  0  0
   -7.6494  -15.2292   24.7897 N   0  0  0  0  0  0  0  0  0  0  0  0
  -11.1202  -17.0169   26.6325 N   0  0  0  0  0  0  0  0  0  0  0  0
   -9.8196  -17.7098   22.9430 O   0  0  0  0  0  0  0  0  0  0  0  0
   -5.0843  -14.3485   19.3804 O   0  5  0  0  0  0  0  0  0  0  0  0
   -4.0057  -10.2424   21.1753 O   0  0  0  0  0  0  0  0  0  0  0  0
   -6.1902  -12.9297   21.2158 O   0  0  0  0  0  0  0  0  0  0  0  0
   -4.8182  -11.8155   19.3291 O   0  0  0  0  0  0  0  0  0  0  0  0
   -2.4542  -10.7779   19.1757 O   0  5  0  0  0  0  0  0  0  0  0  0
   -3.6297  -13.1714   21.1637 O   0  0  0  0  0  0  0  0  0  0  0  0
   -4.5412   -9.3211   18.8439 O   0  0  0  0  0  0  0  0  0  0  0  0
   -7.0228  -12.9279   25.5160 S   0  0  0  0  0  0  0  0  0  0  0  0
   -4.8513  -13.0718   20.3324 P   0  0  2  0  0  0  0  0  0  0  0  0
   -3.8538  -10.5596   19.6046 P   0  0  2  0  0  0  0  0  0  0  0  0
  2 16  2  0  0  0  0
  2  3  1  0  0  0  0
  2 13  1  0  0  0  0
  3  8  2  0  0  0  0
  3  4  1  0  0  0  0
  4 14  1  0  0  0  0
  5  1  1  1  0  0  0
  5 14  1  0  0  0  0
  5 10  1  0  0  0  0
  6  7  1  0  0  0  0
  7 13  1  0  0  0  0
  7 15  2  0  0  0  0
  8 15  1  0  0  0  0
  9 14  1  0  0  0  0
  9 24  1  0  0  0  0
 10 24  1  0  0  0  0
 10 11  1  6  0  0  0
 11 12  1  0  0  0  0
 12 19  1  0  0  0  0
 17 25  1  0  0  0  0
 19 25  1  0  0  0  0
 20 26  1  0  0  0  0
 21 26  1  0  0  0  0
 22 25  2  0  0  0  0
 23 26  2  0  0  0  0
 25 20  1  6  0  0  0
 26 18  1  1  0  0  0
M  CHG  2  17  -1  21  -1
M  END
>  <CHROM.1>
108.83998930,-84.52139523,61.14478931,-86.10695403,-173.18811206,-144.81114879
-169.68629606,-44.09375006,-7.07507563,-13.90549077,22.68472799,2.93040504
0.86770642,1.08435692

>  <Name>
ligand

>  <RI>
0

>  <Rbt.Current_Directory>
/home/itssahil/PROJECTS/Mol_Feturizer/New_Systems/rnas/3D2X

>  <Rbt.Executable>
rbdock ($Id: //depot/dev/client3/rdock/2013.1/src/exe/rbdock.cxx#4 $)

>  <Rbt.Library>
libRbt.so (2013.1, Build901 2013/11/27)

>  <Rbt.Parameter_File>
/export/apps/rDock/src/rDock_2013.1_src/data/scripts/dock_solv.prm

>  <Rbt.Receptor>
prm/pocket_docking_3.prm

>  <SCORE>
-14.2316

>  <SCORE.INTER>
-12.0886

>  <SCORE.INTER.CONST>
1

>  <SCORE.INTER.POLAR>
0

>  <SCORE.INTER.ROT>
8

>  <SCORE.INTER.SOLV>
7.67029

>  <SCORE.INTER.VDW>
-19.5492

>  <SCORE.INTER.norm>
-0.464948

>  <SCORE.INTRA>
-2.20085

>  <SCORE.INTRA.DIHEDRAL>
-0.524315

>  <SCORE.INTRA.DIHEDRAL.0>
7.88077

>  <SCORE.INTRA.POLAR>
0

>  <SCORE.INTRA.POLAR.0>
0

>  <SCORE.INTRA.REPUL>
0

>  <SCORE.INTRA.REPUL.0>
0

>  <SCORE.INTRA.SOLV>
-1.79035

>  <SCORE.INTRA.SOLV.lig_0>
-63.2542

>  <SCORE.INTRA.VDW>
-1.04352

>  <SCORE.INTRA.VDW.0>
-3.15072

>  <SCORE.INTRA.norm>
-0.0846482

>  <SCORE.RESTR>
0.0579458

>  <SCORE.RESTR.CAVITY>
0.0579458

>  <SCORE.RESTR.norm>
0.00222868

>  <SCORE.SYSTEM>
0

>  <SCORE.SYSTEM.CONST>
0

>  <SCORE.SYSTEM.DIHEDRAL>
0

>  <SCORE.SYSTEM.SOLV>
0

>  <SCORE.SYSTEM.norm>
0

>  <SCORE.heavy>
26

>  <SCORE.norm>
-0.547367

>  <RMSD>
2.487

$$$$
ligand
 OpenBabel11021811473D
libRbt.so/2013.1/901 2013/11/27
 26 27  0  0  0  0  0  0  0  0999 V2000
   -7.2214  -13.6465   25.0145 C   0  0  0  0  0  0  0  0  0  0  0  0
   -9.5004  -16.8898   26.2328 C   0  0  0  0  0  0  0  0  0  0  0  0
   -9.1588  -16.8010   24.8874 C   0  0  0  0  0  0  0  0  0  0  0  0
   -7.7455  -16.4757   24.3982 C   0  0  0  0  0  0  0  0  0  0  0  0
   -7.5434  -14.1557   23.6064 C   0  0  1  0  0  0  0  0  0  0  0  0
  -13.1834  -17.8351   25.9600 C   0  0  0  0  0  0  0  0  0  0  0  0
  -11.7504  -17.4551   25.5840 C   0  0  0  0  0  0  0  0  0  0  0  0
  -10.1527  -17.0439   23.9446 C   0  0  0  0  0  0  0  0  0  0  0  0
   -8.0199  -15.7768   22.0806 C   0  0  0  0  0  0  0  0  0  0  0  0
   -7.6005  -13.3052   22.5088 C   0  0  2  0  0  0  0  0  0  0  0  0
   -7.3764  -11.7950   22.3970 C   0  0  0  0  0  0  0  0  0  0  0  0
   -5.9812  -11.4361   21.8805 C   0  0  0  0  0  0  0  0  0  0  0  0
  -10.8080  -17.2205   26.5941 N   0  0  0  0  0  0  0  0  0  0  0  0
   -7.7726  -15.4464   23.3489 N   0  0  0  0  0  0  0  0  0  0  0  0
  -11.3857  -17.3562   24.2976 N   0  0  0  0  0  0  0  0  0  0  0  0
   -8.6560  -16.6823   27.1044 O   0  0  0  0  0  0  0  0  0  0  0  0
   -5.6448   -8.3127   19.5472 O   0  5  0  0  0  0  0  0  0  0  0  0
   -4.2923   -9.1829   17.2466 O   0  0  0  0  0  0  0  0  0  0  0  0
   -5.9315  -10.0994   21.3720 O   0  0  0  0  0  0  0  0  0  0  0  0
   -5.3655  -10.7711   18.9405 O   0  0  0  0  0  0  0  0  0  0  0  0
   -2.9885   -9.8510   19.3787 O   0  5  0  0  0  0  0  0  0  0  0  0
   -7.7049   -9.8737   19.5224 O   0  0  0  0  0  0  0  0  0  0  0  0
   -3.3982  -11.5700   17.5172 O   0  0  0  0  0  0  0  0  0  0  0  0
   -8.0387  -14.3024   21.1497 S   0  0  0  0  0  0  0  0  0  0  0  0
   -6.2597   -9.7731   19.8296 P   0  0  2  0  0  0  0  0  0  0  0  0
   -3.9463  -10.3061   18.3463 P   0  0  2  0  0  0  0  0  0  0  0  0
  2 16  2  0  0  0  0
  2  3  1  0  0  0  0
  2 13  1  0  0  0  0
  3  8  2  0  0  0  0
  3  4  1  0  0  0  0
  4 14  1  0  0  0  0
  5  1  1  6  0  0  0
  5 14  1  0  0  0  0
  5 10  1  0  0  0  0
  6  7  1  0  0  0  0
  7 13  1  0  0  0  0
  7 15  2  0  0  0  0
  8 15  1  0  0  0  0
  9 14  1  0  0  0  0
  9 24  1  0  0  0  0
 10 24  1  0  0  0  0
 10 11  1  1  0  0  0
 11 12  1  0  0  0  0
 12 19  1  0  0  0  0
 17 25  1  0  0  0  0
 19 25  1  0  0  0  0
 20 26  1  0  0  0  0
 21 26  1  0  0  0  0
 22 25  2  0  0  0  0
 23 26  2  0  0  0  0
 25 20  1  6  0  0  0
 26 18  1  6  0  0  0
M  CHG  2  17  -1  21  -1
M  END
>  <CHROM.1>
-133.11700916,99.71309368,160.86554674,97.97321737,-89.36837299,16.26094085
-162.02572425,-67.85445752,-7.29434203,-13.16166985,21.95842135,-2.10620890
-0.23498668,-0.88501811

>  <Name>
ligand

>  <RI>
0

>  <Rbt.Current_Directory>
/home/itssahil/PROJECTS/Mol_Feturizer/New_Systems/rnas/3D2X

>  <Rbt.Executable>
rbdock ($Id: //depot/dev/client3/rdock/2013.1/src/exe/rbdock.cxx#4 $)

>  <Rbt.Library>
libRbt.so (2013.1, Build901 2013/11/27)

>  <Rbt.Parameter_File>
/export/apps/rDock/src/rDock_2013.1_src/data/scripts/dock_solv.prm

>  <Rbt.Receptor>
prm/pocket_docking_4.prm

>  <SCORE>
-16.914

>  <SCORE.INTER>
-18.1219

>  <SCORE.INTER.CONST>
1

>  <SCORE.INTER.POLAR>
0

>  <SCORE.INTER.ROT>
8

>  <SCORE.INTER.SOLV>
13.6549

>  <SCORE.INTER.VDW>
-25.5662

>  <SCORE.INTER.norm>
-0.696996

>  <SCORE.INTRA>
1.20789

>  <SCORE.INTRA.DIHEDRAL>
4.0467

>  <SCORE.INTRA.DIHEDRAL.0>
7.88077

>  <SCORE.INTRA.POLAR>
0

>  <SCORE.INTRA.POLAR.0>
0

>  <SCORE.INTRA.REPUL>
0

>  <SCORE.INTRA.REPUL.0>
0

>  <SCORE.INTRA.SOLV>
-0.555701

>  <SCORE.INTRA.SOLV.lig_0>
-63.2542

>  <SCORE.INTRA.VDW>
-0.537612

>  <SCORE.INTRA.VDW.0>
-3.15072

>  <SCORE.INTRA.norm>
0.0464572

>  <SCORE.RESTR>
0

>  <SCORE.RESTR.CAVITY>
0

>  <SCORE.RESTR.norm>
0

>  <SCORE.SYSTEM>
0

>  <SCORE.SYSTEM.CONST>
0

>  <SCORE.SYSTEM.DIHEDRAL>
0

>  <SCORE.SYSTEM.SOLV>
0

>  <SCORE.SYSTEM.norm>
0

>  <SCORE.heavy>
26

>  <SCORE.norm>
-0.650538

>  <RMSD>
2.502

$$$$
ligand
 OpenBabel11021811473D
libRbt.so/2013.1/901 2013/11/27
 26 27  0  0  0  0  0  0  0  0999 V2000
   -7.5611  -16.8408   21.9635 C   0  0  0  0  0  0  0  0  0  0  0  0
  -10.0006  -16.8980   26.4062 C   0  0  0  0  0  0  0  0  0  0  0  0
   -9.4766  -16.7962   25.1218 C   0  0  0  0  0  0  0  0  0  0  0  0
   -8.0290  -16.3913   24.8337 C   0  0  0  0  0  0  0  0  0  0  0  0
   -7.7551  -15.4511   22.5773 C   0  0  1  0  0  0  0  0  0  0  0  0
  -13.5472  -18.0584   25.6263 C   0  0  0  0  0  0  0  0  0  0  0  0
  -12.0994  -17.5972   25.4524 C   0  0  0  0  0  0  0  0  0  0  0  0
  -10.3106  -17.1015   24.0509 C   0  0  0  0  0  0  0  0  0  0  0  0
   -8.1500  -14.0172   24.3010 C   0  0  0  0  0  0  0  0  0  0  0  0
   -7.7329  -14.2942   21.8076 C   0  0  2  0  0  0  0  0  0  0  0  0
   -7.5406  -14.0943   20.3021 C   0  0  0  0  0  0  0  0  0  0  0  0
   -6.0712  -14.1442   19.8771 C   0  0  0  0  0  0  0  0  0  0  0  0
  -11.3254  -17.3027   26.5827 N   0  0  0  0  0  0  0  0  0  0  0  0
   -7.9719  -15.2713   23.8833 N   0  0  0  0  0  0  0  0  0  0  0  0
  -11.5615  -17.4836   24.2295 N   0  0  0  0  0  0  0  0  0  0  0  0
   -9.3022  -16.6371   27.3860 O   0  0  0  0  0  0  0  0  0  0  0  0
   -7.6140  -12.0034   18.1705 O   0  5  0  0  0  0  0  0  0  0  0  0
   -4.9038   -9.5890   16.9699 O   0  0  0  0  0  0  0  0  0  0  0  0
   -5.9166  -13.9089   18.4741 O   0  0  0  0  0  0  0  0  0  0  0  0
   -5.1897  -11.4394   18.7127 O   0  0  0  0  0  0  0  0  0  0  0  0
   -6.5875   -9.2723   18.9082 O   0  5  0  0  0  0  0  0  0  0  0  0
   -5.7743  -12.3968   16.3979 O   0  0  0  0  0  0  0  0  0  0  0  0
   -4.0621   -9.2403   19.3659 O   0  0  0  0  0  0  0  0  0  0  0  0
   -7.9453  -12.9716   22.9206 S   0  0  0  0  0  0  0  0  0  0  0  0
   -6.0999  -12.4391   17.8421 P   0  0  2  0  0  0  0  0  0  0  0  0
   -5.2824   -9.8473   18.5128 P   0  0  2  0  0  0  0  0  0  0  0  0
  2 16  2  0  0  0  0
  2  3  1  0  0  0  0
  2 13  1  0  0  0  0
  3  8  2  0  0  0  0
  3  4  1  0  0  0  0
  4 14  1  0  0  0  0
  5  1  1  6  0  0  0
  5 14  1  0  0  0  0
  5 10  1  0  0  0  0
  6  7  1  0  0  0  0
  7 13  1  0  0  0  0
  7 15  2  0  0  0  0
  8 15  1  0  0  0  0
  9 14  1  0  0  0  0
  9 24  1  0  0  0  0
 10 24  1  0  0  0  0
 10 11  1  1  0  0  0
 11 12  1  0  0  0  0
 12 19  1  0  0  0  0
 17 25  1  0  0  0  0
 19 25  1  0  0  0  0
 20 26  1  0  0  0  0
 21 26  1  0  0  0  0
 22 25  2  0  0  0  0
 23 26  2  0  0  0  0
 25 20  1  1  0  0  0
 26 18  1  6  0  0  0
M  CHG  2  17  -1  21  -1
M  END
>  <CHROM.1>
-127.04843044,-80.63692542,-177.99081015,-97.95759238,73.59042266,-58.91332376
-60.76379249,-59.22837777,-7.70258329,-13.84140846,21.51835717,2.63362857
1.01197026,1.27544689

>  <Name>
ligand

>  <RI>
0

>  <Rbt.Current_Directory>
/home/itssahil/PROJECTS/Mol_Feturizer/New_Systems/rnas/3D2X

>  <Rbt.Executable>
rbdock ($Id: //depot/dev/client3/rdock/2013.1/src/exe/rbdock.cxx#4 $)

>  <Rbt.Library>
libRbt.so (2013.1, Build901 2013/11/27)

>  <Rbt.Parameter_File>
/export/apps/rDock/src/rDock_2013.1_src/data/scripts/dock_solv.prm

>  <Rbt.Receptor>
prm/pocket_docking_3.prm

>  <SCORE>
-24.4096

>  <SCORE.INTER>
-22.652

>  <SCORE.INTER.CONST>
1

>  <SCORE.INTER.POLAR>
0

>  <SCORE.INTER.ROT>
8

>  <SCORE.INTER.SOLV>
12.8264

>  <SCORE.INTER.VDW>
-28.3101

>  <SCORE.INTER.norm>
-0.871231

>  <SCORE.INTRA>
-1.75967

>  <SCORE.INTRA.DIHEDRAL>
-2.1741

>  <SCORE.INTRA.DIHEDRAL.0>
7.88077

>  <SCORE.INTRA.POLAR>
0

>  <SCORE.INTRA.POLAR.0>
0

>  <SCORE.INTRA.REPUL>
0

>  <SCORE.INTRA.REPUL.0>
0

>  <SCORE.INTRA.SOLV>
-0.578032

>  <SCORE.INTRA.SOLV.lig_0>
-63.2542

>  <SCORE.INTRA.VDW>
-0.383601

>  <SCORE.INTRA.VDW.0>
-3.15072

>  <SCORE.INTRA.norm>
-0.0676796

>  <SCORE.RESTR>
0.00209452

>  <SCORE.RESTR.CAVITY>
0.00209452

>  <SCORE.RESTR.norm>
8.05583e-05

>  <SCORE.SYSTEM>
0

>  <SCORE.SYSTEM.CONST>
0

>  <SCORE.SYSTEM.DIHEDRAL>
0

>  <SCORE.SYSTEM.SOLV>
0

>  <SCORE.SYSTEM.norm>
0

>  <SCORE.heavy>
26

>  <SCORE.norm>
-0.93883

>  <RMSD>
2.506

$$$$
ligand
 OpenBabel11021811473D
libRbt.so/2013.1/901 2013/11/27
 26 27  0  0  0  0  0  0  0  0999 V2000
   -6.9347  -13.9410   24.9582 C   0  0  0  0  0  0  0  0  0  0  0  0
  -10.2139  -16.7273   26.3325 C   0  0  0  0  0  0  0  0  0  0  0  0
   -9.6929  -16.8988   25.0542 C   0  0  0  0  0  0  0  0  0  0  0  0
   -8.2472  -16.5603   24.6828 C   0  0  0  0  0  0  0  0  0  0  0  0
   -7.6123  -14.4115   23.6679 C   0  0  1  0  0  0  0  0  0  0  0  0
  -13.7582  -18.0366   25.8263 C   0  0  0  0  0  0  0  0  0  0  0  0
  -12.3123  -17.6188   25.5545 C   0  0  0  0  0  0  0  0  0  0  0  0
  -10.5281  -17.4267   24.0748 C   0  0  0  0  0  0  0  0  0  0  0  0
   -8.7351  -15.9193   22.3837 C   0  0  0  0  0  0  0  0  0  0  0  0
   -7.6443  -13.6261   22.5218 C   0  0  2  0  0  0  0  0  0  0  0  0
   -7.0729  -12.2333   22.2438 C   0  0  0  0  0  0  0  0  0  0  0  0
   -5.5428  -12.2036   22.2548 C   0  0  0  0  0  0  0  0  0  0  0  0
  -11.5369  -17.0890   26.5945 N   0  0  0  0  0  0  0  0  0  0  0  0
   -8.1975  -15.6080   23.5640 N   0  0  0  0  0  0  0  0  0  0  0  0
  -11.7773  -17.7658   24.3339 N   0  0  0  0  0  0  0  0  0  0  0  0
   -9.5143  -16.2625   27.2326 O   0  0  0  0  0  0  0  0  0  0  0  0
   -4.4495  -11.9561   18.4815 O   0  5  0  0  0  0  0  0  0  0  0  0
   -1.8592  -15.1915   20.3510 O   0  0  0  0  0  0  0  0  0  0  0  0
   -5.0107  -11.8127   20.9853 O   0  0  0  0  0  0  0  0  0  0  0  0
   -4.0882  -13.9991   19.9596 O   0  0  0  0  0  0  0  0  0  0  0  0
   -1.8781  -12.8221   19.3128 O   0  5  0  0  0  0  0  0  0  0  0  0
   -6.4863  -13.2342   19.4299 O   0  0  0  0  0  0  0  0  0  0  0  0
   -2.5004  -13.1620   21.7797 O   0  0  0  0  0  0  0  0  0  0  0  0
   -8.5459  -14.5346   21.3407 S   0  0  0  0  0  0  0  0  0  0  0  0
   -5.1032  -12.7791   19.7004 P   0  0  2  0  0  0  0  0  0  0  0  0
   -2.5352  -13.7326   20.2769 P   0  0  2  0  0  0  0  0  0  0  0  0
  2 16  2  0  0  0  0
  2  3  1  0  0  0  0
  2 13  1  0  0  0  0
  3  8  2  0  0  0  0
  3  4  1  0  0  0  0
  4 14  1  0  0  0  0
  5  1  1  6  0  0  0
  5 14  1  0  0  0  0
  5 10  1  0  0  0  0
  6  7  1  0  0  0  0
  7 13  1  0  0  0  0
  7 15  2  0  0  0  0
  8 15  1  0  0  0  0
  9 14  1  0  0  0  0
  9 24  1  0  0  0  0
 10 24  1  0  0  0  0
 10 11  1  1  0  0  0
 11 12  1  0  0  0  0
 12 19  1  0  0  0  0
 17 25  1  0  0  0  0
 19 25  1  0  0  0  0
 20 26  1  0  0  0  0
 21 26  1  0  0  0  0
 22 25  2  0  0  0  0
 23 26  2  0  0  0  0
 25 20  1  1  0  0  0
 26 18  1  6  0  0  0
M  CHG  2  17  -1  21  -1
M  END
>  <CHROM.1>
-123.86931904,66.87790954,118.18597688,120.52813229,-70.17912511,56.40110834
177.89674398,-175.57307252,-6.97169956,-14.60454425,22.40834425,-2.42417146
-0.14305043,-1.10393775

>  <Name>
ligand

>  <RI>
0

>  <Rbt.Current_Directory>
/home/itssahil/PROJECTS/Mol_Feturizer/New_Systems/rnas/3D2X

>  <Rbt.Executable>
rbdock ($Id: //depot/dev/client3/rdock/2013.1/src/exe/rbdock.cxx#4 $)

>  <Rbt.Library>
libRbt.so (2013.1, Build901 2013/11/27)

>  <Rbt.Parameter_File>
/export/apps/rDock/src/rDock_2013.1_src/data/scripts/dock_solv.prm

>  <Rbt.Receptor>
prm/pocket_docking_3.prm

>  <SCORE>
-16.4036

>  <SCORE.INTER>
-17.9852

>  <SCORE.INTER.CONST>
1

>  <SCORE.INTER.POLAR>
0

>  <SCORE.INTER.ROT>
8

>  <SCORE.INTER.SOLV>
6.73736

>  <SCORE.INTER.VDW>
-23.1693

>  <SCORE.INTER.norm>
-0.691739

>  <SCORE.INTRA>
1.58167

>  <SCORE.INTRA.DIHEDRAL>
2.97145

>  <SCORE.INTRA.DIHEDRAL.0>
7.88077

>  <SCORE.INTRA.POLAR>
0

>  <SCORE.INTRA.POLAR.0>
0

>  <SCORE.INTRA.REPUL>
0

>  <SCORE.INTRA.REPUL.0>
0

>  <SCORE.INTRA.SOLV>
1.91938

>  <SCORE.INTRA.SOLV.lig_0>
-63.2542

>  <SCORE.INTRA.VDW>
-0.863747

>  <SCORE.INTRA.VDW.0>
-3.15072

>  <SCORE.INTRA.norm>
0.0608333

>  <SCORE.RESTR>
0

>  <SCORE.RESTR.CAVITY>
0

>  <SCORE.RESTR.norm>
0

>  <SCORE.SYSTEM>
0

>  <SCORE.SYSTEM.CONST>
0

>  <SCORE.SYSTEM.DIHEDRAL>
0

>  <SCORE.SYSTEM.SOLV>
0

>  <SCORE.SYSTEM.norm>
0

>  <SCORE.heavy>
26

>  <SCORE.norm>
-0.630906

>  <RMSD>
2.511

$$$$
ligand
 OpenBabel11021811473D
libRbt.so/2013.1/901 2013/11/27
 26 27  0  0  0  0  0  0  0  0999 V2000
   -6.6954  -17.1884   23.0349 C   0  0  0  0  0  0  0  0  0  0  0  0
   -9.9951  -16.9266   26.5731 C   0  0  0  0  0  0  0  0  0  0  0  0
   -9.4099  -16.4876   25.3901 C   0  0  0  0  0  0  0  0  0  0  0  0
   -8.0069  -15.8796   25.3209 C   0  0  0  0  0  0  0  0  0  0  0  0
   -7.2014  -15.7433   23.0008 C   0  0  1  0  0  0  0  0  0  0  0  0
  -13.3210  -18.2492   25.2609 C   0  0  0  0  0  0  0  0  0  0  0  0
  -11.9317  -17.6119   25.3148 C   0  0  0  0  0  0  0  0  0  0  0  0
  -10.1338  -16.6328   24.2110 C   0  0  0  0  0  0  0  0  0  0  0  0
   -8.2201  -13.9148   23.8965 C   0  0  0  0  0  0  0  0  0  0  0  0
   -7.0825  -14.9457   21.8690 C   0  0  2  0  0  0  0  0  0  0  0  0
   -6.4909  -15.2442   20.4890 C   0  0  0  0  0  0  0  0  0  0  0  0
   -7.0110  -14.3019   19.4009 C   0  0  0  0  0  0  0  0  0  0  0  0
  -11.2695  -17.4967   26.5443 N   0  0  0  0  0  0  0  0  0  0  0  0
   -7.7994  -15.1712   24.0497 N   0  0  0  0  0  0  0  0  0  0  0  0
  -11.3379  -17.1738   24.1954 N   0  0  0  0  0  0  0  0  0  0  0  0
   -9.3945  -16.8183   27.6423 O   0  0  0  0  0  0  0  0  0  0  0  0
   -6.7613  -10.4245   19.3541 O   0  5  0  0  0  0  0  0  0  0  0  0
   -3.3265  -11.2800   16.5460 O   0  0  0  0  0  0  0  0  0  0  0  0
   -6.5058  -12.9731   19.5642 O   0  0  0  0  0  0  0  0  0  0  0  0
   -5.6748  -11.7297   17.4554 O   0  0  0  0  0  0  0  0  0  0  0  0
   -4.1004  -10.1162   18.7229 O   0  5  0  0  0  0  0  0  0  0  0  0
   -8.1962  -11.9975   17.8884 O   0  0  0  0  0  0  0  0  0  0  0  0
   -3.6341  -12.6401   18.6970 O   0  0  0  0  0  0  0  0  0  0  0  0
   -7.7414  -13.3931   22.3029 S   0  0  0  0  0  0  0  0  0  0  0  0
   -6.8736  -11.7993   18.5248 P   0  0  2  0  0  0  0  0  0  0  0  0
   -4.1803  -11.3495   17.9087 P   0  0  2  0  0  0  0  0  0  0  0  0
  2 16  2  0  0  0  0
  2  3  1  0  0  0  0
  2 13  1  0  0  0  0
  3  8  2  0  0  0  0
  3  4  1  0  0  0  0
  4 14  1  0  0  0  0
  5  1  1  6  0  0  0
  5 14  1  0  0  0  0
  5 10  1  0  0  0  0
  6  7  1  0  0  0  0
  7 13  1  0  0  0  0
  7 15  2  0  0  0  0
  8 15  1  0  0  0  0
  9 14  1  0  0  0  0
  9 24  1  0  0  0  0
 10 24  1  0  0  0  0
 10 11  1  1  0  0  0
 11 12  1  0  0  0  0
 12 19  1  0  0  0  0
 17 25  1  0  0  0  0
 19 25  1  0  0  0  0
 20 26  1  0  0  0  0
 21 26  1  0  0  0  0
 22 25  2  0  0  0  0
 23 26  2  0  0  0  0
 25 20  1  6  0  0  0
 26 18  1  6  0  0  0
M  CHG  2  17  -1  21  -1
M  END
>  <CHROM.1>
-163.97504494,158.66847498,70.05132360,-96.03276109,178.37625462,49.04601331
153.43799496,-175.75812691,-7.49310209,-14.11179003,21.58392921,-2.09609218
-0.15455399,-1.02534467

>  <Name>
ligand

>  <RI>
0

>  <Rbt.Current_Directory>
/home/itssahil/PROJECTS/Mol_Feturizer/New_Systems/rnas/3D2X

>  <Rbt.Executable>
rbdock ($Id: //depot/dev/client3/rdock/2013.1/src/exe/rbdock.cxx#4 $)

>  <Rbt.Library>
libRbt.so (2013.1, Build901 2013/11/27)

>  <Rbt.Parameter_File>
/export/apps/rDock/src/rDock_2013.1_src/data/scripts/dock_solv.prm

>  <Rbt.Receptor>
prm/pocket_docking_4.prm

>  <SCORE>
-23.3367

>  <SCORE.INTER>
-22.515

>  <SCORE.INTER.CONST>
1

>  <SCORE.INTER.POLAR>
0

>  <SCORE.INTER.ROT>
8

>  <SCORE.INTER.SOLV>
12.5721

>  <SCORE.INTER.VDW>
-28.1341

>  <SCORE.INTER.norm>
-0.865963

>  <SCORE.INTRA>
-0.821663

>  <SCORE.INTRA.DIHEDRAL>
-1.37573

>  <SCORE.INTRA.DIHEDRAL.0>
7.88077

>  <SCORE.INTRA.POLAR>
0

>  <SCORE.INTRA.POLAR.0>
0

>  <SCORE.INTRA.REPUL>
0

>  <SCORE.INTRA.REPUL.0>
0

>  <SCORE.INTRA.SOLV>
0.0789629

>  <SCORE.INTRA.SOLV.lig_0>
-63.2542

>  <SCORE.INTRA.VDW>
-0.17328

>  <SCORE.INTRA.VDW.0>
-3.15072

>  <SCORE.INTRA.norm>
-0.0316024

>  <SCORE.RESTR>
0

>  <SCORE.RESTR.CAVITY>
0

>  <SCORE.RESTR.norm>
0

>  <SCORE.SYSTEM>
0

>  <SCORE.SYSTEM.CONST>
0

>  <SCORE.SYSTEM.DIHEDRAL>
0

>  <SCORE.SYSTEM.SOLV>
0

>  <SCORE.SYSTEM.norm>
0

>  <SCORE.heavy>
26

>  <SCORE.norm>
-0.897566

>  <RMSD>
2.514

$$$$
ligand
 OpenBabel11021811473D
libRbt.so/2013.1/901 2013/11/27
 26 27  0  0  0  0  0  0  0  0999 V2000
   -7.1609  -17.1941   22.5576 C   0  0  0  0  0  0  0  0  0  0  0  0
   -9.9838  -16.9097   26.5660 C   0  0  0  0  0  0  0  0  0  0  0  0
   -9.3991  -16.6399   25.3331 C   0  0  0  0  0  0  0  0  0  0  0  0
   -7.9673  -16.1220   25.1766 C   0  0  0  0  0  0  0  0  0  0  0  0
   -7.4755  -15.7151   22.8012 C   0  0  1  0  0  0  0  0  0  0  0  0
  -13.4003  -18.1864   25.4570 C   0  0  0  0  0  0  0  0  0  0  0  0
  -11.9783  -17.6248   25.4197 C   0  0  0  0  0  0  0  0  0  0  0  0
  -10.1526  -16.8771   24.1879 C   0  0  0  0  0  0  0  0  0  0  0  0
   -8.1168  -13.9486   24.0862 C   0  0  0  0  0  0  0  0  0  0  0  0
   -7.4100  -14.7692   21.7851 C   0  0  2  0  0  0  0  0  0  0  0  0
   -7.0562  -14.9121   20.3026 C   0  0  0  0  0  0  0  0  0  0  0  0
   -7.2524  -13.6145   19.5152 C   0  0  0  0  0  0  0  0  0  0  0  0
  -11.2870  -17.4083   26.6192 N   0  0  0  0  0  0  0  0  0  0  0  0
   -7.8454  -15.2515   23.9983 N   0  0  0  0  0  0  0  0  0  0  0  0
  -11.3838  -17.3492   24.2499 N   0  0  0  0  0  0  0  0  0  0  0  0
   -9.3576  -16.7148   27.6079 O   0  0  0  0  0  0  0  0  0  0  0  0
   -5.1193  -10.3389   19.9800 O   0  5  0  0  0  0  0  0  0  0  0  0
   -6.5536  -10.2228   15.9252 O   0  0  0  0  0  0  0  0  0  0  0  0
   -6.3845  -12.5759   19.9795 O   0  0  0  0  0  0  0  0  0  0  0  0
   -5.4449  -11.5871   17.7833 O   0  0  0  0  0  0  0  0  0  0  0  0
   -4.5305   -9.2388   17.2023 O   0  5  0  0  0  0  0  0  0  0  0  0
   -7.4747  -10.4971   18.9271 O   0  0  0  0  0  0  0  0  0  0  0  0
   -4.2096  -11.2009   15.5789 O   0  0  0  0  0  0  0  0  0  0  0  0
   -7.7969  -13.2407   22.5250 S   0  0  0  0  0  0  0  0  0  0  0  0
   -6.1945  -11.2063   19.1541 P   0  0  2  0  0  0  0  0  0  0  0  0
   -5.1458  -10.4726   16.6644 P   0  0  2  0  0  0  0  0  0  0  0  0
  2 16  2  0  0  0  0
  2  3  1  0  0  0  0
  2 13  1  0  0  0  0
  3  8  2  0  0  0  0
  3  4  1  0  0  0  0
  4 14  1  0  0  0  0
  5  1  1  6  0  0  0
  5 14  1  0  0  0  0
  5 10  1  0  0  0  0
  6  7  1  0  0  0  0
  7 13  1  0  0  0  0
  7 15  2  0  0  0  0
  8 15  1  0  0  0  0
  9 14  1  0  0  0  0
  9 24  1  0  0  0  0
 10 24  1  0  0  0  0
 10 11  1  1  0  0  0
 11 12  1  0  0  0  0
 12 19  1  0  0  0  0
 17 25  1  0  0  0  0
 19 25  1  0  0  0  0
 20 26  1  0  0  0  0
 21 26  1  0  0  0  0
 22 25  2  0  0  0  0
 23 26  2  0  0  0  0
 25 20  1  6  0  0  0
 26 18  1  6  0  0  0
M  CHG  2  17  -1  21  -1
M  END
>  <CHROM.1>
-148.18984696,174.06607306,63.16333826,-92.93652836,168.50709320,-70.86919967
-178.32556136,-76.73838128,-7.63903991,-13.76243017,21.42880947,2.13852987
0.64597607,1.86882845

>  <Name>
ligand

>  <RI>
0

>  <Rbt.Current_Directory>
/home/itssahil/PROJECTS/Mol_Feturizer/New_Systems/rnas/3D2X

>  <Rbt.Executable>
rbdock ($Id: //depot/dev/client3/rdock/2013.1/src/exe/rbdock.cxx#4 $)

>  <Rbt.Library>
libRbt.so (2013.1, Build901 2013/11/27)

>  <Rbt.Parameter_File>
/export/apps/rDock/src/rDock_2013.1_src/data/scripts/dock_solv.prm

>  <Rbt.Receptor>
prm/pocket_docking_6.prm

>  <SCORE>
-25.5984

>  <SCORE.INTER>
-23.6912

>  <SCORE.INTER.CONST>
1

>  <SCORE.INTER.POLAR>
0

>  <SCORE.INTER.ROT>
8

>  <SCORE.INTER.SOLV>
16.5366

>  <SCORE.INTER.VDW>
-30.2397

>  <SCORE.INTER.norm>
-0.9112

>  <SCORE.INTRA>
-1.90724

>  <SCORE.INTRA.DIHEDRAL>
-2.34506

>  <SCORE.INTRA.DIHEDRAL.0>
7.88077

>  <SCORE.INTRA.POLAR>
0

>  <SCORE.INTRA.POLAR.0>
0

>  <SCORE.INTRA.REPUL>
0

>  <SCORE.INTRA.REPUL.0>
0

>  <SCORE.INTRA.SOLV>
-1.51532

>  <SCORE.INTRA.SOLV.lig_0>
-63.2542

>  <SCORE.INTRA.VDW>
0.0229519

>  <SCORE.INTRA.VDW.0>
-3.15072

>  <SCORE.INTRA.norm>
-0.0733553

>  <SCORE.RESTR>
0

>  <SCORE.RESTR.CAVITY>
0

>  <SCORE.RESTR.norm>
0

>  <SCORE.SYSTEM>
0

>  <SCORE.SYSTEM.CONST>
0

>  <SCORE.SYSTEM.DIHEDRAL>
0

>  <SCORE.SYSTEM.SOLV>
0

>  <SCORE.SYSTEM.norm>
0

>  <SCORE.heavy>
26

>  <SCORE.norm>
-0.984555

>  <RMSD>
2.517

$$$$
ligand
 OpenBabel11021811473D
libRbt.so/2013.1/901 2013/11/27
 26 27  0  0  0  0  0  0  0  0999 V2000
   -6.6172  -17.5449   23.3249 C   0  0  0  0  0  0  0  0  0  0  0  0
  -10.0222  -17.0854   26.7261 C   0  0  0  0  0  0  0  0  0  0  0  0
   -9.4323  -16.6334   25.5504 C   0  0  0  0  0  0  0  0  0  0  0  0
   -8.0008  -16.0961   25.4803 C   0  0  0  0  0  0  0  0  0  0  0  0
   -7.1051  -16.0994   23.1894 C   0  0  1  0  0  0  0  0  0  0  0  0
  -13.4311  -18.1859   25.4216 C   0  0  0  0  0  0  0  0  0  0  0  0
  -12.0099  -17.6232   25.4759 C   0  0  0  0  0  0  0  0  0  0  0  0
  -10.1799  -16.6974   24.3789 C   0  0  0  0  0  0  0  0  0  0  0  0
   -8.1365  -14.2136   23.9398 C   0  0  0  0  0  0  0  0  0  0  0  0
   -6.9335  -15.3687   22.0198 C   0  0  2  0  0  0  0  0  0  0  0  0
   -6.2927  -15.7507   20.6831 C   0  0  0  0  0  0  0  0  0  0  0  0
   -6.9662  -15.0772   19.4851 C   0  0  0  0  0  0  0  0  0  0  0  0
  -11.3247  -17.5879   26.6976 N   0  0  0  0  0  0  0  0  0  0  0  0
   -7.7364  -15.4631   24.1801 N   0  0  0  0  0  0  0  0  0  0  0  0
  -11.4105  -17.1749   24.3635 N   0  0  0  0  0  0  0  0  0  0  0  0
   -9.4013  -17.0479   27.7885 O   0  0  0  0  0  0  0  0  0  0  0  0
   -5.4791  -11.4391   19.5263 O   0  5  0  0  0  0  0  0  0  0  0  0
   -2.2789  -13.3936   18.7156 O   0  0  0  0  0  0  0  0  0  0  0  0
   -6.7730  -13.6593   19.4959 O   0  0  0  0  0  0  0  0  0  0  0  0
   -4.3062  -13.5764   20.2649 O   0  0  0  0  0  0  0  0  0  0  0  0
   -2.4929  -11.7938   20.7372 O   0  5  0  0  0  0  0  0  0  0  0  0
   -4.8976  -13.2560   17.7821 O   0  0  0  0  0  0  0  0  0  0  0  0
   -1.9974  -14.2857   21.1022 O   0  0  0  0  0  0  0  0  0  0  0  0
   -7.5909  -13.7878   22.3393 S   0  0  0  0  0  0  0  0  0  0  0  0
   -5.3383  -13.0030   19.1732 P   0  0  2  0  0  0  0  0  0  0  0  0
   -2.7535  -13.1618   20.2360 P   0  0  2  0  0  0  0  0  0  0  0  0
  2 16  2  0  0  0  0
  2  3  1  0  0  0  0
  2 13  1  0  0  0  0
  3  8  2  0  0  0  0
  3  4  1  0  0  0  0
  4 14  1  0  0  0  0
  5  1  1  6  0  0  0
  5 14  1  0  0  0  0
  5 10  1  0  0  0  0
  6  7  1  0  0  0  0
  7 13  1  0  0  0  0
  7 15  2  0  0  0  0
  8 15  1  0  0  0  0
  9 14  1  0  0  0  0
  9 24  1  0  0  0  0
 10 24  1  0  0  0  0
 10 11  1  1  0  0  0
 11 12  1  0  0  0  0
 12 19  1  0  0  0  0
 17 25  1  0  0  0  0
 19 25  1  0  0  0  0
 20 26  1  0  0  0  0
 21 26  1  0  0  0  0
 22 25  2  0  0  0  0
 23 26  2  0  0  0  0
 25 20  1  1  0  0  0
 26 18  1  6  0  0  0
M  CHG  2  17  -1  21  -1
M  END
>  <CHROM.1>
-169.33865630,146.56680280,66.45448660,-98.45873520,71.63197079,-69.29118103
-170.79866036,-49.43713704,-6.87438561,-14.87786551,22.24440674,-2.33839417
-0.21607104,-1.18708703

>  <Name>
ligand

>  <RI>
0

>  <Rbt.Current_Directory>
/home/itssahil/PROJECTS/Mol_Feturizer/New_Systems/rnas/3D2X

>  <Rbt.Executable>
rbdock ($Id: //depot/dev/client3/rdock/2013.1/src/exe/rbdock.cxx#4 $)

>  <Rbt.Library>
libRbt.so (2013.1, Build901 2013/11/27)

>  <Rbt.Parameter_File>
/export/apps/rDock/src/rDock_2013.1_src/data/scripts/dock_solv.prm

>  <Rbt.Receptor>
prm/pocket_docking_2.prm

>  <SCORE>
-20.407

>  <SCORE.INTER>
-18.8042

>  <SCORE.INTER.CONST>
1

>  <SCORE.INTER.POLAR>
0

>  <SCORE.INTER.ROT>
8

>  <SCORE.INTER.SOLV>
9.77271

>  <SCORE.INTER.VDW>
-24.7271

>  <SCORE.INTER.norm>
-0.72324

>  <SCORE.INTRA>
-1.7242

>  <SCORE.INTRA.DIHEDRAL>
-1.77475

>  <SCORE.INTRA.DIHEDRAL.0>
7.88077

>  <SCORE.INTRA.POLAR>
0

>  <SCORE.INTRA.POLAR.0>
0

>  <SCORE.INTRA.REPUL>
0

>  <SCORE.INTRA.REPUL.0>
0

>  <SCORE.INTRA.SOLV>
-0.854366

>  <SCORE.INTRA.SOLV.lig_0>
-63.2542

>  <SCORE.INTRA.VDW>
-0.409641

>  <SCORE.INTRA.VDW.0>
-3.15072

>  <SCORE.INTRA.norm>
-0.0663154

>  <SCORE.RESTR>
0.121389

>  <SCORE.RESTR.CAVITY>
0.121389

>  <SCORE.RESTR.norm>
0.00466879

>  <SCORE.SYSTEM>
0

>  <SCORE.SYSTEM.CONST>
0

>  <SCORE.SYSTEM.DIHEDRAL>
0

>  <SCORE.SYSTEM.SOLV>
0

>  <SCORE.SYSTEM.norm>
0

>  <SCORE.heavy>
26

>  <SCORE.norm>
-0.784886

>  <RMSD>
2.521

$$$$
ligand
 OpenBabel11021811473D
libRbt.so/2013.1/901 2013/11/27
 26 27  0  0  0  0  0  0  0  0999 V2000
   -6.5416  -15.5844   21.1766 C   0  0  0  0  0  0  0  0  0  0  0  0
   -9.3435  -16.7734   25.7364 C   0  0  0  0  0  0  0  0  0  0  0  0
   -9.1462  -16.6883   24.3621 C   0  0  0  0  0  0  0  0  0  0  0  0
   -7.7955  -16.3520   23.7256 C   0  0  0  0  0  0  0  0  0  0  0  0
   -7.1834  -14.5776   22.1359 C   0  0  1  0  0  0  0  0  0  0  0  0
  -13.0250  -17.7555   25.8564 C   0  0  0  0  0  0  0  0  0  0  0  0
  -11.6434  -17.3637   25.3302 C   0  0  0  0  0  0  0  0  0  0  0  0
  -10.2311  -16.9456   23.5302 C   0  0  0  0  0  0  0  0  0  0  0  0
   -8.3004  -13.9882   24.0301 C   0  0  0  0  0  0  0  0  0  0  0  0
   -7.2260  -13.2166   21.8580 C   0  0  2  0  0  0  0  0  0  0  0  0
   -6.7144  -12.4221   20.6537 C   0  0  0  0  0  0  0  0  0  0  0  0
   -6.6190  -10.9194   20.9279 C   0  0  0  0  0  0  0  0  0  0  0  0
  -10.6025  -17.1147   26.2346 N   0  0  0  0  0  0  0  0  0  0  0  0
   -7.7522  -14.9499   23.2860 N   0  0  0  0  0  0  0  0  0  0  0  0
  -11.4170  -17.2680   24.0121 N   0  0  0  0  0  0  0  0  0  0  0  0
   -8.4142  -16.5532   26.5135 O   0  0  0  0  0  0  0  0  0  0  0  0
   -4.3363   -9.2829   19.5520 O   0  5  0  0  0  0  0  0  0  0  0  0
   -3.9254  -10.8677   16.1107 O   0  0  0  0  0  0  0  0  0  0  0  0
   -6.7485  -10.1518   19.7272 O   0  0  0  0  0  0  0  0  0  0  0  0
   -4.9703  -11.4496   18.3719 O   0  0  0  0  0  0  0  0  0  0  0  0
   -2.3998  -11.2543   18.1638 O   0  5  0  0  0  0  0  0  0  0  0  0
   -5.8923   -9.2165   17.4890 O   0  0  0  0  0  0  0  0  0  0  0  0
   -3.6490  -13.2214   17.0876 O   0  0  0  0  0  0  0  0  0  0  0  0
   -7.9946  -12.4691   23.2305 S   0  0  0  0  0  0  0  0  0  0  0  0
   -5.5171   -9.9745   18.7047 P   0  0  2  0  0  0  0  0  0  0  0  0
   -3.6486  -11.6628   17.4824 P   0  0  2  0  0  0  0  0  0  0  0  0
  2 16  2  0  0  0  0
  2  3  1  0  0  0  0
  2 13  1  0  0  0  0
  3  8  2  0  0  0  0
  3  4  1  0  0  0  0
  4 14  1  0  0  0  0
  5  1  1  6  0  0  0
  5 14  1  0  0  0  0
  5 10  1  0  0  0  0
  6  7  1  0  0  0  0
  7 13  1  0  0  0  0
  7 15  2  0  0  0  0
  8 15  1  0  0  0  0
  9 14  1  0  0  0  0
  9 24  1  0  0  0  0
 10 24  1  0  0  0  0
 10 11  1  1  0  0  0
 11 12  1  0  0  0  0
 12 19  1  0  0  0  0
 17 25  1  0  0  0  0
 19 25  1  0  0  0  0
 20 26  1  0  0  0  0
 21 26  1  0  0  0  0
 22 25  2  0  0  0  0
 23 26  2  0  0  0  0
 25 20  1  6  0  0  0
 26 18  1  6  0  0  0
M  CHG  2  17  -1  21  -1
M  END
>  <CHROM.1>
-101.86244048,-163.94655798,-153.25336238,-139.84710667,-78.95694575,-62.25146680
-59.11495463,-55.17360402,-7.02125213,-13.34136992,21.35047817,-2.44713587
0.81303968,-0.15577687

>  <Name>
ligand

>  <RI>
0

>  <Rbt.Current_Directory>
/home/itssahil/PROJECTS/Mol_Feturizer/New_Systems/rnas/3D2X

>  <Rbt.Executable>
rbdock ($Id: //depot/dev/client3/rdock/2013.1/src/exe/rbdock.cxx#4 $)

>  <Rbt.Library>
libRbt.so (2013.1, Build901 2013/11/27)

>  <Rbt.Parameter_File>
/export/apps/rDock/src/rDock_2013.1_src/data/scripts/dock_solv.prm

>  <Rbt.Receptor>
prm/pocket_docking_3.prm

>  <SCORE>
-17.1172

>  <SCORE.INTER>
-17.7038

>  <SCORE.INTER.CONST>
1

>  <SCORE.INTER.POLAR>
0

>  <SCORE.INTER.ROT>
8

>  <SCORE.INTER.SOLV>
9.75948

>  <SCORE.INTER.VDW>
-23.9891

>  <SCORE.INTER.norm>
-0.680917

>  <SCORE.INTRA>
0.586646

>  <SCORE.INTRA.DIHEDRAL>
1.02881

>  <SCORE.INTRA.DIHEDRAL.0>
7.88077

>  <SCORE.INTRA.POLAR>
0

>  <SCORE.INTRA.POLAR.0>
0

>  <SCORE.INTRA.REPUL>
0

>  <SCORE.INTRA.REPUL.0>
0

>  <SCORE.INTRA.SOLV>
-0.842864

>  <SCORE.INTRA.SOLV.lig_0>
-63.2542

>  <SCORE.INTRA.VDW>
0.493672

>  <SCORE.INTRA.VDW.0>
-3.15072

>  <SCORE.INTRA.norm>
0.0225633

>  <SCORE.RESTR>
0

>  <SCORE.RESTR.CAVITY>
0

>  <SCORE.RESTR.norm>
0

>  <SCORE.SYSTEM>
0

>  <SCORE.SYSTEM.CONST>
0

>  <SCORE.SYSTEM.DIHEDRAL>
0

>  <SCORE.SYSTEM.SOLV>
0

>  <SCORE.SYSTEM.norm>
0

>  <SCORE.heavy>
26

>  <SCORE.norm>
-0.658354

>  <RMSD>
2.564

$$$$
ligand
 OpenBabel11021811473D
libRbt.so/2013.1/901 2013/11/27
 26 27  0  0  0  0  0  0  0  0999 V2000
   -5.9188  -14.6375   21.3654 C   0  0  0  0  0  0  0  0  0  0  0  0
   -9.0787  -15.8011   24.5830 C   0  0  0  0  0  0  0  0  0  0  0  0
   -9.5203  -15.6387   23.2740 C   0  0  0  0  0  0  0  0  0  0  0  0
   -8.7280  -14.8791   22.2073 C   0  0  0  0  0  0  0  0  0  0  0  0
   -6.8705  -15.7088   20.8248 C   0  0  1  0  0  0  0  0  0  0  0  0
  -11.9091  -17.9117   26.0207 C   0  0  0  0  0  0  0  0  0  0  0  0
  -11.0590  -17.0911   25.0496 C   0  0  0  0  0  0  0  0  0  0  0  0
  -10.7338  -16.2185   22.9183 C   0  0  0  0  0  0  0  0  0  0  0  0
   -8.8700  -16.7907   20.7038 C   0  0  0  0  0  0  0  0  0  0  0  0
   -6.4625  -16.6578   19.8952 C   0  0  2  0  0  0  0  0  0  0  0  0
   -5.1047  -16.8886   19.2269 C   0  0  0  0  0  0  0  0  0  0  0  0
   -4.5049  -15.6095   18.6383 C   0  0  0  0  0  0  0  0  0  0  0  0
   -9.8499  -16.5342   25.4872 N   0  0  0  0  0  0  0  0  0  0  0  0
   -8.1413  -15.8030   21.2259 N   0  0  0  0  0  0  0  0  0  0  0  0
  -11.4546  -16.9101   23.7813 N   0  0  0  0  0  0  0  0  0  0  0  0
   -8.0117  -15.3056   24.9460 O   0  0  0  0  0  0  0  0  0  0  0  0
   -3.0405  -14.2792   16.2120 O   0  5  0  0  0  0  0  0  0  0  0  0
   -0.4311  -11.9751   17.7091 O   0  0  0  0  0  0  0  0  0  0  0  0
   -3.1254  -15.7784   18.2976 O   0  0  0  0  0  0  0  0  0  0  0  0
   -2.4881  -13.2802   18.4893 O   0  0  0  0  0  0  0  0  0  0  0  0
   -2.7650  -11.3622   16.7767 O   0  5  0  0  0  0  0  0  0  0  0  0
   -0.8544  -14.9522   17.4160 O   0  0  0  0  0  0  0  0  0  0  0  0
   -2.1700  -10.8516   19.2208 O   0  0  0  0  0  0  0  0  0  0  0  0
   -7.8692  -17.6222   19.5429 S   0  0  0  0  0  0  0  0  0  0  0  0
   -2.2819  -14.6004   17.5947 P   0  0  2  0  0  0  0  0  0  0  0  0
   -2.0150  -11.8380   17.9606 P   0  0  2  0  0  0  0  0  0  0  0  0
  2 16  2  0  0  0  0
  2  3  1  0  0  0  0
  2 13  1  0  0  0  0
  3  8  2  0  0  0  0
  3  4  1  0  0  0  0
  4 14  1  0  0  0  0
  5  1  1  1  0  0  0
  5 14  1  0  0  0  0
  5 10  1  0  0  0  0
  6  7  1  0  0  0  0
  7 13  1  0  0  0  0
  7 15  2  0  0  0  0
  8 15  1  0  0  0  0
  9 14  1  0  0  0  0
  9 24  1  0  0  0  0
 10 24  1  0  0  0  0
 10 11  1  6  0  0  0
 11 12  1  0  0  0  0
 12 19  1  0  0  0  0
 17 25  1  0  0  0  0
 19 25  1  0  0  0  0
 20 26  1  0  0  0  0
 21 26  1  0  0  0  0
 22 25  2  0  0  0  0
 23 26  2  0  0  0  0
 25 20  1  1  0  0  0
 26 18  1  6  0  0  0
M  CHG  2  17  -1  21  -1
M  END
>  <CHROM.1>
107.19143076,-49.29757828,166.68383636,-133.65433653,177.03658906,-56.79724925
-59.45714373,-59.47557855,-5.80857492,-15.03913940,20.33073613,-2.99815932
-0.71606618,-2.40804192

>  <Name>
ligand

>  <RI>
0

>  <Rbt.Current_Directory>
/home/itssahil/PROJECTS/Mol_Feturizer/New_Systems/rnas/3D2X

>  <Rbt.Executable>
rbdock ($Id: //depot/dev/client3/rdock/2013.1/src/exe/rbdock.cxx#4 $)

>  <Rbt.Library>
libRbt.so (2013.1, Build901 2013/11/27)

>  <Rbt.Parameter_File>
/export/apps/rDock/src/rDock_2013.1_src/data/scripts/dock_solv.prm

>  <Rbt.Receptor>
prm/pocket_docking_4.prm

>  <SCORE>
-17.7677

>  <SCORE.INTER>
-16.3659

>  <SCORE.INTER.CONST>
1

>  <SCORE.INTER.POLAR>
0

>  <SCORE.INTER.ROT>
8

>  <SCORE.INTER.SOLV>
11.4187

>  <SCORE.INTER.VDW>
-23.6502

>  <SCORE.INTER.norm>
-0.629457

>  <SCORE.INTRA>
-1.40182

>  <SCORE.INTRA.DIHEDRAL>
-2.36879

>  <SCORE.INTRA.DIHEDRAL.0>
7.88077

>  <SCORE.INTRA.POLAR>
0

>  <SCORE.INTRA.POLAR.0>
0

>  <SCORE.INTRA.REPUL>
0

>  <SCORE.INTRA.REPUL.0>
0

>  <SCORE.INTRA.SOLV>
-1.40808

>  <SCORE.INTRA.SOLV.lig_0>
-63.2542

>  <SCORE.INTRA.VDW>
0.486611

>  <SCORE.INTRA.VDW.0>
-3.15072

>  <SCORE.INTRA.norm>
-0.0539163

>  <SCORE.RESTR>
0

>  <SCORE.RESTR.CAVITY>
0

>  <SCORE.RESTR.norm>
0

>  <SCORE.SYSTEM>
0

>  <SCORE.SYSTEM.CONST>
0

>  <SCORE.SYSTEM.DIHEDRAL>
0

>  <SCORE.SYSTEM.SOLV>
0

>  <SCORE.SYSTEM.norm>
0

>  <SCORE.heavy>
26

>  <SCORE.norm>
-0.683373

>  <RMSD>
2.575

$$$$
ligand
 OpenBabel11021811473D
libRbt.so/2013.1/901 2013/11/27
 26 27  0  0  0  0  0  0  0  0999 V2000
   -6.2333  -13.9254   24.6759 C   0  0  0  0  0  0  0  0  0  0  0  0
   -9.7611  -16.5276   26.2840 C   0  0  0  0  0  0  0  0  0  0  0  0
   -9.2648  -16.7399   25.0021 C   0  0  0  0  0  0  0  0  0  0  0  0
   -7.8331  -16.3935   24.5864 C   0  0  0  0  0  0  0  0  0  0  0  0
   -7.1090  -14.3181   23.4824 C   0  0  1  0  0  0  0  0  0  0  0  0
  -13.2936  -17.9098   25.9058 C   0  0  0  0  0  0  0  0  0  0  0  0
  -11.8609  -17.4804   25.5867 C   0  0  0  0  0  0  0  0  0  0  0  0
  -10.1120  -17.3177   24.0620 C   0  0  0  0  0  0  0  0  0  0  0  0
   -8.5305  -15.6965   22.3587 C   0  0  0  0  0  0  0  0  0  0  0  0
   -7.2000  -13.5292   22.3419 C   0  0  2  0  0  0  0  0  0  0  0  0
   -6.5264  -12.2020   21.9838 C   0  0  0  0  0  0  0  0  0  0  0  0
   -6.5356  -11.9155   20.4804 C   0  0  0  0  0  0  0  0  0  0  0  0
  -11.0721  -16.8993   26.5885 N   0  0  0  0  0  0  0  0  0  0  0  0
   -7.8229  -15.4472   23.4615 N   0  0  0  0  0  0  0  0  0  0  0  0
  -11.3498  -17.6658   24.3611 N   0  0  0  0  0  0  0  0  0  0  0  0
   -9.0500  -16.0179   27.1503 O   0  0  0  0  0  0  0  0  0  0  0  0
   -7.6119   -9.7713   18.2766 O   0  5  0  0  0  0  0  0  0  0  0  0
   -2.9998   -9.2126   18.3346 O   0  0  0  0  0  0  0  0  0  0  0  0
   -6.1024  -10.5825   20.1918 O   0  0  0  0  0  0  0  0  0  0  0  0
   -5.4325   -8.5416   18.7533 O   0  0  0  0  0  0  0  0  0  0  0  0
   -3.5313   -6.8909   19.3443 O   0  5  0  0  0  0  0  0  0  0  0  0
   -5.3512  -10.9102   17.7534 O   0  0  0  0  0  0  0  0  0  0  0  0
   -3.8867   -9.0208   20.7320 O   0  0  0  0  0  0  0  0  0  0  0  0
   -8.3287  -14.3349   21.2882 S   0  0  0  0  0  0  0  0  0  0  0  0
   -6.0743  -10.0145   18.6852 P   0  0  2  0  0  0  0  0  0  0  0  0
   -3.9341   -8.3140   19.2886 P   0  0  2  0  0  0  0  0  0  0  0  0
  2 16  2  0  0  0  0
  2  3  1  0  0  0  0
  2 13  1  0  0  0  0
  3  8  2  0  0  0  0
  3  4  1  0  0  0  0
  4 14  1  0  0  0  0
  5  1  1  6  0  0  0
  5 14  1  0  0  0  0
  5 10  1  0  0  0  0
  6  7  1  0  0  0  0
  7 13  1  0  0  0  0
  7 15  2  0  0  0  0
  8 15  1  0  0  0  0
  9 14  1  0  0  0  0
  9 24  1  0  0  0  0
 10 24  1  0  0  0  0
 10 11  1  1  0  0  0
 11 12  1  0  0  0  0
 12 19  1  0  0  0  0
 17 25  1  0  0  0  0
 19 25  1  0  0  0  0
 20 26  1  0  0  0  0
 21 26  1  0  0  0  0
 22 25  2  0  0  0  0
 23 26  2  0  0  0  0
 25 20  1  1  0  0  0
 26 18  1  6  0  0  0
M  CHG  2  17  -1  21  -1
M  END
>  <CHROM.1>
-121.87867717,160.93753243,170.46358189,128.83985917,-177.70489871,173.24721832
72.94182014,57.71183949,-7.27544653,-12.87402466,21.89577753,-2.22574244
-0.64448280,-1.10767402

>  <Name>
ligand

>  <RI>
0

>  <Rbt.Current_Directory>
/home/itssahil/PROJECTS/Mol_Feturizer/New_Systems/rnas/3D2X

>  <Rbt.Executable>
rbdock ($Id: //depot/dev/client3/rdock/2013.1/src/exe/rbdock.cxx#4 $)

>  <Rbt.Library>
libRbt.so (2013.1, Build901 2013/11/27)

>  <Rbt.Parameter_File>
/export/apps/rDock/src/rDock_2013.1_src/data/scripts/dock_solv.prm

>  <Rbt.Receptor>
prm/pocket_docking_4.prm

>  <SCORE>
-22.0971

>  <SCORE.INTER>
-20.7398

>  <SCORE.INTER.CONST>
1

>  <SCORE.INTER.POLAR>
0

>  <SCORE.INTER.ROT>
8

>  <SCORE.INTER.SOLV>
12.7374

>  <SCORE.INTER.VDW>
-27.0057

>  <SCORE.INTER.norm>
-0.797686

>  <SCORE.INTRA>
-1.35725

>  <SCORE.INTRA.DIHEDRAL>
-2.68915

>  <SCORE.INTRA.DIHEDRAL.0>
7.88077

>  <SCORE.INTRA.POLAR>
0

>  <SCORE.INTRA.POLAR.0>
0

>  <SCORE.INTRA.REPUL>
0

>  <SCORE.INTRA.REPUL.0>
0

>  <SCORE.INTRA.SOLV>
-1.41187

>  <SCORE.INTRA.SOLV.lig_0>
-63.2542

>  <SCORE.INTRA.VDW>
0.693258

>  <SCORE.INTRA.VDW.0>
-3.15072

>  <SCORE.INTRA.norm>
-0.052202

>  <SCORE.RESTR>
0

>  <SCORE.RESTR.CAVITY>
0

>  <SCORE.RESTR.norm>
0

>  <SCORE.SYSTEM>
0

>  <SCORE.SYSTEM.CONST>
0

>  <SCORE.SYSTEM.DIHEDRAL>
0

>  <SCORE.SYSTEM.SOLV>
0

>  <SCORE.SYSTEM.norm>
0

>  <SCORE.heavy>
26

>  <SCORE.norm>
-0.849888

>  <RMSD>
2.594

$$$$
ligand
 OpenBabel11021811473D
libRbt.so/2013.1/901 2013/11/27
 26 27  0  0  0  0  0  0  0  0999 V2000
   -8.2410  -13.7562   23.2421 C   0  0  0  0  0  0  0  0  0  0  0  0
  -10.1076  -16.7265   26.4007 C   0  0  0  0  0  0  0  0  0  0  0  0
   -9.5876  -16.6899   25.1112 C   0  0  0  0  0  0  0  0  0  0  0  0
   -8.1548  -16.2548   24.7941 C   0  0  0  0  0  0  0  0  0  0  0  0
   -7.9528  -15.1251   22.6185 C   0  0  1  0  0  0  0  0  0  0  0  0
  -13.6119  -18.0566   25.7058 C   0  0  0  0  0  0  0  0  0  0  0  0
  -12.1810  -17.5579   25.4990 C   0  0  0  0  0  0  0  0  0  0  0  0
  -10.4106  -17.0925   24.0642 C   0  0  0  0  0  0  0  0  0  0  0  0
   -7.6294  -17.3773   22.6968 C   0  0  0  0  0  0  0  0  0  0  0  0
   -7.6992  -15.2795   21.2608 C   0  0  2  0  0  0  0  0  0  0  0  0
   -7.6325  -14.2505   20.1294 C   0  0  0  0  0  0  0  0  0  0  0  0
   -6.2378  -13.6447   19.9559 C   0  0  0  0  0  0  0  0  0  0  0  0
  -11.4175  -17.1644   26.6061 N   0  0  0  0  0  0  0  0  0  0  0  0
   -7.9131  -16.2461   23.3441 N   0  0  0  0  0  0  0  0  0  0  0  0
  -11.6474  -17.5052   24.2701 N   0  0  0  0  0  0  0  0  0  0  0  0
   -9.4185  -16.3787   27.3599 O   0  0  0  0  0  0  0  0  0  0  0  0
   -5.8483  -11.0330   17.7797 O   0  5  0  0  0  0  0  0  0  0  0  0
   -5.0319  -11.0906   14.9511 O   0  0  0  0  0  0  0  0  0  0  0  0
   -5.9006  -13.4761   18.5755 O   0  0  0  0  0  0  0  0  0  0  0  0
   -6.4457  -12.8723   16.1216 O   0  0  0  0  0  0  0  0  0  0  0  0
   -3.8657  -13.0328   16.2000 O   0  5  0  0  0  0  0  0  0  0  0  0
   -8.1027  -12.2787   17.9973 O   0  0  0  0  0  0  0  0  0  0  0  0
   -5.1332  -13.4736   14.0120 O   0  0  0  0  0  0  0  0  0  0  0  0
   -7.4775  -16.9877   21.0039 S   0  0  0  0  0  0  0  0  0  0  0  0
   -6.6702  -12.4103   17.6454 P   0  0  2  0  0  0  0  0  0  0  0  0
   -5.0365  -12.6408   15.3840 P   0  0  2  0  0  0  0  0  0  0  0  0
  2 16  2  0  0  0  0
  2  3  1  0  0  0  0
  2 13  1  0  0  0  0
  3  8  2  0  0  0  0
  3  4  1  0  0  0  0
  4 14  1  0  0  0  0
  5  1  1  1  0  0  0
  5 14  1  0  0  0  0
  5 10  1  0  0  0  0
  6  7  1  0  0  0  0
  7 13  1  0  0  0  0
  7 15  2  0  0  0  0
  8 15  1  0  0  0  0
  9 14  1  0  0  0  0
  9 24  1  0  0  0  0
 10 24  1  0  0  0  0
 10 11  1  6  0  0  0
 11 12  1  0  0  0  0
 12 19  1  0  0  0  0
 17 25  1  0  0  0  0
 19 25  1  0  0  0  0
 20 26  1  0  0  0  0
 21 26  1  0  0  0  0
 22 25  2  0  0  0  0
 23 26  2  0  0  0  0
 25 20  1  6  0  0  0
 26 18  1  6  0  0  0
M  CHG  2  17  -1  21  -1
M  END
>  <CHROM.1>
-176.85438853,88.16870379,140.29424417,99.52920661,67.59651477,36.80085750
89.81931192,-78.97512658,-7.75056760,-14.70758382,20.66270104,-2.12750938
-0.59551413,-1.44705420

>  <Name>
ligand

>  <RI>
0

>  <Rbt.Current_Directory>
/home/itssahil/PROJECTS/Mol_Feturizer/New_Systems/rnas/3D2X

>  <Rbt.Executable>
rbdock ($Id: //depot/dev/client3/rdock/2013.1/src/exe/rbdock.cxx#4 $)

>  <Rbt.Library>
libRbt.so (2013.1, Build901 2013/11/27)

>  <Rbt.Parameter_File>
/export/apps/rDock/src/rDock_2013.1_src/data/scripts/dock_solv.prm

>  <Rbt.Receptor>
prm/pocket_docking_6.prm

>  <SCORE>
-23.6971

>  <SCORE.INTER>
-25.3111

>  <SCORE.INTER.CONST>
1

>  <SCORE.INTER.POLAR>
0

>  <SCORE.INTER.ROT>
8

>  <SCORE.INTER.SOLV>
17.9475

>  <SCORE.INTER.VDW>
-31.7899

>  <SCORE.INTER.norm>
-0.973506

>  <SCORE.INTRA>
1.61404

>  <SCORE.INTRA.DIHEDRAL>
3.2323

>  <SCORE.INTRA.DIHEDRAL.0>
7.88077

>  <SCORE.INTRA.POLAR>
0

>  <SCORE.INTRA.POLAR.0>
0

>  <SCORE.INTRA.REPUL>
0

>  <SCORE.INTRA.REPUL.0>
0

>  <SCORE.INTRA.SOLV>
-0.43688

>  <SCORE.INTRA.SOLV.lig_0>
-63.2542

>  <SCORE.INTRA.VDW>
0.216329

>  <SCORE.INTRA.VDW.0>
-3.15072

>  <SCORE.INTRA.norm>
0.0620784

>  <SCORE.RESTR>
0

>  <SCORE.RESTR.CAVITY>
0

>  <SCORE.RESTR.norm>
0

>  <SCORE.SYSTEM>
0

>  <SCORE.SYSTEM.CONST>
0

>  <SCORE.SYSTEM.DIHEDRAL>
0

>  <SCORE.SYSTEM.SOLV>
0

>  <SCORE.SYSTEM.norm>
0

>  <SCORE.heavy>
26

>  <SCORE.norm>
-0.911427

>  <RMSD>
2.599

$$$$
ligand
 OpenBabel11021811473D
libRbt.so/2013.1/901 2013/11/27
 26 27  0  0  0  0  0  0  0  0999 V2000
   -6.2018  -17.1370   23.5058 C   0  0  0  0  0  0  0  0  0  0  0  0
  -10.3494  -17.4098   24.2584 C   0  0  0  0  0  0  0  0  0  0  0  0
   -9.7537  -16.7922   25.3531 C   0  0  0  0  0  0  0  0  0  0  0  0
   -8.3264  -16.2398   25.3334 C   0  0  0  0  0  0  0  0  0  0  0  0
   -7.0875  -15.9177   23.2330 C   0  0  1  0  0  0  0  0  0  0  0  0
  -13.8125  -18.1497   25.6699 C   0  0  0  0  0  0  0  0  0  0  0  0
  -12.3621  -17.6782   25.5547 C   0  0  0  0  0  0  0  0  0  0  0  0
  -10.5079  -16.6530   26.5139 C   0  0  0  0  0  0  0  0  0  0  0  0
   -8.7743  -14.4688   23.7216 C   0  0  0  0  0  0  0  0  0  0  0  0
   -6.9518  -15.1488   22.0833 C   0  0  2  0  0  0  0  0  0  0  0  0
   -5.9992  -15.2840   20.8926 C   0  0  0  0  0  0  0  0  0  0  0  0
   -6.7024  -15.1124   19.5442 C   0  0  0  0  0  0  0  0  0  0  0  0
  -11.6679  -17.8603   24.3512 N   0  0  0  0  0  0  0  0  0  0  0  0
   -8.0504  -15.5319   24.0749 N   0  0  0  0  0  0  0  0  0  0  0  0
  -11.7539  -17.0823   26.5903 N   0  0  0  0  0  0  0  0  0  0  0  0
   -9.7222  -17.5573   23.2094 O   0  0  0  0  0  0  0  0  0  0  0  0
   -5.2620  -12.4489   20.4513 O   0  5  0  0  0  0  0  0  0  0  0  0
   -2.7746  -11.3173   16.9080 O   0  0  0  0  0  0  0  0  0  0  0  0
   -6.0196  -14.1756   18.7052 O   0  0  0  0  0  0  0  0  0  0  0  0
   -5.0246  -11.9043   17.9742 O   0  0  0  0  0  0  0  0  0  0  0  0
   -3.2345  -10.6631   19.3683 O   0  5  0  0  0  0  0  0  0  0  0  0
   -7.3711  -12.0100   19.0227 O   0  0  0  0  0  0  0  0  0  0  0  0
   -2.9063  -13.1250   18.7207 O   0  0  0  0  0  0  0  0  0  0  0  0
   -8.1181  -13.8630   22.2238 S   0  0  0  0  0  0  0  0  0  0  0  0
   -6.0125  -12.5995   19.0355 P   0  0  2  0  0  0  0  0  0  0  0  0
   -3.4705  -11.6752   18.3146 P   0  0  2  0  0  0  0  0  0  0  0  0
  2 16  2  0  0  0  0
  2  3  1  0  0  0  0
  2 13  1  0  0  0  0
  3  8  2  0  0  0  0
  3  4  1  0  0  0  0
  4 14  1  0  0  0  0
  5  1  1  6  0  0  0
  5 14  1  0  0  0  0
  5 10  1  0  0  0  0
  6  7  1  0  0  0  0
  7 13  1  0  0  0  0
  7 15  2  0  0  0  0
  8 15  1  0  0  0  0
  9 14  1  0  0  0  0
  9 24  1  0  0  0  0
 10 24  1  0  0  0  0
 10 11  1  1  0  0  0
 11 12  1  0  0  0  0
 12 19  1  0  0  0  0
 17 25  1  0  0  0  0
 19 25  1  0  0  0  0
 20 26  1  0  0  0  0
 21 26  1  0  0  0  0
 22 25  2  0  0  0  0
 23 26  2  0  0  0  0
 25 20  1  6  0  0  0
 26 18  1  6  0  0  0
M  CHG  2  17  -1  21  -1
M  END
>  <CHROM.1>
42.22053353,134.86879590,130.07860937,-119.10483765,-70.31571304,19.45827036
62.77041754,166.12013916,-7.27626558,-14.53712703,21.65888810,-2.24139474
-0.04434465,-0.95134698

>  <Name>
ligand

>  <RI>
0

>  <Rbt.Current_Directory>
/home/itssahil/PROJECTS/Mol_Feturizer/New_Systems/rnas/3D2X

>  <Rbt.Executable>
rbdock ($Id: //depot/dev/client3/rdock/2013.1/src/exe/rbdock.cxx#4 $)

>  <Rbt.Library>
libRbt.so (2013.1, Build901 2013/11/27)

>  <Rbt.Parameter_File>
/export/apps/rDock/src/rDock_2013.1_src/data/scripts/dock_solv.prm

>  <Rbt.Receptor>
prm/pocket_docking_2.prm

>  <SCORE>
-16.0122

>  <SCORE.INTER>
-19.1629

>  <SCORE.INTER.CONST>
1

>  <SCORE.INTER.POLAR>
0

>  <SCORE.INTER.ROT>
8

>  <SCORE.INTER.SOLV>
8.39053

>  <SCORE.INTER.VDW>
-24.5054

>  <SCORE.INTER.norm>
-0.737034

>  <SCORE.INTRA>
2.75824

>  <SCORE.INTRA.DIHEDRAL>
4.63378

>  <SCORE.INTRA.DIHEDRAL.0>
7.88077

>  <SCORE.INTRA.POLAR>
0

>  <SCORE.INTRA.POLAR.0>
0

>  <SCORE.INTRA.REPUL>
0

>  <SCORE.INTRA.REPUL.0>
0

>  <SCORE.INTRA.SOLV>
2.60012

>  <SCORE.INTRA.SOLV.lig_0>
-63.2542

>  <SCORE.INTRA.VDW>
-0.85871

>  <SCORE.INTRA.VDW.0>
-3.15072

>  <SCORE.INTRA.norm>
0.106086

>  <SCORE.RESTR>
0.392481

>  <SCORE.RESTR.CAVITY>
0.392481

>  <SCORE.RESTR.norm>
0.0150954

>  <SCORE.SYSTEM>
0

>  <SCORE.SYSTEM.CONST>
0

>  <SCORE.SYSTEM.DIHEDRAL>
0

>  <SCORE.SYSTEM.SOLV>
0

>  <SCORE.SYSTEM.norm>
0

>  <SCORE.heavy>
26

>  <SCORE.norm>
-0.615853

>  <RMSD>
2.607

$$$$
ligand
 OpenBabel11021811473D
libRbt.so/2013.1/901 2013/11/27
 26 27  0  0  0  0  0  0  0  0999 V2000
   -7.6560  -14.0096   22.7155 C   0  0  0  0  0  0  0  0  0  0  0  0
  -10.1951  -16.9737   26.0460 C   0  0  0  0  0  0  0  0  0  0  0  0
   -9.8568  -16.8091   24.7069 C   0  0  0  0  0  0  0  0  0  0  0  0
   -8.4597  -16.3966   24.2370 C   0  0  0  0  0  0  0  0  0  0  0  0
   -8.0095  -15.3471   22.0585 C   0  0  1  0  0  0  0  0  0  0  0  0
  -13.8295  -18.0771   25.7200 C   0  0  0  0  0  0  0  0  0  0  0  0
  -12.4156  -17.6141   25.3658 C   0  0  0  0  0  0  0  0  0  0  0  0
  -10.8372  -17.0559   23.7513 C   0  0  0  0  0  0  0  0  0  0  0  0
   -8.6293  -17.5375   22.0912 C   0  0  0  0  0  0  0  0  0  0  0  0
   -7.9639  -15.5282   20.6813 C   0  0  2  0  0  0  0  0  0  0  0  0
   -7.5843  -14.5639   19.5547 C   0  0  0  0  0  0  0  0  0  0  0  0
   -6.1118  -14.1488   19.5962 C   0  0  0  0  0  0  0  0  0  0  0  0
  -11.4862  -17.3809   26.3882 N   0  0  0  0  0  0  0  0  0  0  0  0
   -8.3666  -16.4199   22.7701 N   0  0  0  0  0  0  0  0  0  0  0  0
  -12.0546  -17.4410   24.0861 N   0  0  0  0  0  0  0  0  0  0  0  0
   -9.3622  -16.7660   26.9286 O   0  0  0  0  0  0  0  0  0  0  0  0
   -6.4479  -17.0924   18.1470 O   0  5  0  0  0  0  0  0  0  0  0  0
   -3.5471  -13.4546   17.6176 O   0  0  0  0  0  0  0  0  0  0  0  0
   -5.2392  -15.2797   19.5099 O   0  0  0  0  0  0  0  0  0  0  0  0
   -5.3315  -15.1533   16.9294 O   0  0  0  0  0  0  0  0  0  0  0  0
   -3.0649  -15.1054   15.6851 O   0  5  0  0  0  0  0  0  0  0  0  0
   -3.8691  -16.9259   18.0851 O   0  0  0  0  0  0  0  0  0  0  0  0
   -4.7627  -13.2056   15.3746 O   0  0  0  0  0  0  0  0  0  0  0  0
   -8.4838  -17.1654   20.3938 S   0  0  0  0  0  0  0  0  0  0  0  0
   -5.1350  -16.1616   18.1666 P   0  0  2  0  0  0  0  0  0  0  0  0
   -4.1009  -14.2911   16.3589 P   0  0  2  0  0  0  0  0  0  0  0  0
  2 16  2  0  0  0  0
  2  3  1  0  0  0  0
  2 13  1  0  0  0  0
  3  8  2  0  0  0  0
  3  4  1  0  0  0  0
  4 14  1  0  0  0  0
  5  1  1  1  0  0  0
  5 14  1  0  0  0  0
  5 10  1  0  0  0  0
  6  7  1  0  0  0  0
  7 13  1  0  0  0  0
  7 15  2  0  0  0  0
  8 15  1  0  0  0  0
  9 14  1  0  0  0  0
  9 24  1  0  0  0  0
 10 24  1  0  0  0  0
 10 11  1  6  0  0  0
 11 12  1  0  0  0  0
 12 19  1  0  0  0  0
 17 25  1  0  0  0  0
 19 25  1  0  0  0  0
 20 26  1  0  0  0  0
 21 26  1  0  0  0  0
 22 25  2  0  0  0  0
 23 26  2  0  0  0  0
 25 20  1  6  0  0  0
 26 18  1  1  0  0  0
M  CHG  2  17  -1  21  -1
M  END
>  <CHROM.1>
174.90493037,65.72872195,58.53007569,123.17701782,67.52866139,-164.79652380
-77.11697139,-56.63655790,-7.42506374,-15.93757064,20.74251121,-2.48484749
-0.68845100,-1.97942047

>  <Name>
ligand

>  <RI>
0

>  <Rbt.Current_Directory>
/home/itssahil/PROJECTS/Mol_Feturizer/New_Systems/rnas/3D2X

>  <Rbt.Executable>
rbdock ($Id: //depot/dev/client3/rdock/2013.1/src/exe/rbdock.cxx#4 $)

>  <Rbt.Library>
libRbt.so (2013.1, Build901 2013/11/27)

>  <Rbt.Parameter_File>
/export/apps/rDock/src/rDock_2013.1_src/data/scripts/dock_solv.prm

>  <Rbt.Receptor>
prm/pocket_docking_5.prm

>  <SCORE>
-23.3842

>  <SCORE.INTER>
-21.8718

>  <SCORE.INTER.CONST>
1

>  <SCORE.INTER.POLAR>
0

>  <SCORE.INTER.ROT>
8

>  <SCORE.INTER.SOLV>
15.0457

>  <SCORE.INTER.VDW>
-28.5297

>  <SCORE.INTER.norm>
-0.841222

>  <SCORE.INTRA>
-1.5124

>  <SCORE.INTRA.DIHEDRAL>
-1.62159

>  <SCORE.INTRA.DIHEDRAL.0>
7.88077

>  <SCORE.INTRA.POLAR>
0

>  <SCORE.INTRA.POLAR.0>
0

>  <SCORE.INTRA.REPUL>
0

>  <SCORE.INTRA.REPUL.0>
0

>  <SCORE.INTRA.SOLV>
-0.840571

>  <SCORE.INTRA.SOLV.lig_0>
-63.2542

>  <SCORE.INTRA.VDW>
-0.281319

>  <SCORE.INTRA.VDW.0>
-3.15072

>  <SCORE.INTRA.norm>
-0.0581692

>  <SCORE.RESTR>
0

>  <SCORE.RESTR.CAVITY>
0

>  <SCORE.RESTR.norm>
0

>  <SCORE.SYSTEM>
0

>  <SCORE.SYSTEM.CONST>
0

>  <SCORE.SYSTEM.DIHEDRAL>
0

>  <SCORE.SYSTEM.SOLV>
0

>  <SCORE.SYSTEM.norm>
0

>  <SCORE.heavy>
26

>  <SCORE.norm>
-0.899391

>  <RMSD>
2.639

$$$$
ligand
 OpenBabel11021811473D
libRbt.so/2013.1/901 2013/11/27
 26 27  0  0  0  0  0  0  0  0999 V2000
   -7.0681  -13.7547   25.5282 C   0  0  0  0  0  0  0  0  0  0  0  0
   -9.9309  -16.9516   26.4168 C   0  0  0  0  0  0  0  0  0  0  0  0
   -9.4441  -16.8368   25.1189 C   0  0  0  0  0  0  0  0  0  0  0  0
   -8.0000  -16.4475   24.7936 C   0  0  0  0  0  0  0  0  0  0  0  0
   -7.5412  -14.1267   24.1199 C   0  0  1  0  0  0  0  0  0  0  0  0
  -13.5153  -18.0505   25.7263 C   0  0  0  0  0  0  0  0  0  0  0  0
  -12.0669  -17.6066   25.5160 C   0  0  0  0  0  0  0  0  0  0  0  0
  -10.3139  -17.1137   24.0691 C   0  0  0  0  0  0  0  0  0  0  0  0
   -8.3219  -15.5716   22.5432 C   0  0  0  0  0  0  0  0  0  0  0  0
   -7.5527  -13.2073   23.0778 C   0  0  2  0  0  0  0  0  0  0  0  0
   -7.1375  -11.7345   23.0348 C   0  0  0  0  0  0  0  0  0  0  0  0
   -6.6384  -11.2958   21.6561 C   0  0  0  0  0  0  0  0  0  0  0  0
  -11.2554  -17.3407   26.6269 N   0  0  0  0  0  0  0  0  0  0  0  0
   -7.9551  -15.3580   23.8076 N   0  0  0  0  0  0  0  0  0  0  0  0
  -11.5642  -17.4813   24.2793 N   0  0  0  0  0  0  0  0  0  0  0  0
   -9.1998  -16.7158   27.3789 O   0  0  0  0  0  0  0  0  0  0  0  0
   -4.7488  -10.1932   19.5593 O   0  5  0  0  0  0  0  0  0  0  0  0
   -3.3510  -13.6307   22.0771 O   0  0  0  0  0  0  0  0  0  0  0  0
   -5.4267  -11.9650   21.2930 O   0  0  0  0  0  0  0  0  0  0  0  0
   -3.2169  -12.1867   19.9698 O   0  0  0  0  0  0  0  0  0  0  0  0
   -3.2315  -14.7640   19.7547 O   0  5  0  0  0  0  0  0  0  0  0  0
   -5.4727  -12.5521   18.7889 O   0  0  0  0  0  0  0  0  0  0  0  0
   -1.1836  -13.5473   20.7108 O   0  0  0  0  0  0  0  0  0  0  0  0
   -8.2024  -14.0504   21.6993 S   0  0  0  0  0  0  0  0  0  0  0  0
   -4.7666  -11.7787   19.8361 P   0  0  2  0  0  0  0  0  0  0  0  0
   -2.7840  -13.6132   20.5708 P   0  0  2  0  0  0  0  0  0  0  0  0
  2 16  2  0  0  0  0
  2  3  1  0  0  0  0
  2 13  1  0  0  0  0
  3  8  2  0  0  0  0
  3  4  1  0  0  0  0
  4 14  1  0  0  0  0
  5  1  1  6  0  0  0
  5 14  1  0  0  0  0
  5 10  1  0  0  0  0
  6  7  1  0  0  0  0
  7 13  1  0  0  0  0
  7 15  2  0  0  0  0
  8 15  1  0  0  0  0
  9 14  1  0  0  0  0
  9 24  1  0  0  0  0
 10 24  1  0  0  0  0
 10 11  1  1  0  0  0
 11 12  1  0  0  0  0
 12 19  1  0  0  0  0
 17 25  1  0  0  0  0
 19 25  1  0  0  0  0
 20 26  1  0  0  0  0
 21 26  1  0  0  0  0
 22 25  2  0  0  0  0
 23 26  2  0  0  0  0
 25 20  1  1  0  0  0
 26 18  1  1  0  0  0
M  CHG  2  17  -1  21  -1
M  END
>  <CHROM.1>
-129.89180556,150.77700150,-65.29677651,111.14830808,174.46821635,166.19184375
47.79102916,-61.40256502,-6.89791321,-14.27420351,22.61417957,-2.36460201
0.12764452,-0.73862916

>  <Name>
ligand

>  <RI>
0

>  <Rbt.Current_Directory>
/home/itssahil/PROJECTS/Mol_Feturizer/New_Systems/rnas/3D2X

>  <Rbt.Executable>
rbdock ($Id: //depot/dev/client3/rdock/2013.1/src/exe/rbdock.cxx#4 $)

>  <Rbt.Library>
libRbt.so (2013.1, Build901 2013/11/27)

>  <Rbt.Parameter_File>
/export/apps/rDock/src/rDock_2013.1_src/data/scripts/dock_solv.prm

>  <Rbt.Receptor>
prm/pocket_docking_3.prm

>  <SCORE>
-19.1453

>  <SCORE.INTER>
-16.3239

>  <SCORE.INTER.CONST>
1

>  <SCORE.INTER.POLAR>
0

>  <SCORE.INTER.ROT>
8

>  <SCORE.INTER.SOLV>
8.36062

>  <SCORE.INTER.VDW>
-22.6028

>  <SCORE.INTER.norm>
-0.627844

>  <SCORE.INTRA>
-2.8214

>  <SCORE.INTRA.DIHEDRAL>
-2.20285

>  <SCORE.INTRA.DIHEDRAL.0>
7.88077

>  <SCORE.INTRA.POLAR>
0

>  <SCORE.INTRA.POLAR.0>
0

>  <SCORE.INTRA.REPUL>
0

>  <SCORE.INTRA.REPUL.0>
0

>  <SCORE.INTRA.SOLV>
-2.69278

>  <SCORE.INTRA.SOLV.lig_0>
-63.2542

>  <SCORE.INTRA.VDW>
-0.373588

>  <SCORE.INTRA.VDW.0>
-3.15072

>  <SCORE.INTRA.norm>
-0.108516

>  <SCORE.RESTR>
0

>  <SCORE.RESTR.CAVITY>
0

>  <SCORE.RESTR.norm>
0

>  <SCORE.SYSTEM>
0

>  <SCORE.SYSTEM.CONST>
0

>  <SCORE.SYSTEM.DIHEDRAL>
0

>  <SCORE.SYSTEM.SOLV>
0

>  <SCORE.SYSTEM.norm>
0

>  <SCORE.heavy>
26

>  <SCORE.norm>
-0.73636

>  <RMSD>
2.645

$$$$
ligand
 OpenBabel11021811473D
libRbt.so/2013.1/901 2013/11/27
 26 27  0  0  0  0  0  0  0  0999 V2000
   -6.5092  -17.6046   23.1567 C   0  0  0  0  0  0  0  0  0  0  0  0
  -10.1280  -16.6208   26.2677 C   0  0  0  0  0  0  0  0  0  0  0  0
   -9.6686  -16.3997   24.9736 C   0  0  0  0  0  0  0  0  0  0  0  0
   -8.2919  -15.8093   24.6592 C   0  0  0  0  0  0  0  0  0  0  0  0
   -7.2908  -16.4583   22.5082 C   0  0  1  0  0  0  0  0  0  0  0  0
  -13.5361  -18.1693   25.5466 C   0  0  0  0  0  0  0  0  0  0  0  0
  -12.1618  -17.5280   25.3489 C   0  0  0  0  0  0  0  0  0  0  0  0
  -10.4994  -16.7572   23.9164 C   0  0  0  0  0  0  0  0  0  0  0  0
   -8.7470  -14.7085   22.5341 C   0  0  0  0  0  0  0  0  0  0  0  0
   -7.2171  -16.1920   21.1462 C   0  0  2  0  0  0  0  0  0  0  0  0
   -6.4353  -16.8875   20.0289 C   0  0  0  0  0  0  0  0  0  0  0  0
   -6.0674  -15.9434   18.8819 C   0  0  0  0  0  0  0  0  0  0  0  0
  -11.3869  -17.1912   26.4668 N   0  0  0  0  0  0  0  0  0  0  0  0
   -8.0993  -15.6588   23.2096 N   0  0  0  0  0  0  0  0  0  0  0  0
  -11.6876  -17.2963   24.1163 N   0  0  0  0  0  0  0  0  0  0  0  0
   -9.4298  -16.3198   27.2360 O   0  0  0  0  0  0  0  0  0  0  0  0
   -5.5877  -12.4103   18.9073 O   0  5  0  0  0  0  0  0  0  0  0  0
   -3.5347  -13.3592   21.1666 O   0  0  0  0  0  0  0  0  0  0  0  0
   -5.1700  -14.9140   19.3093 O   0  0  0  0  0  0  0  0  0  0  0  0
   -3.2338  -13.3429   18.6264 O   0  0  0  0  0  0  0  0  0  0  0  0
   -2.1507  -15.2258   20.0299 O   0  5  0  0  0  0  0  0  0  0  0  0
   -5.0515  -13.9719   16.9185 O   0  0  0  0  0  0  0  0  0  0  0  0
   -1.2441  -12.8273   20.1462 O   0  0  0  0  0  0  0  0  0  0  0  0
   -8.2187  -14.7933   20.8745 S   0  0  0  0  0  0  0  0  0  0  0  0
   -4.7800  -13.6841   18.3457 P   0  0  2  0  0  0  0  0  0  0  0  0
   -2.5205  -13.7932   19.9946 P   0  0  2  0  0  0  0  0  0  0  0  0
  2 16  2  0  0  0  0
  2  3  1  0  0  0  0
  2 13  1  0  0  0  0
  3  8  2  0  0  0  0
  3  4  1  0  0  0  0
  4 14  1  0  0  0  0
  5  1  1  6  0  0  0
  5 14  1  0  0  0  0
  5 10  1  0  0  0  0
  6  7  1  0  0  0  0
  7 13  1  0  0  0  0
  7 15  2  0  0  0  0
  8 15  1  0  0  0  0
  9 14  1  0  0  0  0
  9 24  1  0  0  0  0
 10 24  1  0  0  0  0
 10 11  1  1  0  0  0
 11 12  1  0  0  0  0
 12 19  1  0  0  0  0
 17 25  1  0  0  0  0
 19 25  1  0  0  0  0
 20 26  1  0  0  0  0
 21 26  1  0  0  0  0
 22 25  2  0  0  0  0
 23 26  2  0  0  0  0
 25 20  1  1  0  0  0
 26 18  1  1  0  0  0
M  CHG  2  17  -1  21  -1
M  END
>  <CHROM.1>
-178.48044919,-151.29427748,64.44869010,-106.85663327,-171.97646138,91.14819576
105.24673669,-47.51219682,-6.84116253,-15.28366192,21.68665465,-2.42510892
-0.27777722,-1.39483821

>  <Name>
ligand

>  <RI>
0

>  <Rbt.Current_Directory>
/home/itssahil/PROJECTS/Mol_Feturizer/New_Systems/rnas/3D2X

>  <Rbt.Executable>
rbdock ($Id: //depot/dev/client3/rdock/2013.1/src/exe/rbdock.cxx#4 $)

>  <Rbt.Library>
libRbt.so (2013.1, Build901 2013/11/27)

>  <Rbt.Parameter_File>
/export/apps/rDock/src/rDock_2013.1_src/data/scripts/dock_solv.prm

>  <Rbt.Receptor>
prm/pocket_docking_8.prm

>  <SCORE>
-21.4306

>  <SCORE.INTER>
-20.6042

>  <SCORE.INTER.CONST>
1

>  <SCORE.INTER.POLAR>
0

>  <SCORE.INTER.ROT>
8

>  <SCORE.INTER.SOLV>
11.562

>  <SCORE.INTER.VDW>
-26.5235

>  <SCORE.INTER.norm>
-0.79247

>  <SCORE.INTRA>
-0.826392

>  <SCORE.INTRA.DIHEDRAL>
1.19161

>  <SCORE.INTRA.DIHEDRAL.0>
7.88077

>  <SCORE.INTRA.POLAR>
0

>  <SCORE.INTRA.POLAR.0>
0

>  <SCORE.INTRA.REPUL>
0

>  <SCORE.INTRA.REPUL.0>
0

>  <SCORE.INTRA.SOLV>
-2.60969

>  <SCORE.INTRA.SOLV.lig_0>
-63.2542

>  <SCORE.INTRA.VDW>
-0.11735

>  <SCORE.INTRA.VDW.0>
-3.15072

>  <SCORE.INTRA.norm>
-0.0317843

>  <SCORE.RESTR>
0

>  <SCORE.RESTR.CAVITY>
0

>  <SCORE.RESTR.norm>
0

>  <SCORE.SYSTEM>
0

>  <SCORE.SYSTEM.CONST>
0

>  <SCORE.SYSTEM.DIHEDRAL>
0

>  <SCORE.SYSTEM.SOLV>
0

>  <SCORE.SYSTEM.norm>
0

>  <SCORE.heavy>
26

>  <SCORE.norm>
-0.824254

>  <RMSD>
2.646

$$$$
ligand
 OpenBabel11021811473D
libRbt.so/2013.1/901 2013/11/27
 26 27  0  0  0  0  0  0  0  0999 V2000
   -8.6676  -14.5972   22.8878 C   0  0  0  0  0  0  0  0  0  0  0  0
   -9.8866  -16.7236   26.4748 C   0  0  0  0  0  0  0  0  0  0  0  0
   -9.2794  -16.8343   25.2283 C   0  0  0  0  0  0  0  0  0  0  0  0
   -7.8106  -16.4868   24.9744 C   0  0  0  0  0  0  0  0  0  0  0  0
   -7.9531  -14.1660   24.1720 C   0  0  1  0  0  0  0  0  0  0  0  0
  -13.3915  -17.9832   25.6614 C   0  0  0  0  0  0  0  0  0  0  0  0
  -11.9291  -17.5616   25.5108 C   0  0  0  0  0  0  0  0  0  0  0  0
  -10.0468  -17.3072   24.1685 C   0  0  0  0  0  0  0  0  0  0  0  0
   -6.9841  -14.5482   26.1964 C   0  0  0  0  0  0  0  0  0  0  0  0
   -7.6668  -12.8340   24.4462 C   0  0  2  0  0  0  0  0  0  0  0  0
   -7.9547  -11.5608   23.6465 C   0  0  0  0  0  0  0  0  0  0  0  0
   -6.9143  -11.2934   22.5565 C   0  0  0  0  0  0  0  0  0  0  0  0
  -11.2256  -17.0895   26.6268 N   0  0  0  0  0  0  0  0  0  0  0  0
   -7.5779  -15.0415   25.1088 N   0  0  0  0  0  0  0  0  0  0  0  0
  -11.3119  -17.6507   24.3239 N   0  0  0  0  0  0  0  0  0  0  0  0
   -9.2492  -16.3089   27.4430 O   0  0  0  0  0  0  0  0  0  0  0  0
   -6.8676  -12.9297   19.0025 O   0  5  0  0  0  0  0  0  0  0  0  0
   -4.0350  -10.7193   18.3060 O   0  0  0  0  0  0  0  0  0  0  0  0
   -7.0464  -12.2055   21.4618 O   0  0  0  0  0  0  0  0  0  0  0  0
   -6.2017  -10.5593   19.6563 O   0  0  0  0  0  0  0  0  0  0  0  0
   -6.2954  -10.4680   17.0734 O   0  5  0  0  0  0  0  0  0  0  0  0
   -4.7277  -12.5329   20.3971 O   0  0  0  0  0  0  0  0  0  0  0  0
   -5.3235   -8.5059   18.4127 O   0  0  0  0  0  0  0  0  0  0  0  0
   -6.8205  -12.8271   25.9684 S   0  0  0  0  0  0  0  0  0  0  0  0
   -6.1184  -12.0871   20.1511 P   0  0  2  0  0  0  0  0  0  0  0  0
   -5.5187  -10.0960   18.2770 P   0  0  2  0  0  0  0  0  0  0  0  0
  2 16  2  0  0  0  0
  2  3  1  0  0  0  0
  2 13  1  0  0  0  0
  3  8  2  0  0  0  0
  3  4  1  0  0  0  0
  4 14  1  0  0  0  0
  5  1  1  1  0  0  0
  5 14  1  0  0  0  0
  5 10  1  0  0  0  0
  6  7  1  0  0  0  0
  7 13  1  0  0  0  0
  7 15  2  0  0  0  0
  8 15  1  0  0  0  0
  9 14  1  0  0  0  0
  9 24  1  0  0  0  0
 10 24  1  0  0  0  0
 10 11  1  6  0  0  0
 11 12  1  0  0  0  0
 12 19  1  0  0  0  0
 17 25  1  0  0  0  0
 19 25  1  0  0  0  0
 20 26  1  0  0  0  0
 21 26  1  0  0  0  0
 22 25  2  0  0  0  0
 23 26  2  0  0  0  0
 25 20  1  6  0  0  0
 26 18  1  6  0  0  0
M  CHG  2  17  -1  21  -1
M  END
>  <CHROM.1>
-68.24963413,-82.71762519,72.47694698,-75.49991399,176.81349263,-61.56929606
-161.88976109,-47.53866058,-7.64370273,-13.48197580,22.65488312,2.25315932
0.78287565,1.76469694

>  <Name>
ligand

>  <RI>
0

>  <Rbt.Current_Directory>
/home/itssahil/PROJECTS/Mol_Feturizer/New_Systems/rnas/3D2X

>  <Rbt.Executable>
rbdock ($Id: //depot/dev/client3/rdock/2013.1/src/exe/rbdock.cxx#4 $)

>  <Rbt.Library>
libRbt.so (2013.1, Build901 2013/11/27)

>  <Rbt.Parameter_File>
/export/apps/rDock/src/rDock_2013.1_src/data/scripts/dock_solv.prm

>  <Rbt.Receptor>
prm/pocket_docking_4.prm

>  <SCORE>
-21.5433

>  <SCORE.INTER>
-18.9089

>  <SCORE.INTER.CONST>
1

>  <SCORE.INTER.POLAR>
0

>  <SCORE.INTER.ROT>
8

>  <SCORE.INTER.SOLV>
14.0101

>  <SCORE.INTER.VDW>
-26.2093

>  <SCORE.INTER.norm>
-0.727265

>  <SCORE.INTRA>
-2.63443

>  <SCORE.INTRA.DIHEDRAL>
-1.77018

>  <SCORE.INTRA.DIHEDRAL.0>
7.88077

>  <SCORE.INTRA.POLAR>
0

>  <SCORE.INTRA.POLAR.0>
0

>  <SCORE.INTRA.REPUL>
0

>  <SCORE.INTRA.REPUL.0>
0

>  <SCORE.INTRA.SOLV>
-1.4587

>  <SCORE.INTRA.SOLV.lig_0>
-63.2542

>  <SCORE.INTRA.VDW>
-1.01999

>  <SCORE.INTRA.VDW.0>
-3.15072

>  <SCORE.INTRA.norm>
-0.101324

>  <SCORE.RESTR>
0

>  <SCORE.RESTR.CAVITY>
0

>  <SCORE.RESTR.norm>
0

>  <SCORE.SYSTEM>
0

>  <SCORE.SYSTEM.CONST>
0

>  <SCORE.SYSTEM.DIHEDRAL>
0

>  <SCORE.SYSTEM.SOLV>
0

>  <SCORE.SYSTEM.norm>
0

>  <SCORE.heavy>
26

>  <SCORE.norm>
-0.828589

>  <RMSD>
2.649

$$$$
ligand
 OpenBabel11021811473D
libRbt.so/2013.1/901 2013/11/27
 26 27  0  0  0  0  0  0  0  0999 V2000
   -6.9962  -14.0351   25.1685 C   0  0  0  0  0  0  0  0  0  0  0  0
  -10.3418  -16.7730   26.3037 C   0  0  0  0  0  0  0  0  0  0  0  0
   -9.7532  -16.9851   25.0614 C   0  0  0  0  0  0  0  0  0  0  0  0
   -8.2934  -16.6435   24.7530 C   0  0  0  0  0  0  0  0  0  0  0  0
   -7.6199  -14.4625   23.8366 C   0  0  1  0  0  0  0  0  0  0  0  0
  -13.8419  -18.1411   25.6637 C   0  0  0  0  0  0  0  0  0  0  0  0
  -12.3879  -17.7167   25.4517 C   0  0  0  0  0  0  0  0  0  0  0  0
  -10.5310  -17.5581   24.0603 C   0  0  0  0  0  0  0  0  0  0  0  0
   -8.6874  -15.9267   22.4583 C   0  0  0  0  0  0  0  0  0  0  0  0
   -7.6057  -13.6396   22.7167 C   0  0  2  0  0  0  0  0  0  0  0  0
   -7.0250  -12.2385   22.5086 C   0  0  0  0  0  0  0  0  0  0  0  0
   -5.6237  -12.2593   21.8937 C   0  0  0  0  0  0  0  0  0  0  0  0
  -11.6730  -17.1402   26.5101 N   0  0  0  0  0  0  0  0  0  0  0  0
   -8.1990  -15.6547   23.6693 N   0  0  0  0  0  0  0  0  0  0  0  0
  -11.7886  -17.9020   24.2668 N   0  0  0  0  0  0  0  0  0  0  0  0
   -9.6946  -16.2674   27.2210 O   0  0  0  0  0  0  0  0  0  0  0  0
   -2.4911  -14.1277   23.3618 O   0  5  0  0  0  0  0  0  0  0  0  0
   -0.7043  -14.7939   21.1391 O   0  0  0  0  0  0  0  0  0  0  0  0
   -4.6955  -12.9769   22.7130 O   0  0  0  0  0  0  0  0  0  0  0  0
   -3.0497  -13.8017   20.8979 O   0  0  0  0  0  0  0  0  0  0  0  0
   -1.7667  -14.5770   18.7904 O   0  5  0  0  0  0  0  0  0  0  0  0
   -2.4636  -11.7537   22.3396 O   0  0  0  0  0  0  0  0  0  0  0  0
   -1.0202  -12.4836   20.0743 O   0  0  0  0  0  0  0  0  0  0  0  0
   -8.4571  -14.5083   21.4703 S   0  0  0  0  0  0  0  0  0  0  0  0
   -3.1345  -13.0739   22.3293 P   0  0  2  0  0  0  0  0  0  0  0  0
   -1.6460  -13.9636   20.1319 P   0  0  2  0  0  0  0  0  0  0  0  0
  2 16  2  0  0  0  0
  2  3  1  0  0  0  0
  2 13  1  0  0  0  0
  3  8  2  0  0  0  0
  3  4  1  0  0  0  0
  4 14  1  0  0  0  0
  5  1  1  6  0  0  0
  5 14  1  0  0  0  0
  5 10  1  0  0  0  0
  6  7  1  0  0  0  0
  7 13  1  0  0  0  0
  7 15  2  0  0  0  0
  8 15  1  0  0  0  0
  9 14  1  0  0  0  0
  9 24  1  0  0  0  0
 10 24  1  0  0  0  0
 10 11  1  1  0  0  0
 11 12  1  0  0  0  0
 12 19  1  0  0  0  0
 17 25  1  0  0  0  0
 19 25  1  0  0  0  0
 20 26  1  0  0  0  0
 21 26  1  0  0  0  0
 22 25  2  0  0  0  0
 23 26  2  0  0  0  0
 25 20  1  6  0  0  0
 26 18  1  1  0  0  0
M  CHG  2  17  -1  21  -1
M  END
>  <CHROM.1>
-119.62330697,95.75959550,-59.42474059,120.05217949,-176.50380817,-73.15497982
-171.85179763,58.69703078,-6.39551806,-14.76253685,22.95197064,-2.80904645
-0.45815973,-1.78162816

>  <Name>
ligand

>  <RI>
0

>  <Rbt.Current_Directory>
/home/itssahil/PROJECTS/Mol_Feturizer/New_Systems/rnas/3D2X

>  <Rbt.Executable>
rbdock ($Id: //depot/dev/client3/rdock/2013.1/src/exe/rbdock.cxx#4 $)

>  <Rbt.Library>
libRbt.so (2013.1, Build901 2013/11/27)

>  <Rbt.Parameter_File>
/export/apps/rDock/src/rDock_2013.1_src/data/scripts/dock_solv.prm

>  <Rbt.Receptor>
prm/pocket_docking_4.prm

>  <SCORE>
-21.2119

>  <SCORE.INTER>
-18.8185

>  <SCORE.INTER.CONST>
1

>  <SCORE.INTER.POLAR>
0

>  <SCORE.INTER.ROT>
8

>  <SCORE.INTER.SOLV>
10.285

>  <SCORE.INTER.VDW>
-24.9073

>  <SCORE.INTER.norm>
-0.723788

>  <SCORE.INTRA>
-2.39345

>  <SCORE.INTRA.DIHEDRAL>
-2.57431

>  <SCORE.INTRA.DIHEDRAL.0>
7.88077

>  <SCORE.INTRA.POLAR>
0

>  <SCORE.INTRA.POLAR.0>
0

>  <SCORE.INTRA.REPUL>
0

>  <SCORE.INTRA.REPUL.0>
0

>  <SCORE.INTRA.SOLV>
-1.06886

>  <SCORE.INTRA.SOLV.lig_0>
-63.2542

>  <SCORE.INTRA.VDW>
-0.571861

>  <SCORE.INTRA.VDW.0>
-3.15072

>  <SCORE.INTRA.norm>
-0.0920556

>  <SCORE.RESTR>
0

>  <SCORE.RESTR.CAVITY>
0

>  <SCORE.RESTR.norm>
0

>  <SCORE.SYSTEM>
0

>  <SCORE.SYSTEM.CONST>
0

>  <SCORE.SYSTEM.DIHEDRAL>
0

>  <SCORE.SYSTEM.SOLV>
0

>  <SCORE.SYSTEM.norm>
0

>  <SCORE.heavy>
26

>  <SCORE.norm>
-0.815843

>  <RMSD>
2.652

$$$$
ligand
 OpenBabel11021811473D
libRbt.so/2013.1/901 2013/11/27
 26 27  0  0  0  0  0  0  0  0999 V2000
   -7.2037  -16.3314   22.5009 C   0  0  0  0  0  0  0  0  0  0  0  0
   -9.6060  -16.9344   26.7918 C   0  0  0  0  0  0  0  0  0  0  0  0
   -8.9975  -16.6792   25.5674 C   0  0  0  0  0  0  0  0  0  0  0  0
   -7.5247  -16.2875   25.4256 C   0  0  0  0  0  0  0  0  0  0  0  0
   -7.2270  -15.0413   23.3259 C   0  0  1  0  0  0  0  0  0  0  0  0
  -13.1219  -17.8625   25.6473 C   0  0  0  0  0  0  0  0  0  0  0  0
  -11.6550  -17.4302   25.6260 C   0  0  0  0  0  0  0  0  0  0  0  0
   -9.7675  -16.8110   24.4162 C   0  0  0  0  0  0  0  0  0  0  0  0
   -7.4083  -13.8595   25.2634 C   0  0  0  0  0  0  0  0  0  0  0  0
   -7.1066  -13.7872   22.7392 C   0  0  2  0  0  0  0  0  0  0  0  0
   -6.9443  -13.3768   21.2734 C   0  0  0  0  0  0  0  0  0  0  0  0
   -5.8276  -12.3519   21.0615 C   0  0  0  0  0  0  0  0  0  0  0  0
  -10.9489  -17.3151   26.8308 N   0  0  0  0  0  0  0  0  0  0  0  0
   -7.3797  -15.0452   24.6531 N   0  0  0  0  0  0  0  0  0  0  0  0
  -11.0363  -17.1721   24.4648 N   0  0  0  0  0  0  0  0  0  0  0  0
   -8.9664  -16.8299   27.8386 O   0  0  0  0  0  0  0  0  0  0  0  0
   -6.3877  -14.1434   18.5148 O   0  5  0  0  0  0  0  0  0  0  0  0
   -6.4532  -10.6727   15.4003 O   0  0  0  0  0  0  0  0  0  0  0  0
   -5.7237  -11.9566   19.6901 O   0  0  0  0  0  0  0  0  0  0  0  0
   -5.4126  -12.2343   17.1387 O   0  0  0  0  0  0  0  0  0  0  0  0
   -7.9191  -12.4697   16.5467 O   0  5  0  0  0  0  0  0  0  0  0  0
   -3.8938  -13.5147   18.7729 O   0  0  0  0  0  0  0  0  0  0  0  0
   -7.0785  -10.4408   17.8755 O   0  0  0  0  0  0  0  0  0  0  0  0
   -7.1389  -12.6385   24.0479 S   0  0  0  0  0  0  0  0  0  0  0  0
   -5.2618  -12.9938   18.5481 P   0  0  2  0  0  0  0  0  0  0  0  0
   -6.7936  -11.5249   16.7227 P   0  0  2  0  0  0  0  0  0  0  0  0
  2 16  2  0  0  0  0
  2  3  1  0  0  0  0
  2 13  1  0  0  0  0
  3  8  2  0  0  0  0
  3  4  1  0  0  0  0
  4 14  1  0  0  0  0
  5  1  1  6  0  0  0
  5 14  1  0  0  0  0
  5 10  1  0  0  0  0
  6  7  1  0  0  0  0
  7 13  1  0  0  0  0
  7 15  2  0  0  0  0
  8 15  1  0  0  0  0
  9 14  1  0  0  0  0
  9 24  1  0  0  0  0
 10 24  1  0  0  0  0
 10 11  1  1  0  0  0
 11 12  1  0  0  0  0
 12 19  1  0  0  0  0
 17 25  1  0  0  0  0
 19 25  1  0  0  0  0
 20 26  1  0  0  0  0
 21 26  1  0  0  0  0
 22 25  2  0  0  0  0
 23 26  2  0  0  0  0
 25 20  1  6  0  0  0
 26 18  1  6  0  0  0
M  CHG  2  17  -1  21  -1
M  END
>  <CHROM.1>
-126.43901773,-132.58322163,-178.28277558,-90.72138187,-66.35411767,59.38781905
63.05452687,170.07404113,-7.55524170,-14.10047575,21.69330032,-1.99517017
-0.49029377,-1.26813117

>  <Name>
ligand

>  <RI>
0

>  <Rbt.Current_Directory>
/home/itssahil/PROJECTS/Mol_Feturizer/New_Systems/rnas/3D2X

>  <Rbt.Executable>
rbdock ($Id: //depot/dev/client3/rdock/2013.1/src/exe/rbdock.cxx#4 $)

>  <Rbt.Library>
libRbt.so (2013.1, Build901 2013/11/27)

>  <Rbt.Parameter_File>
/export/apps/rDock/src/rDock_2013.1_src/data/scripts/dock_solv.prm

>  <Rbt.Receptor>
prm/pocket_docking_8.prm

>  <SCORE>
-19.8293

>  <SCORE.INTER>
-19.3832

>  <SCORE.INTER.CONST>
1

>  <SCORE.INTER.POLAR>
0

>  <SCORE.INTER.ROT>
8

>  <SCORE.INTER.SOLV>
15.1158

>  <SCORE.INTER.VDW>
-26.8941

>  <SCORE.INTER.norm>
-0.745508

>  <SCORE.INTRA>
-0.446084

>  <SCORE.INTRA.DIHEDRAL>
-2.44485

>  <SCORE.INTRA.DIHEDRAL.0>
7.88077

>  <SCORE.INTRA.POLAR>
0

>  <SCORE.INTRA.POLAR.0>
0

>  <SCORE.INTRA.REPUL>
0

>  <SCORE.INTRA.REPUL.0>
0

>  <SCORE.INTRA.SOLV>
1.46947

>  <SCORE.INTRA.SOLV.lig_0>
-63.2542

>  <SCORE.INTRA.VDW>
0.0416092

>  <SCORE.INTRA.VDW.0>
-3.15072

>  <SCORE.INTRA.norm>
-0.0171571

>  <SCORE.RESTR>
0

>  <SCORE.RESTR.CAVITY>
0

>  <SCORE.RESTR.norm>
0

>  <SCORE.SYSTEM>
0

>  <SCORE.SYSTEM.CONST>
0

>  <SCORE.SYSTEM.DIHEDRAL>
0

>  <SCORE.SYSTEM.SOLV>
0

>  <SCORE.SYSTEM.norm>
0

>  <SCORE.heavy>
26

>  <SCORE.norm>
-0.762665

>  <RMSD>
2.661

$$$$
ligand
 OpenBabel11021811473D
libRbt.so/2013.1/901 2013/11/27
 26 27  0  0  0  0  0  0  0  0999 V2000
   -6.5133  -17.6220   23.1727 C   0  0  0  0  0  0  0  0  0  0  0  0
  -10.1315  -16.5945   26.3234 C   0  0  0  0  0  0  0  0  0  0  0  0
   -9.7049  -16.4034   25.0134 C   0  0  0  0  0  0  0  0  0  0  0  0
   -8.3291  -15.8395   24.6507 C   0  0  0  0  0  0  0  0  0  0  0  0
   -7.3465  -16.5255   22.5026 C   0  0  1  0  0  0  0  0  0  0  0  0
  -13.5804  -18.1041   25.7243 C   0  0  0  0  0  0  0  0  0  0  0  0
  -12.2029  -17.4872   25.4774 C   0  0  0  0  0  0  0  0  0  0  0  0
  -10.5698  -16.7670   23.9861 C   0  0  0  0  0  0  0  0  0  0  0  0
   -8.8622  -14.8267   22.5001 C   0  0  0  0  0  0  0  0  0  0  0  0
   -7.3078  -16.3026   21.1314 C   0  0  2  0  0  0  0  0  0  0  0  0
   -6.5233  -17.0079   20.0221 C   0  0  0  0  0  0  0  0  0  0  0  0
   -6.1126  -16.0639   18.8897 C   0  0  0  0  0  0  0  0  0  0  0  0
  -11.3926  -17.1423   26.5673 N   0  0  0  0  0  0  0  0  0  0  0  0
   -8.1690  -15.7311   23.1934 N   0  0  0  0  0  0  0  0  0  0  0  0
  -11.7598  -17.2846   24.2282 N   0  0  0  0  0  0  0  0  0  0  0  0
   -9.4024  -16.2870   27.2666 O   0  0  0  0  0  0  0  0  0  0  0  0
   -5.7971  -12.9511   18.0842 O   0  5  0  0  0  0  0  0  0  0  0  0
   -2.2613  -15.1832   20.0370 O   0  0  0  0  0  0  0  0  0  0  0  0
   -5.1429  -15.1052   19.3236 O   0  0  0  0  0  0  0  0  0  0  0  0
   -3.4943  -13.1207   19.1600 O   0  0  0  0  0  0  0  0  0  0  0  0
   -1.1296  -13.6713   18.2691 O   0  5  0  0  0  0  0  0  0  0  0  0
   -4.0215  -14.5380   17.0792 O   0  0  0  0  0  0  0  0  0  0  0  0
   -1.4544  -12.8349   20.6739 O   0  0  0  0  0  0  0  0  0  0  0  0
   -8.3625  -14.9489   20.8339 S   0  0  0  0  0  0  0  0  0  0  0  0
   -4.5770  -13.9716   18.3297 P   0  0  2  0  0  0  0  0  0  0  0  0
   -2.0245  -13.7043   19.4474 P   0  0  2  0  0  0  0  0  0  0  0  0
  2 16  2  0  0  0  0
  2  3  1  0  0  0  0
  2 13  1  0  0  0  0
  3  8  2  0  0  0  0
  3  4  1  0  0  0  0
  4 14  1  0  0  0  0
  5  1  1  6  0  0  0
  5 14  1  0  0  0  0
  5 10  1  0  0  0  0
  6  7  1  0  0  0  0
  7 13  1  0  0  0  0
  7 15  2  0  0  0  0
  8 15  1  0  0  0  0
  9 14  1  0  0  0  0
  9 24  1  0  0  0  0
 10 24  1  0  0  0  0
 10 11  1  1  0  0  0
 11 12  1  0  0  0  0
 12 19  1  0  0  0  0
 17 25  1  0  0  0  0
 19 25  1  0  0  0  0
 20 26  1  0  0  0  0
 21 26  1  0  0  0  0
 22 25  2  0  0  0  0
 23 26  2  0  0  0  0
 25 20  1  1  0  0  0
 26 18  1  1  0  0  0
M  CHG  2  17  -1  21  -1
M  END
>  <CHROM.1>
-179.08713778,-146.66647904,67.62674676,-109.58421358,-178.31546296,-171.65649310
70.15376742,-49.85318754,-6.72200558,-15.37509197,21.56897447,-2.44153483
-0.27153644,-1.43884412

>  <Name>
ligand

>  <RI>
0

>  <Rbt.Current_Directory>
/home/itssahil/PROJECTS/Mol_Feturizer/New_Systems/rnas/3D2X

>  <Rbt.Executable>
rbdock ($Id: //depot/dev/client3/rdock/2013.1/src/exe/rbdock.cxx#4 $)

>  <Rbt.Library>
libRbt.so (2013.1, Build901 2013/11/27)

>  <Rbt.Parameter_File>
/export/apps/rDock/src/rDock_2013.1_src/data/scripts/dock_solv.prm

>  <Rbt.Receptor>
prm/pocket_docking_3.prm

>  <SCORE>
-24.2075

>  <SCORE.INTER>
-21.7741

>  <SCORE.INTER.CONST>
1

>  <SCORE.INTER.POLAR>
0

>  <SCORE.INTER.ROT>
8

>  <SCORE.INTER.SOLV>
8.3555

>  <SCORE.INTER.VDW>
-26.2346

>  <SCORE.INTER.norm>
-0.837467

>  <SCORE.INTRA>
-2.43332

>  <SCORE.INTRA.DIHEDRAL>
-2.01158

>  <SCORE.INTRA.DIHEDRAL.0>
7.88077

>  <SCORE.INTRA.POLAR>
0

>  <SCORE.INTRA.POLAR.0>
0

>  <SCORE.INTRA.REPUL>
0

>  <SCORE.INTRA.REPUL.0>
0

>  <SCORE.INTRA.SOLV>
-2.76883

>  <SCORE.INTRA.SOLV.lig_0>
-63.2542

>  <SCORE.INTRA.VDW>
-0.0431163

>  <SCORE.INTRA.VDW.0>
-3.15072

>  <SCORE.INTRA.norm>
-0.0935893

>  <SCORE.RESTR>
0

>  <SCORE.RESTR.CAVITY>
0

>  <SCORE.RESTR.norm>
0

>  <SCORE.SYSTEM>
0

>  <SCORE.SYSTEM.CONST>
0

>  <SCORE.SYSTEM.DIHEDRAL>
0

>  <SCORE.SYSTEM.SOLV>
0

>  <SCORE.SYSTEM.norm>
0

>  <SCORE.heavy>
26

>  <SCORE.norm>
-0.931057

>  <RMSD>
2.678

$$$$
ligand
 OpenBabel11021811473D
libRbt.so/2013.1/901 2013/11/27
 26 27  0  0  0  0  0  0  0  0999 V2000
   -6.6631  -17.4699   22.8626 C   0  0  0  0  0  0  0  0  0  0  0  0
  -10.3410  -16.9762   23.8988 C   0  0  0  0  0  0  0  0  0  0  0  0
   -9.5813  -16.4576   24.9422 C   0  0  0  0  0  0  0  0  0  0  0  0
   -8.2067  -15.8146   24.7431 C   0  0  0  0  0  0  0  0  0  0  0  0
   -7.3104  -16.1371   22.4753 C   0  0  1  0  0  0  0  0  0  0  0  0
  -13.4515  -18.1065   25.7908 C   0  0  0  0  0  0  0  0  0  0  0  0
  -12.0683  -17.5306   25.4838 C   0  0  0  0  0  0  0  0  0  0  0  0
  -10.1149  -16.5094   26.2260 C   0  0  0  0  0  0  0  0  0  0  0  0
   -8.5498  -14.2726   22.8885 C   0  0  0  0  0  0  0  0  0  0  0  0
   -7.2193  -15.6180   21.1893 C   0  0  2  0  0  0  0  0  0  0  0  0
   -6.5361  -16.1643   19.9330 C   0  0  0  0  0  0  0  0  0  0  0  0
   -5.1413  -15.5754   19.7091 C   0  0  0  0  0  0  0  0  0  0  0  0
  -11.5996  -17.5200   24.1633 N   0  0  0  0  0  0  0  0  0  0  0  0
   -8.0120  -15.4046   23.3448 N   0  0  0  0  0  0  0  0  0  0  0  0
  -11.3062  -17.0255   26.4645 N   0  0  0  0  0  0  0  0  0  0  0  0
   -9.9111  -16.9545   22.7453 O   0  0  0  0  0  0  0  0  0  0  0  0
   -3.0152  -13.5626   20.7988 O   0  5  0  0  0  0  0  0  0  0  0  0
   -2.2763  -14.6259   15.9095 O   0  0  0  0  0  0  0  0  0  0  0  0
   -5.1846  -14.1535   19.5541 O   0  0  0  0  0  0  0  0  0  0  0  0
   -2.9459  -13.9352   18.2797 O   0  0  0  0  0  0  0  0  0  0  0  0
   -4.7111  -13.8957   16.3901 O   0  5  0  0  0  0  0  0  0  0  0  0
   -4.1114  -11.8406   19.2130 O   0  0  0  0  0  0  0  0  0  0  0  0
   -2.8084  -12.1735   16.4326 O   0  0  0  0  0  0  0  0  0  0  0  0
   -8.0515  -14.0886   21.2276 S   0  0  0  0  0  0  0  0  0  0  0  0
   -3.8377  -13.2775   19.4450 P   0  0  2  0  0  0  0  0  0  0  0  0
   -3.2870  -13.6793   16.7300 P   0  0  2  0  0  0  0  0  0  0  0  0
  2 16  2  0  0  0  0
  2  3  1  0  0  0  0
  2 13  1  0  0  0  0
  3  8  2  0  0  0  0
  3  4  1  0  0  0  0
  4 14  1  0  0  0  0
  5  1  1  6  0  0  0
  5 14  1  0  0  0  0
  5 10  1  0  0  0  0
  6  7  1  0  0  0  0
  7 13  1  0  0  0  0
  7 15  2  0  0  0  0
  8 15  1  0  0  0  0
  9 14  1  0  0  0  0
  9 24  1  0  0  0  0
 10 24  1  0  0  0  0
 10 11  1  1  0  0  0
 11 12  1  0  0  0  0
 12 19  1  0  0  0  0
 17 25  1  0  0  0  0
 19 25  1  0  0  0  0
 20 26  1  0  0  0  0
 21 26  1  0  0  0  0
 22 25  2  0  0  0  0
 23 26  2  0  0  0  0
 25 20  1  6  0  0  0
 26 18  1  6  0  0  0
M  CHG  2  17  -1  21  -1
M  END
>  <CHROM.1>
19.46381093,-96.90356789,-60.32178608,-99.72988735,174.14738001,-170.29361157
-58.71277459,-174.04934898,-6.74724067,-15.06163411,21.10152529,2.56763193
0.63562046,1.27396179

>  <Name>
ligand

>  <RI>
0

>  <Rbt.Current_Directory>
/home/itssahil/PROJECTS/Mol_Feturizer/New_Systems/rnas/3D2X

>  <Rbt.Executable>
rbdock ($Id: //depot/dev/client3/rdock/2013.1/src/exe/rbdock.cxx#4 $)

>  <Rbt.Library>
libRbt.so (2013.1, Build901 2013/11/27)

>  <Rbt.Parameter_File>
/export/apps/rDock/src/rDock_2013.1_src/data/scripts/dock_solv.prm

>  <Rbt.Receptor>
prm/pocket_docking_4.prm

>  <SCORE>
-20.154

>  <SCORE.INTER>
-18.3774

>  <SCORE.INTER.CONST>
1

>  <SCORE.INTER.POLAR>
0

>  <SCORE.INTER.ROT>
8

>  <SCORE.INTER.SOLV>
8.65159

>  <SCORE.INTER.VDW>
-24.0688

>  <SCORE.INTER.norm>
-0.706821

>  <SCORE.INTRA>
-1.78008

>  <SCORE.INTRA.DIHEDRAL>
-2.23945

>  <SCORE.INTRA.DIHEDRAL.0>
7.88077

>  <SCORE.INTRA.POLAR>
0

>  <SCORE.INTRA.POLAR.0>
0

>  <SCORE.INTRA.REPUL>
0

>  <SCORE.INTRA.REPUL.0>
0

>  <SCORE.INTRA.SOLV>
0.356117

>  <SCORE.INTRA.SOLV.lig_0>
-63.2542

>  <SCORE.INTRA.VDW>
-0.838414

>  <SCORE.INTRA.VDW.0>
-3.15072

>  <SCORE.INTRA.norm>
-0.0684647

>  <SCORE.RESTR>
0.00343795

>  <SCORE.RESTR.CAVITY>
0.00343795

>  <SCORE.RESTR.norm>
0.000132229

>  <SCORE.SYSTEM>
0

>  <SCORE.SYSTEM.CONST>
0

>  <SCORE.SYSTEM.DIHEDRAL>
0

>  <SCORE.SYSTEM.SOLV>
0

>  <SCORE.SYSTEM.norm>
0

>  <SCORE.heavy>
26

>  <SCORE.norm>
-0.775154

>  <RMSD>
2.682

$$$$
ligand
 OpenBabel11021811473D
libRbt.so/2013.1/901 2013/11/27
 26 27  0  0  0  0  0  0  0  0999 V2000
   -6.8195  -17.0547   22.3045 C   0  0  0  0  0  0  0  0  0  0  0  0
  -10.2234  -17.3266   24.0345 C   0  0  0  0  0  0  0  0  0  0  0  0
   -9.4599  -16.7953   25.0686 C   0  0  0  0  0  0  0  0  0  0  0  0
   -8.0176  -16.3157   24.8885 C   0  0  0  0  0  0  0  0  0  0  0  0
   -7.3707  -15.6584   22.6082 C   0  0  1  0  0  0  0  0  0  0  0  0
  -13.5163  -17.9594   25.8481 C   0  0  0  0  0  0  0  0  0  0  0  0
  -12.0678  -17.5569   25.5669 C   0  0  0  0  0  0  0  0  0  0  0  0
  -10.0520  -16.6761   26.3219 C   0  0  0  0  0  0  0  0  0  0  0  0
   -8.3838  -14.1062   23.9300 C   0  0  0  0  0  0  0  0  0  0  0  0
   -7.3507  -14.6359   21.6673 C   0  0  2  0  0  0  0  0  0  0  0  0
   -6.8421  -14.6107   20.2237 C   0  0  0  0  0  0  0  0  0  0  0  0
   -7.0152  -13.2453   19.5544 C   0  0  0  0  0  0  0  0  0  0  0  0
  -11.5429  -17.7138   24.2772 N   0  0  0  0  0  0  0  0  0  0  0  0
   -7.9157  -15.3470   23.7875 N   0  0  0  0  0  0  0  0  0  0  0  0
  -11.3006  -17.0449   26.5400 N   0  0  0  0  0  0  0  0  0  0  0  0
   -9.7433  -17.4534   22.9078 O   0  0  0  0  0  0  0  0  0  0  0  0
   -5.1885  -15.2910   17.5471 O   0  5  0  0  0  0  0  0  0  0  0  0
   -4.6646  -11.4801   14.2685 O   0  0  0  0  0  0  0  0  0  0  0  0
   -6.6768  -13.2890   18.1647 O   0  0  0  0  0  0  0  0  0  0  0  0
   -5.0510  -13.1595   16.1589 O   0  0  0  0  0  0  0  0  0  0  0  0
   -6.3470  -10.9214   16.1526 O   0  5  0  0  0  0  0  0  0  0  0  0
   -4.1389  -13.1589   18.5640 O   0  0  0  0  0  0  0  0  0  0  0  0
   -3.8265  -10.9669   16.6360 O   0  0  0  0  0  0  0  0  0  0  0  0
   -8.0270  -13.2399   22.4593 S   0  0  0  0  0  0  0  0  0  0  0  0
   -5.1963  -13.6863   17.6712 P   0  0  2  0  0  0  0  0  0  0  0  0
   -5.0671  -11.5877   15.8232 P   0  0  2  0  0  0  0  0  0  0  0  0
  2 16  2  0  0  0  0
  2  3  1  0  0  0  0
  2 13  1  0  0  0  0
  3  8  2  0  0  0  0
  3  4  1  0  0  0  0
  4 14  1  0  0  0  0
  5  1  1  6  0  0  0
  5 14  1  0  0  0  0
  5 10  1  0  0  0  0
  6  7  1  0  0  0  0
  7 13  1  0  0  0  0
  7 15  2  0  0  0  0
  8 15  1  0  0  0  0
  9 14  1  0  0  0  0
  9 24  1  0  0  0  0
 10 24  1  0  0  0  0
 10 11  1  1  0  0  0
 11 12  1  0  0  0  0
 12 19  1  0  0  0  0
 17 25  1  0  0  0  0
 19 25  1  0  0  0  0
 20 26  1  0  0  0  0
 21 26  1  0  0  0  0
 22 25  2  0  0  0  0
 23 26  2  0  0  0  0
 25 20  1  6  0  0  0
 26 18  1  6  0  0  0
M  CHG  2  17  -1  21  -1
M  END
>  <CHROM.1>
53.39451045,-179.62437432,-173.28369213,-106.39740893,-61.00660837,177.84329626
87.43222234,171.21102024,-7.44419532,-14.51731102,20.73056769,3.04826130
1.05569636,0.60734739

>  <Name>
ligand

>  <RI>
0

>  <Rbt.Current_Directory>
/home/itssahil/PROJECTS/Mol_Feturizer/New_Systems/rnas/3D2X

>  <Rbt.Executable>
rbdock ($Id: //depot/dev/client3/rdock/2013.1/src/exe/rbdock.cxx#4 $)

>  <Rbt.Library>
libRbt.so (2013.1, Build901 2013/11/27)

>  <Rbt.Parameter_File>
/export/apps/rDock/src/rDock_2013.1_src/data/scripts/dock_solv.prm

>  <Rbt.Receptor>
prm/pocket_docking_4.prm

>  <SCORE>
-21.8312

>  <SCORE.INTER>
-21.6924

>  <SCORE.INTER.CONST>
1

>  <SCORE.INTER.POLAR>
0

>  <SCORE.INTER.ROT>
8

>  <SCORE.INTER.SOLV>
12.7118

>  <SCORE.INTER.VDW>
-27.6322

>  <SCORE.INTER.norm>
-0.834322

>  <SCORE.INTRA>
-0.138798

>  <SCORE.INTRA.DIHEDRAL>
-2.29574

>  <SCORE.INTRA.DIHEDRAL.0>
7.88077

>  <SCORE.INTRA.POLAR>
0

>  <SCORE.INTRA.POLAR.0>
0

>  <SCORE.INTRA.REPUL>
0

>  <SCORE.INTRA.REPUL.0>
0

>  <SCORE.INTRA.SOLV>
1.27912

>  <SCORE.INTRA.SOLV.lig_0>
-63.2542

>  <SCORE.INTRA.VDW>
0.369509

>  <SCORE.INTRA.VDW.0>
-3.15072

>  <SCORE.INTRA.norm>
-0.00533838

>  <SCORE.RESTR>
0

>  <SCORE.RESTR.CAVITY>
0

>  <SCORE.RESTR.norm>
0

>  <SCORE.SYSTEM>
0

>  <SCORE.SYSTEM.CONST>
0

>  <SCORE.SYSTEM.DIHEDRAL>
0

>  <SCORE.SYSTEM.SOLV>
0

>  <SCORE.SYSTEM.norm>
0

>  <SCORE.heavy>
26

>  <SCORE.norm>
-0.83966

>  <RMSD>
2.683

$$$$
ligand
 OpenBabel11021811473D
libRbt.so/2013.1/901 2013/11/27
 26 27  0  0  0  0  0  0  0  0999 V2000
   -8.2661  -13.6708   23.0634 C   0  0  0  0  0  0  0  0  0  0  0  0
   -9.9103  -16.6972   26.3472 C   0  0  0  0  0  0  0  0  0  0  0  0
   -9.3770  -16.5184   25.0751 C   0  0  0  0  0  0  0  0  0  0  0  0
   -7.9559  -16.0089   24.8229 C   0  0  0  0  0  0  0  0  0  0  0  0
   -7.7536  -15.0292   22.5758 C   0  0  1  0  0  0  0  0  0  0  0  0
  -13.3603  -18.0643   25.4750 C   0  0  0  0  0  0  0  0  0  0  0  0
  -11.9444  -17.5024   25.3387 C   0  0  0  0  0  0  0  0  0  0  0  0
  -10.1741  -16.8430   23.9820 C   0  0  0  0  0  0  0  0  0  0  0  0
   -7.1378  -17.2021   22.8628 C   0  0  0  0  0  0  0  0  0  0  0  0
   -7.3863  -15.2486   21.2535 C   0  0  2  0  0  0  0  0  0  0  0  0
   -7.3782  -14.3085   20.0454 C   0  0  0  0  0  0  0  0  0  0  0  0
   -6.3820  -13.1561   20.1934 C   0  0  0  0  0  0  0  0  0  0  0  0
  -11.2072  -17.1946   26.4899 N   0  0  0  0  0  0  0  0  0  0  0  0
   -7.6155  -16.0759   23.3943 N   0  0  0  0  0  0  0  0  0  0  0  0
  -11.3988  -17.3131   24.1286 N   0  0  0  0  0  0  0  0  0  0  0  0
   -9.2442  -16.4229   27.3456 O   0  0  0  0  0  0  0  0  0  0  0  0
   -7.4426  -10.4851   18.8713 O   0  5  0  0  0  0  0  0  0  0  0  0
   -6.3645  -13.4673   15.5402 O   0  0  0  0  0  0  0  0  0  0  0  0
   -6.0049  -12.6145   18.9236 O   0  0  0  0  0  0  0  0  0  0  0  0
   -6.2272  -11.2215   16.7572 O   0  0  0  0  0  0  0  0  0  0  0  0
   -4.9220  -11.5616   14.5505 O   0  5  0  0  0  0  0  0  0  0  0  0
   -8.2188  -12.6058   17.6138 O   0  0  0  0  0  0  0  0  0  0  0  0
   -4.1884  -12.7623   16.6972 O   0  0  0  0  0  0  0  0  0  0  0  0
   -6.9201  -16.9237   21.1552 S   0  0  0  0  0  0  0  0  0  0  0  0
   -7.0496  -11.7908   18.0163 P   0  0  2  0  0  0  0  0  0  0  0  0
   -5.3975  -12.2061   15.7951 P   0  0  2  0  0  0  0  0  0  0  0  0
  2 16  2  0  0  0  0
  2  3  1  0  0  0  0
  2 13  1  0  0  0  0
  3  8  2  0  0  0  0
  3  4  1  0  0  0  0
  4 14  1  0  0  0  0
  5  1  1  1  0  0  0
  5 14  1  0  0  0  0
  5 10  1  0  0  0  0
  6  7  1  0  0  0  0
  7 13  1  0  0  0  0
  7 15  2  0  0  0  0
  8 15  1  0  0  0  0
  9 14  1  0  0  0  0
  9 24  1  0  0  0  0
 10 24  1  0  0  0  0
 10 11  1  6  0  0  0
 11 12  1  0  0  0  0
 12 19  1  0  0  0  0
 17 25  1  0  0  0  0
 19 25  1  0  0  0  0
 20 26  1  0  0  0  0
 21 26  1  0  0  0  0
 22 25  2  0  0  0  0
 23 26  2  0  0  0  0
 25 20  1  6  0  0  0
 26 18  1  6  0  0  0
M  CHG  2  17  -1  21  -1
M  END
>  <CHROM.1>
173.12225790,64.99568595,157.39457471,95.31409227,68.88289202,167.86461707
63.02555459,43.70748775,-7.77423003,-14.47051270,20.83595270,2.03889737,-0.48284298
2.31478796

>  <Name>
ligand

>  <RI>
0

>  <Rbt.Current_Directory>
/home/itssahil/PROJECTS/Mol_Feturizer/New_Systems/rnas/3D2X

>  <Rbt.Executable>
rbdock ($Id: //depot/dev/client3/rdock/2013.1/src/exe/rbdock.cxx#4 $)

>  <Rbt.Library>
libRbt.so (2013.1, Build901 2013/11/27)

>  <Rbt.Parameter_File>
/export/apps/rDock/src/rDock_2013.1_src/data/scripts/dock_solv.prm

>  <Rbt.Receptor>
prm/pocket_docking_5.prm

>  <SCORE>
-26.0317

>  <SCORE.INTER>
-24.9539

>  <SCORE.INTER.CONST>
1

>  <SCORE.INTER.POLAR>
0

>  <SCORE.INTER.ROT>
8

>  <SCORE.INTER.SOLV>
18.9093

>  <SCORE.INTER.VDW>
-31.8724

>  <SCORE.INTER.norm>
-0.959765

>  <SCORE.INTRA>
-1.07778

>  <SCORE.INTRA.DIHEDRAL>
-0.776567

>  <SCORE.INTRA.DIHEDRAL.0>
7.88077

>  <SCORE.INTRA.POLAR>
0

>  <SCORE.INTRA.POLAR.0>
0

>  <SCORE.INTRA.REPUL>
0

>  <SCORE.INTRA.REPUL.0>
0

>  <SCORE.INTRA.SOLV>
-1.03052

>  <SCORE.INTRA.SOLV.lig_0>
-63.2542

>  <SCORE.INTRA.VDW>
-0.174237

>  <SCORE.INTRA.VDW.0>
-3.15072

>  <SCORE.INTRA.norm>
-0.0414531

>  <SCORE.RESTR>
0

>  <SCORE.RESTR.CAVITY>
0

>  <SCORE.RESTR.norm>
0

>  <SCORE.SYSTEM>
0

>  <SCORE.SYSTEM.CONST>
0

>  <SCORE.SYSTEM.DIHEDRAL>
0

>  <SCORE.SYSTEM.SOLV>
0

>  <SCORE.SYSTEM.norm>
0

>  <SCORE.heavy>
26

>  <SCORE.norm>
-1.00122

>  <RMSD>
2.686

$$$$
ligand
 OpenBabel11021811473D
libRbt.so/2013.1/901 2013/11/27
 26 27  0  0  0  0  0  0  0  0999 V2000
   -6.6926  -17.5097   23.2152 C   0  0  0  0  0  0  0  0  0  0  0  0
  -10.4736  -17.5024   24.2789 C   0  0  0  0  0  0  0  0  0  0  0  0
   -9.8538  -16.8330   25.3288 C   0  0  0  0  0  0  0  0  0  0  0  0
   -8.4279  -16.2821   25.2500 C   0  0  0  0  0  0  0  0  0  0  0  0
   -7.3960  -16.1633   23.0204 C   0  0  1  0  0  0  0  0  0  0  0  0
  -13.9026  -18.1741   25.8030 C   0  0  0  0  0  0  0  0  0  0  0  0
  -12.4558  -17.7086   25.6322 C   0  0  0  0  0  0  0  0  0  0  0  0
  -10.5814  -16.6384   26.4985 C   0  0  0  0  0  0  0  0  0  0  0  0
   -8.7632  -14.4614   23.6664 C   0  0  0  0  0  0  0  0  0  0  0  0
   -7.2681  -15.4260   21.8493 C   0  0  2  0  0  0  0  0  0  0  0  0
   -6.4887  -15.7127   20.5633 C   0  0  0  0  0  0  0  0  0  0  0  0
   -5.5708  -14.5589   20.1529 C   0  0  0  0  0  0  0  0  0  0  0  0
  -11.7890  -17.9481   24.4233 N   0  0  0  0  0  0  0  0  0  0  0  0
   -8.1844  -15.6275   23.9564 N   0  0  0  0  0  0  0  0  0  0  0  0
  -11.8248  -17.0636   26.6239 N   0  0  0  0  0  0  0  0  0  0  0  0
   -9.8703  -17.7000   23.2240 O   0  0  0  0  0  0  0  0  0  0  0  0
   -3.4264  -14.3736   16.8647 O   0  5  0  0  0  0  0  0  0  0  0  0
   -7.3221  -12.6906   18.7201 O   0  0  0  0  0  0  0  0  0  0  0  0
   -4.9979  -14.7715   18.8589 O   0  0  0  0  0  0  0  0  0  0  0  0
   -5.0466  -12.5356   17.5620 O   0  0  0  0  0  0  0  0  0  0  0  0
   -5.4381  -11.2736   19.7852 O   0  5  0  0  0  0  0  0  0  0  0  0
   -3.0527  -13.1034   19.0848 O   0  0  0  0  0  0  0  0  0  0  0  0
   -6.5835  -10.4939   17.6246 O   0  0  0  0  0  0  0  0  0  0  0  0
   -8.1899  -13.9689   22.0950 S   0  0  0  0  0  0  0  0  0  0  0  0
   -4.0652  -13.6610   18.1588 P   0  0  2  0  0  0  0  0  0  0  0  0
   -6.0527  -11.7224   18.5159 P   0  0  2  0  0  0  0  0  0  0  0  0
  2 16  2  0  0  0  0
  2  3  1  0  0  0  0
  2 13  1  0  0  0  0
  3  8  2  0  0  0  0
  3  4  1  0  0  0  0
  4 14  1  0  0  0  0
  5  1  1  6  0  0  0
  5 14  1  0  0  0  0
  5 10  1  0  0  0  0
  6  7  1  0  0  0  0
  7 13  1  0  0  0  0
  7 15  2  0  0  0  0
  8 15  1  0  0  0  0
  9 14  1  0  0  0  0
  9 24  1  0  0  0  0
 10 24  1  0  0  0  0
 10 11  1  1  0  0  0
 11 12  1  0  0  0  0
 12 19  1  0  0  0  0
 17 25  1  0  0  0  0
 19 25  1  0  0  0  0
 20 26  1  0  0  0  0
 21 26  1  0  0  0  0
 22 25  2  0  0  0  0
 23 26  2  0  0  0  0
 25 20  1  6  0  0  0
 26 18  1  1  0  0  0
M  CHG  2  17  -1  21  -1
M  END
>  <CHROM.1>
42.59160242,-127.75300114,-171.90450861,-108.39286828,176.23624786,171.12643018
170.39724624,-81.41897365,-7.50117314,-14.80526437,21.48674179,-2.32093685
0.51339272,-0.56984612

>  <Name>
ligand

>  <RI>
0

>  <Rbt.Current_Directory>
/home/itssahil/PROJECTS/Mol_Feturizer/New_Systems/rnas/3D2X

>  <Rbt.Executable>
rbdock ($Id: //depot/dev/client3/rdock/2013.1/src/exe/rbdock.cxx#4 $)

>  <Rbt.Library>
libRbt.so (2013.1, Build901 2013/11/27)

>  <Rbt.Parameter_File>
/export/apps/rDock/src/rDock_2013.1_src/data/scripts/dock_solv.prm

>  <Rbt.Receptor>
prm/pocket_docking_3.prm

>  <SCORE>
-21.2826

>  <SCORE.INTER>
-18.9628

>  <SCORE.INTER.CONST>
1

>  <SCORE.INTER.POLAR>
0

>  <SCORE.INTER.ROT>
8

>  <SCORE.INTER.SOLV>
7.33297

>  <SCORE.INTER.VDW>
-24.0195

>  <SCORE.INTER.norm>
-0.729339

>  <SCORE.INTRA>
-2.3208

>  <SCORE.INTRA.DIHEDRAL>
-1.5443

>  <SCORE.INTRA.DIHEDRAL.0>
7.88077

>  <SCORE.INTRA.POLAR>
0

>  <SCORE.INTRA.POLAR.0>
0

>  <SCORE.INTRA.REPUL>
0

>  <SCORE.INTRA.REPUL.0>
0

>  <SCORE.INTRA.SOLV>
-1.0046

>  <SCORE.INTRA.SOLV.lig_0>
-63.2542

>  <SCORE.INTRA.VDW>
-1.04635

>  <SCORE.INTRA.VDW.0>
-3.15072

>  <SCORE.INTRA.norm>
-0.0892616

>  <SCORE.RESTR>
0.00105555

>  <SCORE.RESTR.CAVITY>
0.00105555

>  <SCORE.RESTR.norm>
4.0598e-05

>  <SCORE.SYSTEM>
0

>  <SCORE.SYSTEM.CONST>
0

>  <SCORE.SYSTEM.DIHEDRAL>
0

>  <SCORE.SYSTEM.SOLV>
0

>  <SCORE.SYSTEM.norm>
0

>  <SCORE.heavy>
26

>  <SCORE.norm>
-0.81856

>  <RMSD>
2.688

$$$$
ligand
 OpenBabel11021811473D
libRbt.so/2013.1/901 2013/11/27
 26 27  0  0  0  0  0  0  0  0999 V2000
   -6.6242  -17.3651   22.6237 C   0  0  0  0  0  0  0  0  0  0  0  0
  -10.4275  -16.6261   25.8662 C   0  0  0  0  0  0  0  0  0  0  0  0
  -10.1803  -16.5338   24.5006 C   0  0  0  0  0  0  0  0  0  0  0  0
   -8.8770  -15.9827   23.9172 C   0  0  0  0  0  0  0  0  0  0  0  0
   -7.8139  -16.7886   21.8506 C   0  0  1  0  0  0  0  0  0  0  0  0
  -13.8894  -18.2222   25.8454 C   0  0  0  0  0  0  0  0  0  0  0  0
  -12.5706  -17.6092   25.3721 C   0  0  0  0  0  0  0  0  0  0  0  0
  -11.1633  -16.9884   23.6274 C   0  0  0  0  0  0  0  0  0  0  0  0
   -9.8220  -15.7286   21.6862 C   0  0  0  0  0  0  0  0  0  0  0  0
   -7.9154  -16.8901   20.4683 C   0  0  2  0  0  0  0  0  0  0  0  0
   -6.9854  -17.5373   19.4389 C   0  0  0  0  0  0  0  0  0  0  0  0
   -5.7419  -16.6946   19.1460 C   0  0  0  0  0  0  0  0  0  0  0  0
  -11.6330  -17.1689   26.3158 N   0  0  0  0  0  0  0  0  0  0  0  0
   -8.8290  -16.1695   22.4598 N   0  0  0  0  0  0  0  0  0  0  0  0
  -12.2993  -17.5004   24.0636 N   0  0  0  0  0  0  0  0  0  0  0  0
   -9.5887  -16.2357   26.6785 O   0  0  0  0  0  0  0  0  0  0  0  0
   -5.7417  -13.0694   17.6113 O   0  5  0  0  0  0  0  0  0  0  0  0
   -2.0354  -13.0438   18.7451 O   0  0  0  0  0  0  0  0  0  0  0  0
   -6.0828  -15.4243   18.5822 O   0  0  0  0  0  0  0  0  0  0  0  0
   -4.3219  -13.8210   19.5883 O   0  0  0  0  0  0  0  0  0  0  0  0
   -3.9036  -11.3043   19.1645 O   0  5  0  0  0  0  0  0  0  0  0  0
   -3.9316  -14.8846   17.2790 O   0  0  0  0  0  0  0  0  0  0  0  0
   -2.7772  -12.4987   21.1375 O   0  0  0  0  0  0  0  0  0  0  0  0
   -9.3852  -16.0640   20.0317 S   0  0  0  0  0  0  0  0  0  0  0  0
   -4.9528  -14.3411   18.2037 P   0  0  2  0  0  0  0  0  0  0  0  0
   -3.3034  -12.5780   19.6202 P   0  0  2  0  0  0  0  0  0  0  0  0
  2 16  2  0  0  0  0
  2  3  1  0  0  0  0
  2 13  1  0  0  0  0
  3  8  2  0  0  0  0
  3  4  1  0  0  0  0
  4 14  1  0  0  0  0
  5  1  1  1  0  0  0
  5 14  1  0  0  0  0
  5 10  1  0  0  0  0
  6  7  1  0  0  0  0
  7 13  1  0  0  0  0
  7 15  2  0  0  0  0
  8 15  1  0  0  0  0
  9 14  1  0  0  0  0
  9 24  1  0  0  0  0
 10 24  1  0  0  0  0
 10 11  1  6  0  0  0
 11 12  1  0  0  0  0
 12 19  1  0  0  0  0
 17 25  1  0  0  0  0
 19 25  1  0  0  0  0
 20 26  1  0  0  0  0
 21 26  1  0  0  0  0
 22 25  2  0  0  0  0
 23 26  2  0  0  0  0
 25 20  1  1  0  0  0
 26 18  1  6  0  0  0
M  CHG  2  17  -1  21  -1
M  END
>  <CHROM.1>
172.56052949,-76.32513881,-62.16098795,-125.82652114,179.08962611,-59.22326997
-179.85716666,-61.89482969,-7.33023497,-15.40032349,21.27821857,-2.64349240
-0.60665566,-1.82963900

>  <Name>
ligand

>  <RI>
0

>  <Rbt.Current_Directory>
/home/itssahil/PROJECTS/Mol_Feturizer/New_Systems/rnas/3D2X

>  <Rbt.Executable>
rbdock ($Id: //depot/dev/client3/rdock/2013.1/src/exe/rbdock.cxx#4 $)

>  <Rbt.Library>
libRbt.so (2013.1, Build901 2013/11/27)

>  <Rbt.Parameter_File>
/export/apps/rDock/src/rDock_2013.1_src/data/scripts/dock_solv.prm

>  <Rbt.Receptor>
prm/pocket_docking_4.prm

>  <SCORE>
-24.0423

>  <SCORE.INTER>
-22.4375

>  <SCORE.INTER.CONST>
1

>  <SCORE.INTER.POLAR>
0

>  <SCORE.INTER.ROT>
8

>  <SCORE.INTER.SOLV>
8.97115

>  <SCORE.INTER.VDW>
-26.8821

>  <SCORE.INTER.norm>
-0.862981

>  <SCORE.INTRA>
-1.60484

>  <SCORE.INTRA.DIHEDRAL>
-3.08488

>  <SCORE.INTRA.DIHEDRAL.0>
7.88077

>  <SCORE.INTRA.POLAR>
0

>  <SCORE.INTRA.POLAR.0>
0

>  <SCORE.INTRA.REPUL>
0

>  <SCORE.INTRA.REPUL.0>
0

>  <SCORE.INTRA.SOLV>
-1.66947

>  <SCORE.INTRA.SOLV.lig_0>
-63.2542

>  <SCORE.INTRA.VDW>
0.77233

>  <SCORE.INTRA.VDW.0>
-3.15072

>  <SCORE.INTRA.norm>
-0.0617246

>  <SCORE.RESTR>
0

>  <SCORE.RESTR.CAVITY>
0

>  <SCORE.RESTR.norm>
0

>  <SCORE.SYSTEM>
0

>  <SCORE.SYSTEM.CONST>
0

>  <SCORE.SYSTEM.DIHEDRAL>
0

>  <SCORE.SYSTEM.SOLV>
0

>  <SCORE.SYSTEM.norm>
0

>  <SCORE.heavy>
26

>  <SCORE.norm>
-0.924705

>  <RMSD>
2.694

$$$$
ligand
 OpenBabel11021811473D
libRbt.so/2013.1/901 2013/11/27
 26 27  0  0  0  0  0  0  0  0999 V2000
   -7.2484  -13.7088   24.0802 C   0  0  0  0  0  0  0  0  0  0  0  0
   -9.9955  -16.6990   26.2060 C   0  0  0  0  0  0  0  0  0  0  0  0
   -9.4603  -16.8531   24.9315 C   0  0  0  0  0  0  0  0  0  0  0  0
   -8.0116  -16.5064   24.5800 C   0  0  0  0  0  0  0  0  0  0  0  0
   -7.5727  -14.7053   22.9633 C   0  0  1  0  0  0  0  0  0  0  0  0
  -13.5308  -18.0105   25.6451 C   0  0  0  0  0  0  0  0  0  0  0  0
  -12.0831  -17.5857   25.3942 C   0  0  0  0  0  0  0  0  0  0  0  0
  -10.2835  -17.3707   23.9365 C   0  0  0  0  0  0  0  0  0  0  0  0
   -8.1494  -16.7562   22.1606 C   0  0  0  0  0  0  0  0  0  0  0  0
   -7.5177  -14.3527   21.6202 C   0  0  2  0  0  0  0  0  0  0  0  0
   -7.1522  -13.0285   20.9447 C   0  0  0  0  0  0  0  0  0  0  0  0
   -7.0318  -13.1484   19.4237 C   0  0  0  0  0  0  0  0  0  0  0  0
  -11.3203  -17.0672   26.4491 N   0  0  0  0  0  0  0  0  0  0  0  0
   -7.9117  -15.9730   23.2138 N   0  0  0  0  0  0  0  0  0  0  0  0
  -11.5346  -17.7160   24.1777 N   0  0  0  0  0  0  0  0  0  0  0  0
   -9.3069  -16.2438   27.1195 O   0  0  0  0  0  0  0  0  0  0  0  0
   -6.1571  -10.3205   17.0515 O   0  5  0  0  0  0  0  0  0  0  0  0
   -4.9950  -14.1871   15.2291 O   0  0  0  0  0  0  0  0  0  0  0  0
   -6.1890  -12.1298   18.8763 O   0  0  0  0  0  0  0  0  0  0  0  0
   -4.5486  -12.2888   16.8846 O   0  0  0  0  0  0  0  0  0  0  0  0
   -2.6812  -14.0029   16.3714 O   0  5  0  0  0  0  0  0  0  0  0  0
   -7.0645  -12.6822   16.5214 O   0  0  0  0  0  0  0  0  0  0  0  0
   -4.7468  -14.6931   17.7298 O   0  0  0  0  0  0  0  0  0  0  0  0
   -8.0039  -15.7689   20.7306 S   0  0  0  0  0  0  0  0  0  0  0  0
   -6.0588  -11.9098   17.2864 P   0  0  2  0  0  0  0  0  0  0  0  0
   -4.1384  -13.8034   16.5367 P   0  0  2  0  0  0  0  0  0  0  0  0
  2 16  2  0  0  0  0
  2  3  1  0  0  0  0
  2 13  1  0  0  0  0
  3  8  2  0  0  0  0
  3  4  1  0  0  0  0
  4 14  1  0  0  0  0
  5  1  1  6  0  0  0
  5 14  1  0  0  0  0
  5 10  1  0  0  0  0
  6  7  1  0  0  0  0
  7 13  1  0  0  0  0
  7 15  2  0  0  0  0
  8 15  1  0  0  0  0
  9 14  1  0  0  0  0
  9 24  1  0  0  0  0
 10 24  1  0  0  0  0
 10 11  1  1  0  0  0
 11 12  1  0  0  0  0
 12 19  1  0  0  0  0
 17 25  1  0  0  0  0
 19 25  1  0  0  0  0
 20 26  1  0  0  0  0
 21 26  1  0  0  0  0
 22 25  2  0  0  0  0
 23 26  2  0  0  0  0
 25 20  1  6  0  0  0
 26 18  1  6  0  0  0
M  CHG  2  17  -1  21  -1
M  END
>  <CHROM.1>
-145.15978851,171.75252310,-155.89514415,112.80601565,-171.49703498,-161.02542591
134.97297090,62.83761362,-7.47076566,-14.67304997,20.81136682,-3.13187108
-1.04296933,-2.68191870

>  <Name>
ligand

>  <RI>
0

>  <Rbt.Current_Directory>
/home/itssahil/PROJECTS/Mol_Feturizer/New_Systems/rnas/3D2X

>  <Rbt.Executable>
rbdock ($Id: //depot/dev/client3/rdock/2013.1/src/exe/rbdock.cxx#4 $)

>  <Rbt.Library>
libRbt.so (2013.1, Build901 2013/11/27)

>  <Rbt.Parameter_File>
/export/apps/rDock/src/rDock_2013.1_src/data/scripts/dock_solv.prm

>  <Rbt.Receptor>
prm/pocket_docking_4.prm

>  <SCORE>
-18.4253

>  <SCORE.INTER>
-19.8208

>  <SCORE.INTER.CONST>
1

>  <SCORE.INTER.POLAR>
0

>  <SCORE.INTER.ROT>
8

>  <SCORE.INTER.SOLV>
11.3812

>  <SCORE.INTER.VDW>
-25.9409

>  <SCORE.INTER.norm>
-0.762339

>  <SCORE.INTRA>
1.39328

>  <SCORE.INTRA.DIHEDRAL>
1.99152

>  <SCORE.INTRA.DIHEDRAL.0>
7.88077

>  <SCORE.INTRA.POLAR>
0

>  <SCORE.INTRA.POLAR.0>
0

>  <SCORE.INTRA.REPUL>
0

>  <SCORE.INTRA.REPUL.0>
0

>  <SCORE.INTRA.SOLV>
-0.741257

>  <SCORE.INTRA.SOLV.lig_0>
-63.2542

>  <SCORE.INTRA.VDW>
0.768151

>  <SCORE.INTRA.VDW.0>
-3.15072

>  <SCORE.INTRA.norm>
0.0535877

>  <SCORE.RESTR>
0.0022211

>  <SCORE.RESTR.CAVITY>
0.0022211

>  <SCORE.RESTR.norm>
8.5427e-05

>  <SCORE.SYSTEM>
0

>  <SCORE.SYSTEM.CONST>
0

>  <SCORE.SYSTEM.DIHEDRAL>
0

>  <SCORE.SYSTEM.SOLV>
0

>  <SCORE.SYSTEM.norm>
0

>  <SCORE.heavy>
26

>  <SCORE.norm>
-0.708666

>  <RMSD>
2.707

$$$$
ligand
 OpenBabel11021811473D
libRbt.so/2013.1/901 2013/11/27
 26 27  0  0  0  0  0  0  0  0999 V2000
   -6.1431  -14.4380   25.2734 C   0  0  0  0  0  0  0  0  0  0  0  0
  -10.1949  -16.7482   26.4868 C   0  0  0  0  0  0  0  0  0  0  0  0
   -9.5776  -16.9350   25.2544 C   0  0  0  0  0  0  0  0  0  0  0  0
   -8.1036  -16.6148   24.9949 C   0  0  0  0  0  0  0  0  0  0  0  0
   -7.0823  -14.5765   24.0715 C   0  0  1  0  0  0  0  0  0  0  0  0
  -13.7033  -18.0233   25.7137 C   0  0  0  0  0  0  0  0  0  0  0  0
  -12.2360  -17.6230   25.5531 C   0  0  0  0  0  0  0  0  0  0  0  0
  -10.3396  -17.4614   24.2162 C   0  0  0  0  0  0  0  0  0  0  0  0
   -8.7112  -15.6084   22.8611 C   0  0  0  0  0  0  0  0  0  0  0  0
   -7.0642  -13.6765   23.0127 C   0  0  2  0  0  0  0  0  0  0  0  0
   -6.1991  -12.4385   22.7629 C   0  0  0  0  0  0  0  0  0  0  0  0
   -5.7001  -12.3414   21.3193 C   0  0  0  0  0  0  0  0  0  0  0  0
  -11.5383  -17.0938   26.6469 N   0  0  0  0  0  0  0  0  0  0  0  0
   -7.9612  -15.5768   23.9637 N   0  0  0  0  0  0  0  0  0  0  0  0
  -11.6090  -17.7850   24.3790 N   0  0  0  0  0  0  0  0  0  0  0  0
   -9.5625  -16.2841   27.4357 O   0  0  0  0  0  0  0  0  0  0  0  0
   -7.9708  -11.8955   18.1372 O   0  5  0  0  0  0  0  0  0  0  0  0
   -6.9427   -9.6181   20.5453 O   0  0  0  0  0  0  0  0  0  0  0  0
   -6.7833  -12.2475   20.3889 O   0  0  0  0  0  0  0  0  0  0  0  0
   -5.7499  -10.7260   18.5721 O   0  0  0  0  0  0  0  0  0  0  0  0
   -5.4414   -8.1931   18.9937 O   0  5  0  0  0  0  0  0  0  0  0  0
   -5.7896  -13.2779   18.2516 O   0  0  0  0  0  0  0  0  0  0  0  0
   -7.6836   -9.1096   18.1446 O   0  0  0  0  0  0  0  0  0  0  0  0
   -8.3150  -14.1963   21.9179 S   0  0  0  0  0  0  0  0  0  0  0  0
   -6.5232  -12.1165   18.8051 P   0  0  2  0  0  0  0  0  0  0  0  0
   -6.3831   -9.3327   19.0634 P   0  0  2  0  0  0  0  0  0  0  0  0
  2 16  2  0  0  0  0
  2  3  1  0  0  0  0
  2 13  1  0  0  0  0
  3  8  2  0  0  0  0
  3  4  1  0  0  0  0
  4 14  1  0  0  0  0
  5  1  1  6  0  0  0
  5 14  1  0  0  0  0
  5 10  1  0  0  0  0
  6  7  1  0  0  0  0
  7 13  1  0  0  0  0
  7 15  2  0  0  0  0
  8 15  1  0  0  0  0
  9 14  1  0  0  0  0
  9 24  1  0  0  0  0
 10 24  1  0  0  0  0
 10 11  1  1  0  0  0
 11 12  1  0  0  0  0
 12 19  1  0  0  0  0
 17 25  1  0  0  0  0
 19 25  1  0  0  0  0
 20 26  1  0  0  0  0
 21 26  1  0  0  0  0
 22 25  2  0  0  0  0
 23 26  2  0  0  0  0
 25 20  1  6  0  0  0
 26 18  1  1  0  0  0
M  CHG  2  17  -1  21  -1
M  END
>  <CHROM.1>
-118.49927973,136.99723638,61.13017001,137.81317962,179.25334488,54.82764777
-174.66623901,44.38221165,-7.99275874,-13.58536751,22.10172513,-2.07128507
-0.54607883,-1.06045514

>  <Name>
ligand

>  <RI>
0

>  <Rbt.Current_Directory>
/home/itssahil/PROJECTS/Mol_Feturizer/New_Systems/rnas/3D2X

>  <Rbt.Executable>
rbdock ($Id: //depot/dev/client3/rdock/2013.1/src/exe/rbdock.cxx#4 $)

>  <Rbt.Library>
libRbt.so (2013.1, Build901 2013/11/27)

>  <Rbt.Parameter_File>
/export/apps/rDock/src/rDock_2013.1_src/data/scripts/dock_solv.prm

>  <Rbt.Receptor>
prm/pocket_docking_5.prm

>  <SCORE>
-22.864

>  <SCORE.INTER>
-20.7107

>  <SCORE.INTER.CONST>
1

>  <SCORE.INTER.POLAR>
0

>  <SCORE.INTER.ROT>
8

>  <SCORE.INTER.SOLV>
20.3604

>  <SCORE.INTER.VDW>
-29.5273

>  <SCORE.INTER.norm>
-0.796567

>  <SCORE.INTRA>
-2.1533

>  <SCORE.INTRA.DIHEDRAL>
-2.62554

>  <SCORE.INTRA.DIHEDRAL.0>
7.88077

>  <SCORE.INTRA.POLAR>
0

>  <SCORE.INTRA.POLAR.0>
0

>  <SCORE.INTRA.REPUL>
0

>  <SCORE.INTRA.REPUL.0>
0

>  <SCORE.INTRA.SOLV>
-2.03929

>  <SCORE.INTRA.SOLV.lig_0>
-63.2542

>  <SCORE.INTRA.VDW>
0.179115

>  <SCORE.INTRA.VDW.0>
-3.15072

>  <SCORE.INTRA.norm>
-0.0828192

>  <SCORE.RESTR>
0

>  <SCORE.RESTR.CAVITY>
0

>  <SCORE.RESTR.norm>
0

>  <SCORE.SYSTEM>
0

>  <SCORE.SYSTEM.CONST>
0

>  <SCORE.SYSTEM.DIHEDRAL>
0

>  <SCORE.SYSTEM.SOLV>
0

>  <SCORE.SYSTEM.norm>
0

>  <SCORE.heavy>
26

>  <SCORE.norm>
-0.879386

>  <RMSD>
2.711

$$$$
ligand
 OpenBabel11021811473D
libRbt.so/2013.1/901 2013/11/27
 26 27  0  0  0  0  0  0  0  0999 V2000
   -8.6178  -14.5390   22.8484 C   0  0  0  0  0  0  0  0  0  0  0  0
   -9.8052  -16.6993   26.5172 C   0  0  0  0  0  0  0  0  0  0  0  0
   -9.2511  -16.7796   25.2439 C   0  0  0  0  0  0  0  0  0  0  0  0
   -7.7907  -16.4375   24.9390 C   0  0  0  0  0  0  0  0  0  0  0  0
   -7.9071  -14.1151   24.1372 C   0  0  1  0  0  0  0  0  0  0  0  0
  -13.3527  -17.9053   25.8151 C   0  0  0  0  0  0  0  0  0  0  0  0
  -11.8938  -17.4920   25.6158 C   0  0  0  0  0  0  0  0  0  0  0  0
  -10.0662  -17.2154   24.2041 C   0  0  0  0  0  0  0  0  0  0  0  0
   -6.9539  -14.5071   26.1672 C   0  0  0  0  0  0  0  0  0  0  0  0
   -7.6103  -12.7859   24.4138 C   0  0  2  0  0  0  0  0  0  0  0  0
   -7.8817  -11.5097   23.6132 C   0  0  0  0  0  0  0  0  0  0  0  0
   -6.9069  -11.3176   22.4491 C   0  0  0  0  0  0  0  0  0  0  0  0
  -11.1402  -17.0580   26.7145 N   0  0  0  0  0  0  0  0  0  0  0  0
   -7.5457  -14.9945   25.0757 N   0  0  0  0  0  0  0  0  0  0  0  0
  -11.3270  -17.5525   24.4022 N   0  0  0  0  0  0  0  0  0  0  0  0
   -9.1243  -16.3179   27.4694 O   0  0  0  0  0  0  0  0  0  0  0  0
   -6.3647  -10.8714   19.4435 O   0  5  0  0  0  0  0  0  0  0  0  0
   -2.1014  -12.5122   20.3507 O   0  0  0  0  0  0  0  0  0  0  0  0
   -7.0786  -12.3201   21.4425 O   0  0  0  0  0  0  0  0  0  0  0  0
   -4.6469  -12.3801   20.5670 O   0  0  0  0  0  0  0  0  0  0  0  0
   -3.5967  -13.4366   18.4528 O   0  5  0  0  0  0  0  0  0  0  0  0
   -6.5435  -13.4374   19.1880 O   0  0  0  0  0  0  0  0  0  0  0  0
   -3.4371  -10.9078   18.8630 O   0  0  0  0  0  0  0  0  0  0  0  0
   -6.7732  -12.7875   25.9411 S   0  0  0  0  0  0  0  0  0  0  0  0
   -6.1855  -12.3288   20.1025 P   0  0  2  0  0  0  0  0  0  0  0  0
   -3.4550  -12.3889   19.4886 P   0  0  2  0  0  0  0  0  0  0  0  0
  2 16  2  0  0  0  0
  2  3  1  0  0  0  0
  2 13  1  0  0  0  0
  3  8  2  0  0  0  0
  3  4  1  0  0  0  0
  4 14  1  0  0  0  0
  5  1  1  1  0  0  0
  5 14  1  0  0  0  0
  5 10  1  0  0  0  0
  6  7  1  0  0  0  0
  7 13  1  0  0  0  0
  7 15  2  0  0  0  0
  8 15  1  0  0  0  0
  9 14  1  0  0  0  0
  9 24  1  0  0  0  0
 10 24  1  0  0  0  0
 10 11  1  6  0  0  0
 11 12  1  0  0  0  0
 12 19  1  0  0  0  0
 17 25  1  0  0  0  0
 19 25  1  0  0  0  0
 20 26  1  0  0  0  0
 21 26  1  0  0  0  0
 22 25  2  0  0  0  0
 23 26  2  0  0  0  0
 25 20  1  1  0  0  0
 26 18  1  1  0  0  0
M  CHG  2  17  -1  21  -1
M  END
>  <CHROM.1>
-69.49197489,-77.50079263,66.63297309,-77.98697126,179.17521789,-67.42799821
-54.48856405,-177.47714942,-7.21471345,-13.94439585,22.89728282,2.51097821
0.70985037,1.47513148

>  <Name>
ligand

>  <RI>
0

>  <Rbt.Current_Directory>
/home/itssahil/PROJECTS/Mol_Feturizer/New_Systems/rnas/3D2X

>  <Rbt.Executable>
rbdock ($Id: //depot/dev/client3/rdock/2013.1/src/exe/rbdock.cxx#4 $)

>  <Rbt.Library>
libRbt.so (2013.1, Build901 2013/11/27)

>  <Rbt.Parameter_File>
/export/apps/rDock/src/rDock_2013.1_src/data/scripts/dock_solv.prm

>  <Rbt.Receptor>
prm/pocket_docking_4.prm

>  <SCORE>
-19.725

>  <SCORE.INTER>
-17.7014

>  <SCORE.INTER.CONST>
1

>  <SCORE.INTER.POLAR>
0

>  <SCORE.INTER.ROT>
8

>  <SCORE.INTER.SOLV>
7.70894

>  <SCORE.INTER.VDW>
-23.3039

>  <SCORE.INTER.norm>
-0.680824

>  <SCORE.INTRA>
-2.02359

>  <SCORE.INTRA.DIHEDRAL>
-2.91698

>  <SCORE.INTRA.DIHEDRAL.0>
7.88077

>  <SCORE.INTRA.POLAR>
0

>  <SCORE.INTRA.POLAR.0>
0

>  <SCORE.INTRA.REPUL>
0

>  <SCORE.INTRA.REPUL.0>
0

>  <SCORE.INTRA.SOLV>
0.853655

>  <SCORE.INTRA.SOLV.lig_0>
-63.2542

>  <SCORE.INTRA.VDW>
-0.991932

>  <SCORE.INTRA.VDW.0>
-3.15072

>  <SCORE.INTRA.norm>
-0.0778306

>  <SCORE.RESTR>
0

>  <SCORE.RESTR.CAVITY>
0

>  <SCORE.RESTR.norm>
0

>  <SCORE.SYSTEM>
0

>  <SCORE.SYSTEM.CONST>
0

>  <SCORE.SYSTEM.DIHEDRAL>
0

>  <SCORE.SYSTEM.SOLV>
0

>  <SCORE.SYSTEM.norm>
0

>  <SCORE.heavy>
26

>  <SCORE.norm>
-0.758655

>  <RMSD>
2.712

$$$$
ligand
 OpenBabel11021811473D
libRbt.so/2013.1/901 2013/11/27
 26 27  0  0  0  0  0  0  0  0999 V2000
   -7.0612  -16.5325   21.6816 C   0  0  0  0  0  0  0  0  0  0  0  0
   -9.9438  -16.7257   26.1658 C   0  0  0  0  0  0  0  0  0  0  0  0
   -9.4601  -16.9199   24.8763 C   0  0  0  0  0  0  0  0  0  0  0  0
   -8.0195  -16.6096   24.4627 C   0  0  0  0  0  0  0  0  0  0  0  0
   -7.5072  -15.2869   22.4531 C   0  0  1  0  0  0  0  0  0  0  0  0
  -13.5214  -17.9810   25.7689 C   0  0  0  0  0  0  0  0  0  0  0  0
  -12.0766  -17.5904   25.4541 C   0  0  0  0  0  0  0  0  0  0  0  0
  -10.3297  -17.4444   23.9254 C   0  0  0  0  0  0  0  0  0  0  0  0
   -8.3284  -14.2002   24.2773 C   0  0  0  0  0  0  0  0  0  0  0  0
   -7.4985  -14.0209   21.8801 C   0  0  2  0  0  0  0  0  0  0  0  0
   -7.0981  -13.5574   20.4771 C   0  0  0  0  0  0  0  0  0  0  0  0
   -6.0280  -12.4634   20.4935 C   0  0  0  0  0  0  0  0  0  0  0  0
  -11.2651  -17.0623   26.4670 N   0  0  0  0  0  0  0  0  0  0  0  0
   -7.9442  -15.3466   23.7142 N   0  0  0  0  0  0  0  0  0  0  0  0
  -11.5770  -17.7597   24.2214 N   0  0  0  0  0  0  0  0  0  0  0  0
   -9.2128  -16.2628   27.0417 O   0  0  0  0  0  0  0  0  0  0  0  0
   -3.9985  -12.1900   17.1758 O   0  5  0  0  0  0  0  0  0  0  0  0
   -3.2571  -16.0136   18.1304 O   0  0  0  0  0  0  0  0  0  0  0  0
   -5.6161  -12.1044   19.1710 O   0  0  0  0  0  0  0  0  0  0  0  0
   -3.5860  -13.7050   19.1818 O   0  0  0  0  0  0  0  0  0  0  0  0
   -1.6658  -14.0772   17.4897 O   0  5  0  0  0  0  0  0  0  0  0  0
   -5.5917  -14.1718   17.6404 O   0  0  0  0  0  0  0  0  0  0  0  0
   -1.5600  -15.1217   19.8320 O   0  0  0  0  0  0  0  0  0  0  0  0
   -8.0327  -12.9257   23.1245 S   0  0  0  0  0  0  0  0  0  0  0  0
   -4.7581  -13.1125   18.2540 P   0  0  2  0  0  0  0  0  0  0  0  0
   -2.4651  -14.6854   18.5768 P   0  0  2  0  0  0  0  0  0  0  0  0
  2 16  2  0  0  0  0
  2  3  1  0  0  0  0
  2 13  1  0  0  0  0
  3  8  2  0  0  0  0
  3  4  1  0  0  0  0
  4 14  1  0  0  0  0
  5  1  1  6  0  0  0
  5 14  1  0  0  0  0
  5 10  1  0  0  0  0
  6  7  1  0  0  0  0
  7 13  1  0  0  0  0
  7 15  2  0  0  0  0
  8 15  1  0  0  0  0
  9 14  1  0  0  0  0
  9 24  1  0  0  0  0
 10 24  1  0  0  0  0
 10 11  1  1  0  0  0
 11 12  1  0  0  0  0
 12 19  1  0  0  0  0
 17 25  1  0  0  0  0
 19 25  1  0  0  0  0
 20 26  1  0  0  0  0
 21 26  1  0  0  0  0
 22 25  2  0  0  0  0
 23 26  2  0  0  0  0
 25 20  1  1  0  0  0
 26 18  1  6  0  0  0
M  CHG  2  17  -1  21  -1
M  END
>  <CHROM.1>
-102.76055092,-124.68603165,176.59158546,-118.76988905,-69.69629346,-64.05814223
-157.13775077,-64.84731218,-6.78823769,-14.89766742,21.59732680,-2.56912908
0.61508793,-0.43940226

>  <Name>
ligand

>  <RI>
0

>  <Rbt.Current_Directory>
/home/itssahil/PROJECTS/Mol_Feturizer/New_Systems/rnas/3D2X

>  <Rbt.Executable>
rbdock ($Id: //depot/dev/client3/rdock/2013.1/src/exe/rbdock.cxx#4 $)

>  <Rbt.Library>
libRbt.so (2013.1, Build901 2013/11/27)

>  <Rbt.Parameter_File>
/export/apps/rDock/src/rDock_2013.1_src/data/scripts/dock_solv.prm

>  <Rbt.Receptor>
prm/pocket_docking_3.prm

>  <SCORE>
-18.6897

>  <SCORE.INTER>
-17.1009

>  <SCORE.INTER.CONST>
1

>  <SCORE.INTER.POLAR>
0

>  <SCORE.INTER.ROT>
8

>  <SCORE.INTER.SOLV>
9.68213

>  <SCORE.INTER.VDW>
-23.5613

>  <SCORE.INTER.norm>
-0.657728

>  <SCORE.INTRA>
-1.58874

>  <SCORE.INTRA.DIHEDRAL>
-1.60918

>  <SCORE.INTRA.DIHEDRAL.0>
7.88077

>  <SCORE.INTRA.POLAR>
0

>  <SCORE.INTRA.POLAR.0>
0

>  <SCORE.INTRA.REPUL>
0

>  <SCORE.INTRA.REPUL.0>
0

>  <SCORE.INTRA.SOLV>
-0.68634

>  <SCORE.INTRA.SOLV.lig_0>
-63.2542

>  <SCORE.INTRA.VDW>
-0.440979

>  <SCORE.INTRA.VDW.0>
-3.15072

>  <SCORE.INTRA.norm>
-0.0611053

>  <SCORE.RESTR>
0

>  <SCORE.RESTR.CAVITY>
0

>  <SCORE.RESTR.norm>
0

>  <SCORE.SYSTEM>
0

>  <SCORE.SYSTEM.CONST>
0

>  <SCORE.SYSTEM.DIHEDRAL>
0

>  <SCORE.SYSTEM.SOLV>
0

>  <SCORE.SYSTEM.norm>
0

>  <SCORE.heavy>
26

>  <SCORE.norm>
-0.718833

>  <RMSD>
2.713

$$$$
ligand
 OpenBabel11021811473D
libRbt.so/2013.1/901 2013/11/27
 26 27  0  0  0  0  0  0  0  0999 V2000
   -8.1041  -13.6300   22.9261 C   0  0  0  0  0  0  0  0  0  0  0  0
  -10.2020  -16.5985   26.4780 C   0  0  0  0  0  0  0  0  0  0  0  0
   -9.6322  -16.2886   25.2475 C   0  0  0  0  0  0  0  0  0  0  0  0
   -8.2698  -15.6071   25.0993 C   0  0  0  0  0  0  0  0  0  0  0  0
   -7.5685  -15.0598   22.8060 C   0  0  1  0  0  0  0  0  0  0  0  0
  -13.4226  -18.2984   25.3509 C   0  0  0  0  0  0  0  0  0  0  0  0
  -12.0770  -17.5720   25.3206 C   0  0  0  0  0  0  0  0  0  0  0  0
  -10.3322  -16.6397   24.0976 C   0  0  0  0  0  0  0  0  0  0  0  0
   -7.1280  -17.1485   23.5975 C   0  0  0  0  0  0  0  0  0  0  0  0
   -6.9509  -15.5224   21.6502 C   0  0  2  0  0  0  0  0  0  0  0  0
   -6.6526  -14.8210   20.3226 C   0  0  0  0  0  0  0  0  0  0  0  0
   -5.8164  -15.6786   19.3700 C   0  0  0  0  0  0  0  0  0  0  0  0
  -11.4373  -17.2478   26.5243 N   0  0  0  0  0  0  0  0  0  0  0  0
   -7.6497  -15.9392   23.8084 N   0  0  0  0  0  0  0  0  0  0  0  0
  -11.4994  -17.2538   24.1532 N   0  0  0  0  0  0  0  0  0  0  0  0
   -9.6215  -16.3069   27.5238 O   0  0  0  0  0  0  0  0  0  0  0  0
   -5.4697  -15.4046   15.5707 O   0  5  0  0  0  0  0  0  0  0  0  0
   -2.9284  -14.8340   19.3926 O   0  0  0  0  0  0  0  0  0  0  0  0
   -5.6184  -15.0316   18.1091 O   0  0  0  0  0  0  0  0  0  0  0  0
   -3.3588  -14.8194   16.8711 O   0  0  0  0  0  0  0  0  0  0  0  0
   -1.4125  -16.2286   17.8276 O   0  5  0  0  0  0  0  0  0  0  0  0
   -4.4414  -17.1297   17.1981 O   0  0  0  0  0  0  0  0  0  0  0  0
   -1.2817  -13.6652   17.8136 O   0  0  0  0  0  0  0  0  0  0  0  0
   -6.5547  -17.1914   21.9512 S   0  0  0  0  0  0  0  0  0  0  0  0
   -4.7064  -15.6925   16.9582 P   0  0  2  0  0  0  0  0  0  0  0  0
   -2.1945  -14.9799   17.9676 P   0  0  2  0  0  0  0  0  0  0  0  0
  2 16  2  0  0  0  0
  2  3  1  0  0  0  0
  2 13  1  0  0  0  0
  3  8  2  0  0  0  0
  3  4  1  0  0  0  0
  4 14  1  0  0  0  0
  5  1  1  1  0  0  0
  5 14  1  0  0  0  0
  5 10  1  0  0  0  0
  6  7  1  0  0  0  0
  7 13  1  0  0  0  0
  7 15  2  0  0  0  0
  8 15  1  0  0  0  0
  9 14  1  0  0  0  0
  9 24  1  0  0  0  0
 10 24  1  0  0  0  0
 10 11  1  6  0  0  0
 11 12  1  0  0  0  0
 12 19  1  0  0  0  0
 17 25  1  0  0  0  0
 19 25  1  0  0  0  0
 20 26  1  0  0  0  0
 21 26  1  0  0  0  0
 22 25  2  0  0  0  0
 23 26  2  0  0  0  0
 25 20  1  6  0  0  0
 26 18  1  1  0  0  0
M  CHG  2  17  -1  21  -1
M  END
>  <CHROM.1>
154.14009434,173.92548677,176.60599410,106.74858234,176.75632454,-171.05924697
140.37723541,-51.22534797,-6.61591324,-15.91512933,21.17914592,-2.36220249
-0.35300140,-1.71041181

>  <Name>
ligand

>  <RI>
0

>  <Rbt.Current_Directory>
/home/itssahil/PROJECTS/Mol_Feturizer/New_Systems/rnas/3D2X

>  <Rbt.Executable>
rbdock ($Id: //depot/dev/client3/rdock/2013.1/src/exe/rbdock.cxx#4 $)

>  <Rbt.Library>
libRbt.so (2013.1, Build901 2013/11/27)

>  <Rbt.Parameter_File>
/export/apps/rDock/src/rDock_2013.1_src/data/scripts/dock_solv.prm

>  <Rbt.Receptor>
prm/pocket_docking_5.prm

>  <SCORE>
-21.4842

>  <SCORE.INTER>
-20.282

>  <SCORE.INTER.CONST>
1

>  <SCORE.INTER.POLAR>
0

>  <SCORE.INTER.ROT>
8

>  <SCORE.INTER.SOLV>
11.8434

>  <SCORE.INTER.VDW>
-26.4025

>  <SCORE.INTER.norm>
-0.780078

>  <SCORE.INTRA>
-1.20218

>  <SCORE.INTRA.DIHEDRAL>
-0.608184

>  <SCORE.INTRA.DIHEDRAL.0>
7.88077

>  <SCORE.INTRA.POLAR>
0

>  <SCORE.INTRA.POLAR.0>
0

>  <SCORE.INTRA.REPUL>
0

>  <SCORE.INTRA.REPUL.0>
0

>  <SCORE.INTRA.SOLV>
-2.69816

>  <SCORE.INTRA.SOLV.lig_0>
-63.2542

>  <SCORE.INTRA.VDW>
0.450997

>  <SCORE.INTRA.VDW.0>
-3.15072

>  <SCORE.INTRA.norm>
-0.0462376

>  <SCORE.RESTR>
0

>  <SCORE.RESTR.CAVITY>
0

>  <SCORE.RESTR.norm>
0

>  <SCORE.SYSTEM>
0

>  <SCORE.SYSTEM.CONST>
0

>  <SCORE.SYSTEM.DIHEDRAL>
0

>  <SCORE.SYSTEM.SOLV>
0

>  <SCORE.SYSTEM.norm>
0

>  <SCORE.heavy>
26

>  <SCORE.norm>
-0.826315

>  <RMSD>
2.720

$$$$
ligand
 OpenBabel11021811473D
libRbt.so/2013.1/901 2013/11/27
 26 27  0  0  0  0  0  0  0  0999 V2000
   -6.9516  -13.8138   25.3339 C   0  0  0  0  0  0  0  0  0  0  0  0
  -10.0141  -16.8446   26.3991 C   0  0  0  0  0  0  0  0  0  0  0  0
   -9.4961  -16.8668   25.1084 C   0  0  0  0  0  0  0  0  0  0  0  0
   -8.0518  -16.4852   24.7752 C   0  0  0  0  0  0  0  0  0  0  0  0
   -7.5158  -14.2236   23.9703 C   0  0  1  0  0  0  0  0  0  0  0  0
  -13.5578  -18.0929   25.7536 C   0  0  0  0  0  0  0  0  0  0  0  0
  -12.1132  -17.6440   25.5284 C   0  0  0  0  0  0  0  0  0  0  0  0
  -10.3330  -17.2797   24.0766 C   0  0  0  0  0  0  0  0  0  0  0  0
   -8.4482  -15.6955   22.5049 C   0  0  0  0  0  0  0  0  0  0  0  0
   -7.5369  -13.3522   22.8878 C   0  0  2  0  0  0  0  0  0  0  0  0
   -7.0529  -11.9061   22.7544 C   0  0  0  0  0  0  0  0  0  0  0  0
   -6.1323  -11.6943   21.5503 C   0  0  0  0  0  0  0  0  0  0  0  0
  -11.3359  -17.2364   26.6207 N   0  0  0  0  0  0  0  0  0  0  0  0
   -8.0054  -15.4447   23.7378 N   0  0  0  0  0  0  0  0  0  0  0  0
  -11.5810  -17.6485   24.2977 N   0  0  0  0  0  0  0  0  0  0  0  0
   -9.3129  -16.4855   27.3452 O   0  0  0  0  0  0  0  0  0  0  0  0
   -5.9030  -10.2856   18.6225 O   0  5  0  0  0  0  0  0  0  0  0  0
   -4.8425  -14.3910   20.6624 O   0  0  0  0  0  0  0  0  0  0  0  0
   -6.7921  -12.0001   20.3179 O   0  0  0  0  0  0  0  0  0  0  0  0
   -4.5255  -12.3675   19.1299 O   0  0  0  0  0  0  0  0  0  0  0  0
   -4.6234  -14.7415   18.1087 O   0  5  0  0  0  0  0  0  0  0  0  0
   -6.7254  -12.6001   17.8173 O   0  0  0  0  0  0  0  0  0  0  0  0
   -2.5939  -14.0015   19.4950 O   0  0  0  0  0  0  0  0  0  0  0  0
   -8.2987  -14.2216   21.5851 S   0  0  0  0  0  0  0  0  0  0  0  0
   -6.0360  -11.8649   18.9025 P   0  0  2  0  0  0  0  0  0  0  0  0
   -4.1840  -13.9321   19.2672 P   0  0  2  0  0  0  0  0  0  0  0  0
  2 16  2  0  0  0  0
  2  3  1  0  0  0  0
  2 13  1  0  0  0  0
  3  8  2  0  0  0  0
  3  4  1  0  0  0  0
  4 14  1  0  0  0  0
  5  1  1  6  0  0  0
  5 14  1  0  0  0  0
  5 10  1  0  0  0  0
  6  7  1  0  0  0  0
  7 13  1  0  0  0  0
  7 15  2  0  0  0  0
  8 15  1  0  0  0  0
  9 14  1  0  0  0  0
  9 24  1  0  0  0  0
 10 24  1  0  0  0  0
 10 11  1  1  0  0  0
 11 12  1  0  0  0  0
 12 19  1  0  0  0  0
 17 25  1  0  0  0  0
 19 25  1  0  0  0  0
 20 26  1  0  0  0  0
 21 26  1  0  0  0  0
 22 25  2  0  0  0  0
 23 26  2  0  0  0  0
 25 20  1  1  0  0  0
 26 18  1  1  0  0  0
M  CHG  2  17  -1  21  -1
M  END
>  <CHROM.1>
-125.93881589,128.72358440,60.82274395,115.80479505,-179.70639539,-172.54946347
-72.89089186,-68.02584246,-7.45567552,-14.41027231,22.10229838,-2.20178714
-0.11535694,-1.06523240

>  <Name>
ligand

>  <RI>
0

>  <Rbt.Current_Directory>
/home/itssahil/PROJECTS/Mol_Feturizer/New_Systems/rnas/3D2X

>  <Rbt.Executable>
rbdock ($Id: //depot/dev/client3/rdock/2013.1/src/exe/rbdock.cxx#4 $)

>  <Rbt.Library>
libRbt.so (2013.1, Build901 2013/11/27)

>  <Rbt.Parameter_File>
/export/apps/rDock/src/rDock_2013.1_src/data/scripts/dock_solv.prm

>  <Rbt.Receptor>
prm/pocket_docking_3.prm

>  <SCORE>
-21.3443

>  <SCORE.INTER>
-17.9722

>  <SCORE.INTER.CONST>
1

>  <SCORE.INTER.POLAR>
0

>  <SCORE.INTER.ROT>
8

>  <SCORE.INTER.SOLV>
7.7454

>  <SCORE.INTER.VDW>
-23.4966

>  <SCORE.INTER.norm>
-0.691239

>  <SCORE.INTRA>
-3.37212

>  <SCORE.INTRA.DIHEDRAL>
-2.0498

>  <SCORE.INTRA.DIHEDRAL.0>
7.88077

>  <SCORE.INTRA.POLAR>
0

>  <SCORE.INTRA.POLAR.0>
0

>  <SCORE.INTRA.REPUL>
0

>  <SCORE.INTRA.REPUL.0>
0

>  <SCORE.INTRA.SOLV>
-2.56852

>  <SCORE.INTRA.SOLV.lig_0>
-63.2542

>  <SCORE.INTRA.VDW>
-1.06296

>  <SCORE.INTRA.VDW.0>
-3.15072

>  <SCORE.INTRA.norm>
-0.129697

>  <SCORE.RESTR>
0

>  <SCORE.RESTR.CAVITY>
0

>  <SCORE.RESTR.norm>
0

>  <SCORE.SYSTEM>
0

>  <SCORE.SYSTEM.CONST>
0

>  <SCORE.SYSTEM.DIHEDRAL>
0

>  <SCORE.SYSTEM.SOLV>
0

>  <SCORE.SYSTEM.norm>
0

>  <SCORE.heavy>
26

>  <SCORE.norm>
-0.820935

>  <RMSD>
2.721

$$$$
ligand
 OpenBabel11021811473D
libRbt.so/2013.1/901 2013/11/27
 26 27  0  0  0  0  0  0  0  0999 V2000
   -7.2662  -17.0298   22.1953 C   0  0  0  0  0  0  0  0  0  0  0  0
  -10.0458  -16.8102   26.3946 C   0  0  0  0  0  0  0  0  0  0  0  0
   -9.4438  -16.7192   25.1440 C   0  0  0  0  0  0  0  0  0  0  0  0
   -8.0004  -16.2541   24.9372 C   0  0  0  0  0  0  0  0  0  0  0  0
   -7.5776  -15.5880   22.6074 C   0  0  1  0  0  0  0  0  0  0  0  0
  -13.4767  -18.1593   25.4245 C   0  0  0  0  0  0  0  0  0  0  0  0
  -12.0432  -17.6347   25.3299 C   0  0  0  0  0  0  0  0  0  0  0  0
  -10.1909  -17.0935   24.0316 C   0  0  0  0  0  0  0  0  0  0  0  0
   -8.1867  -13.9757   24.0949 C   0  0  0  0  0  0  0  0  0  0  0  0
   -7.5436  -14.5366   21.6992 C   0  0  2  0  0  0  0  0  0  0  0  0
   -7.2318  -14.5151   20.2006 C   0  0  0  0  0  0  0  0  0  0  0  0
   -6.4135  -13.2922   19.7795 C   0  0  0  0  0  0  0  0  0  0  0  0
  -11.3593  -17.2725   26.4980 N   0  0  0  0  0  0  0  0  0  0  0  0
   -7.9144  -15.2597   23.8579 N   0  0  0  0  0  0  0  0  0  0  0  0
  -11.4320  -17.5296   24.1411 N   0  0  0  0  0  0  0  0  0  0  0  0
   -9.4258  -16.4893   27.4087 O   0  0  0  0  0  0  0  0  0  0  0  0
   -6.1544  -10.2549   20.7914 O   0  5  0  0  0  0  0  0  0  0  0  0
   -6.2379   -9.9701   16.2409 O   0  0  0  0  0  0  0  0  0  0  0  0
   -7.2511  -12.1720   19.4773 O   0  0  0  0  0  0  0  0  0  0  0  0
   -5.2949  -10.8214   18.4612 O   0  0  0  0  0  0  0  0  0  0  0  0
   -4.0053  -11.2767   16.2662 O   0  5  0  0  0  0  0  0  0  0  0  0
   -7.6144   -9.7402   18.7213 O   0  0  0  0  0  0  0  0  0  0  0  0
   -6.2188  -12.4821   16.7516 O   0  0  0  0  0  0  0  0  0  0  0  0
   -7.9132  -13.1001   22.6119 S   0  0  0  0  0  0  0  0  0  0  0  0
   -6.6469  -10.6874   19.3214 P   0  0  2  0  0  0  0  0  0  0  0  0
   -5.3421  -11.1411   16.8867 P   0  0  2  0  0  0  0  0  0  0  0  0
  2 16  2  0  0  0  0
  2  3  1  0  0  0  0
  2 13  1  0  0  0  0
  3  8  2  0  0  0  0
  3  4  1  0  0  0  0
  4 14  1  0  0  0  0
  5  1  1  6  0  0  0
  5 14  1  0  0  0  0
  5 10  1  0  0  0  0
  6  7  1  0  0  0  0
  7 13  1  0  0  0  0
  7 15  2  0  0  0  0
  8 15  1  0  0  0  0
  9 14  1  0  0  0  0
  9 24  1  0  0  0  0
 10 24  1  0  0  0  0
 10 11  1  1  0  0  0
 11 12  1  0  0  0  0
 12 19  1  0  0  0  0
 17 25  1  0  0  0  0
 19 25  1  0  0  0  0
 20 26  1  0  0  0  0
 21 26  1  0  0  0  0
 22 25  2  0  0  0  0
 23 26  2  0  0  0  0
 25 20  1  6  0  0  0
 26 18  1  6  0  0  0
M  CHG  2  17  -1  21  -1
M  END
>  <CHROM.1>
-133.03101684,-141.19504339,-86.92590073,-97.05225763,166.54526794,-175.64263708
-68.17783446,56.95847301,-7.82132158,-13.76604879,21.45321864,2.80811628
1.10108096,1.03729365

>  <Name>
ligand

>  <RI>
0

>  <Rbt.Current_Directory>
/home/itssahil/PROJECTS/Mol_Feturizer/New_Systems/rnas/3D2X

>  <Rbt.Executable>
rbdock ($Id: //depot/dev/client3/rdock/2013.1/src/exe/rbdock.cxx#4 $)

>  <Rbt.Library>
libRbt.so (2013.1, Build901 2013/11/27)

>  <Rbt.Parameter_File>
/export/apps/rDock/src/rDock_2013.1_src/data/scripts/dock_solv.prm

>  <Rbt.Receptor>
prm/pocket_docking_4.prm

>  <SCORE>
-24.3801

>  <SCORE.INTER>
-23.5145

>  <SCORE.INTER.CONST>
1

>  <SCORE.INTER.POLAR>
0

>  <SCORE.INTER.ROT>
8

>  <SCORE.INTER.SOLV>
12.9438

>  <SCORE.INTER.VDW>
-28.9243

>  <SCORE.INTER.norm>
-0.904404

>  <SCORE.INTRA>
-0.895688

>  <SCORE.INTRA.DIHEDRAL>
0.713796

>  <SCORE.INTRA.DIHEDRAL.0>
7.88077

>  <SCORE.INTRA.POLAR>
0

>  <SCORE.INTRA.POLAR.0>
0

>  <SCORE.INTRA.REPUL>
0

>  <SCORE.INTRA.REPUL.0>
0

>  <SCORE.INTRA.SOLV>
-0.832343

>  <SCORE.INTRA.SOLV.lig_0>
-63.2542

>  <SCORE.INTRA.VDW>
-0.836415

>  <SCORE.INTRA.VDW.0>
-3.15072

>  <SCORE.INTRA.norm>
-0.0344496

>  <SCORE.RESTR>
0.0301024

>  <SCORE.RESTR.CAVITY>
0.0301024

>  <SCORE.RESTR.norm>
0.00115779

>  <SCORE.SYSTEM>
0

>  <SCORE.SYSTEM.CONST>
0

>  <SCORE.SYSTEM.DIHEDRAL>
0

>  <SCORE.SYSTEM.SOLV>
0

>  <SCORE.SYSTEM.norm>
0

>  <SCORE.heavy>
26

>  <SCORE.norm>
-0.937696

>  <RMSD>
2.737

$$$$
ligand
 OpenBabel11021811473D
libRbt.so/2013.1/901 2013/11/27
 26 27  0  0  0  0  0  0  0  0999 V2000
   -6.6509  -16.3047   21.7289 C   0  0  0  0  0  0  0  0  0  0  0  0
   -9.9452  -16.9998   23.7484 C   0  0  0  0  0  0  0  0  0  0  0  0
   -9.0677  -16.6242   24.7602 C   0  0  0  0  0  0  0  0  0  0  0  0
   -7.6310  -16.1652   24.5000 C   0  0  0  0  0  0  0  0  0  0  0  0
   -7.1580  -15.0137   22.3785 C   0  0  1  0  0  0  0  0  0  0  0  0
  -13.0756  -17.7666   25.7844 C   0  0  0  0  0  0  0  0  0  0  0  0
  -11.6452  -17.3714   25.4142 C   0  0  0  0  0  0  0  0  0  0  0  0
   -9.5344  -16.6481   26.0706 C   0  0  0  0  0  0  0  0  0  0  0  0
   -8.0428  -13.7995   24.0890 C   0  0  0  0  0  0  0  0  0  0  0  0
   -7.1991  -13.8073   21.6899 C   0  0  2  0  0  0  0  0  0  0  0  0
   -6.8061  -13.4590   20.2519 C   0  0  0  0  0  0  0  0  0  0  0  0
   -6.0662  -12.1237   20.1430 C   0  0  0  0  0  0  0  0  0  0  0  0
  -11.2502  -17.3785   24.0699 N   0  0  0  0  0  0  0  0  0  0  0  0
   -7.6038  -14.9752   23.6373 N   0  0  0  0  0  0  0  0  0  0  0  0
  -10.7705  -17.0074   26.3630 N   0  0  0  0  0  0  0  0  0  0  0  0
   -9.5784  -16.9963   22.5732 O   0  0  0  0  0  0  0  0  0  0  0  0
   -4.0201  -11.9139   16.7952 O   0  5  0  0  0  0  0  0  0  0  0  0
   -3.6505  -11.9952   21.5986 O   0  0  0  0  0  0  0  0  0  0  0  0
   -5.6184  -11.8728   18.8073 O   0  0  0  0  0  0  0  0  0  0  0  0
   -3.1006  -12.3641   19.1278 O   0  0  0  0  0  0  0  0  0  0  0  0
   -3.5581  -14.4015   20.6536 O   0  5  0  0  0  0  0  0  0  0  0  0
   -4.6268  -14.1105   18.0154 O   0  0  0  0  0  0  0  0  0  0  0  0
   -1.4051  -13.0300   20.9213 O   0  0  0  0  0  0  0  0  0  0  0  0
   -7.7921  -12.6259   22.8238 S   0  0  0  0  0  0  0  0  0  0  0  0
   -4.3636  -12.6622   18.1782 P   0  0  2  0  0  0  0  0  0  0  0  0
   -2.9762  -13.0428   20.5795 P   0  0  2  0  0  0  0  0  0  0  0  0
  2 16  2  0  0  0  0
  2  3  1  0  0  0  0
  2 13  1  0  0  0  0
  3  8  2  0  0  0  0
  3  4  1  0  0  0  0
  4 14  1  0  0  0  0
  5  1  1  6  0  0  0
  5 14  1  0  0  0  0
  5 10  1  0  0  0  0
  6  7  1  0  0  0  0
  7 13  1  0  0  0  0
  7 15  2  0  0  0  0
  8 15  1  0  0  0  0
  9 14  1  0  0  0  0
  9 24  1  0  0  0  0
 10 24  1  0  0  0  0
 10 11  1  1  0  0  0
 11 12  1  0  0  0  0
 12 19  1  0  0  0  0
 17 25  1  0  0  0  0
 19 25  1  0  0  0  0
 20 26  1  0  0  0  0
 21 26  1  0  0  0  0
 22 25  2  0  0  0  0
 23 26  2  0  0  0  0
 25 20  1  1  0  0  0
 26 18  1  1  0  0  0
M  CHG  2  17  -1  21  -1
M  END
>  <CHROM.1>
59.60423472,-138.76049779,175.40131266,-110.19714668,-74.10415559,-174.62142617
-169.86011682,-92.00965570,-6.65550814,-14.32828392,21.77212623,2.39126598
0.33484166,1.86306213

>  <Name>
ligand

>  <RI>
0

>  <Rbt.Current_Directory>
/home/itssahil/PROJECTS/Mol_Feturizer/New_Systems/rnas/3D2X

>  <Rbt.Executable>
rbdock ($Id: //depot/dev/client3/rdock/2013.1/src/exe/rbdock.cxx#4 $)

>  <Rbt.Library>
libRbt.so (2013.1, Build901 2013/11/27)

>  <Rbt.Parameter_File>
/export/apps/rDock/src/rDock_2013.1_src/data/scripts/dock_solv.prm

>  <Rbt.Receptor>
prm/pocket_docking_2.prm

>  <SCORE>
-13.8885

>  <SCORE.INTER>
-13.4704

>  <SCORE.INTER.CONST>
1

>  <SCORE.INTER.POLAR>
0

>  <SCORE.INTER.ROT>
8

>  <SCORE.INTER.SOLV>
6.3344

>  <SCORE.INTER.VDW>
-20.0251

>  <SCORE.INTER.norm>
-0.518093

>  <SCORE.INTRA>
-0.567425

>  <SCORE.INTRA.DIHEDRAL>
-0.52471

>  <SCORE.INTRA.DIHEDRAL.0>
7.88077

>  <SCORE.INTRA.POLAR>
0

>  <SCORE.INTRA.POLAR.0>
0

>  <SCORE.INTRA.REPUL>
0

>  <SCORE.INTRA.REPUL.0>
0

>  <SCORE.INTRA.SOLV>
1.31514

>  <SCORE.INTRA.SOLV.lig_0>
-63.2542

>  <SCORE.INTRA.VDW>
-0.96264

>  <SCORE.INTRA.VDW.0>
-3.15072

>  <SCORE.INTRA.norm>
-0.021824

>  <SCORE.RESTR>
0.149372

>  <SCORE.RESTR.CAVITY>
0.149372

>  <SCORE.RESTR.norm>
0.00574507

>  <SCORE.SYSTEM>
0

>  <SCORE.SYSTEM.CONST>
0

>  <SCORE.SYSTEM.DIHEDRAL>
0

>  <SCORE.SYSTEM.SOLV>
0

>  <SCORE.SYSTEM.norm>
0

>  <SCORE.heavy>
26

>  <SCORE.norm>
-0.534172

>  <RMSD>
2.739

$$$$
ligand
 OpenBabel11021811473D
libRbt.so/2013.1/901 2013/11/27
 26 27  0  0  0  0  0  0  0  0999 V2000
   -6.9178  -17.4690   22.7382 C   0  0  0  0  0  0  0  0  0  0  0  0
  -10.4015  -16.3194   23.4376 C   0  0  0  0  0  0  0  0  0  0  0  0
   -9.4463  -15.9798   24.3900 C   0  0  0  0  0  0  0  0  0  0  0  0
   -8.1874  -15.1712   24.0675 C   0  0  0  0  0  0  0  0  0  0  0  0
   -7.3374  -16.1950   21.9988 C   0  0  1  0  0  0  0  0  0  0  0  0
  -12.9316  -18.1664   25.6101 C   0  0  0  0  0  0  0  0  0  0  0  0
  -11.6862  -17.3970   25.1672 C   0  0  0  0  0  0  0  0  0  0  0  0
   -9.6648  -16.3797   25.7045 C   0  0  0  0  0  0  0  0  0  0  0  0
   -8.2613  -14.1182   21.8719 C   0  0  0  0  0  0  0  0  0  0  0  0
   -7.1532  -16.0410   20.6300 C   0  0  2  0  0  0  0  0  0  0  0  0
   -6.5577  -16.9880   19.5850 C   0  0  0  0  0  0  0  0  0  0  0  0
   -5.4406  -16.3416   18.7625 C   0  0  0  0  0  0  0  0  0  0  0  0
  -11.5372  -17.0353   23.8217 N   0  0  0  0  0  0  0  0  0  0  0  0
   -7.9178  -15.1659   22.6224 N   0  0  0  0  0  0  0  0  0  0  0  0
  -10.7426  -17.0558   26.0565 N   0  0  0  0  0  0  0  0  0  0  0  0
  -10.2521  -15.9892   22.2610 O   0  0  0  0  0  0  0  0  0  0  0  0
   -2.6846  -15.9311   17.5787 O   0  5  0  0  0  0  0  0  0  0  0  0
   -4.7954  -13.4509   20.7838 O   0  0  0  0  0  0  0  0  0  0  0  0
   -4.3051  -16.0187   19.5714 O   0  0  0  0  0  0  0  0  0  0  0  0
   -3.5839  -13.7552   18.5515 O   0  0  0  0  0  0  0  0  0  0  0  0
   -2.7836  -11.9322   20.2021 O   0  5  0  0  0  0  0  0  0  0  0  0
   -1.9088  -15.1498   19.9174 O   0  0  0  0  0  0  0  0  0  0  0  0
   -5.0097  -11.6715   18.9512 O   0  0  0  0  0  0  0  0  0  0  0  0
   -7.7268  -14.4425   20.2441 S   0  0  0  0  0  0  0  0  0  0  0  0
   -3.0471  -15.2116   18.9720 P   0  0  2  0  0  0  0  0  0  0  0  0
   -3.9567  -12.6560   19.6633 P   0  0  2  0  0  0  0  0  0  0  0  0
  2 16  2  0  0  0  0
  2  3  1  0  0  0  0
  2 13  1  0  0  0  0
  3  8  2  0  0  0  0
  3  4  1  0  0  0  0
  4 14  1  0  0  0  0
  5  1  1  6  0  0  0
  5 14  1  0  0  0  0
  5 10  1  0  0  0  0
  6  7  1  0  0  0  0
  7 13  1  0  0  0  0
  7 15  2  0  0  0  0
  8 15  1  0  0  0  0
  9 14  1  0  0  0  0
  9 24  1  0  0  0  0
 10 24  1  0  0  0  0
 10 11  1  1  0  0  0
 11 12  1  0  0  0  0
 12 19  1  0  0  0  0
 17 25  1  0  0  0  0
 19 25  1  0  0  0  0
 20 26  1  0  0  0  0
 21 26  1  0  0  0  0
 22 25  2  0  0  0  0
 23 26  2  0  0  0  0
 25 20  1  6  0  0  0
 26 18  1  1  0  0  0
M  CHG  2  17  -1  21  -1
M  END
>  <CHROM.1>
-17.35540879,-126.89317263,65.02718344,-79.45613897,-174.50627400,-175.37368505
-47.42642569,-44.23418131,-6.66853257,-15.24070409,21.29388840,-2.94303070
0.67016594,0.15745894

>  <Name>
ligand

>  <RI>
0

>  <Rbt.Current_Directory>
/home/itssahil/PROJECTS/Mol_Feturizer/New_Systems/rnas/3D2X

>  <Rbt.Executable>
rbdock ($Id: //depot/dev/client3/rdock/2013.1/src/exe/rbdock.cxx#4 $)

>  <Rbt.Library>
libRbt.so (2013.1, Build901 2013/11/27)

>  <Rbt.Parameter_File>
/export/apps/rDock/src/rDock_2013.1_src/data/scripts/dock_solv.prm

>  <Rbt.Receptor>
prm/pocket_docking_4.prm

>  <SCORE>
-21.9525

>  <SCORE.INTER>
-18.5283

>  <SCORE.INTER.CONST>
1

>  <SCORE.INTER.POLAR>
0

>  <SCORE.INTER.ROT>
8

>  <SCORE.INTER.SOLV>
11.0097

>  <SCORE.INTER.VDW>
-24.9555

>  <SCORE.INTER.norm>
-0.712628

>  <SCORE.INTRA>
-3.42415

>  <SCORE.INTRA.DIHEDRAL>
-1.64061

>  <SCORE.INTRA.DIHEDRAL.0>
7.88077

>  <SCORE.INTRA.POLAR>
0

>  <SCORE.INTRA.POLAR.0>
0

>  <SCORE.INTRA.REPUL>
0

>  <SCORE.INTRA.REPUL.0>
0

>  <SCORE.INTRA.SOLV>
-2.37775

>  <SCORE.INTRA.SOLV.lig_0>
-63.2542

>  <SCORE.INTRA.VDW>
-1.41497

>  <SCORE.INTRA.VDW.0>
-3.15072

>  <SCORE.INTRA.norm>
-0.131698

>  <SCORE.RESTR>
0

>  <SCORE.RESTR.CAVITY>
0

>  <SCORE.RESTR.norm>
0

>  <SCORE.SYSTEM>
0

>  <SCORE.SYSTEM.CONST>
0

>  <SCORE.SYSTEM.DIHEDRAL>
0

>  <SCORE.SYSTEM.SOLV>
0

>  <SCORE.SYSTEM.norm>
0

>  <SCORE.heavy>
26

>  <SCORE.norm>
-0.844326

>  <RMSD>
2.743

$$$$
ligand
 OpenBabel11021811473D
libRbt.so/2013.1/901 2013/11/27
 26 27  0  0  0  0  0  0  0  0999 V2000
   -7.6551  -13.7032   23.7970 C   0  0  0  0  0  0  0  0  0  0  0  0
  -10.0008  -16.8904   26.5657 C   0  0  0  0  0  0  0  0  0  0  0  0
   -9.3467  -16.7165   25.3505 C   0  0  0  0  0  0  0  0  0  0  0  0
   -7.8907  -16.2584   25.2371 C   0  0  0  0  0  0  0  0  0  0  0  0
   -7.3509  -15.0611   23.1574 C   0  0  1  0  0  0  0  0  0  0  0  0
  -13.4041  -18.1143   25.3608 C   0  0  0  0  0  0  0  0  0  0  0  0
  -11.9620  -17.6051   25.3631 C   0  0  0  0  0  0  0  0  0  0  0  0
  -10.0515  -16.9970   24.1843 C   0  0  0  0  0  0  0  0  0  0  0  0
   -7.1457  -17.3284   23.1792 C   0  0  0  0  0  0  0  0  0  0  0  0
   -6.9278  -15.1781   21.8388 C   0  0  2  0  0  0  0  0  0  0  0  0
   -6.6646  -14.1129   20.7714 C   0  0  0  0  0  0  0  0  0  0  0  0
   -5.2475  -14.1816   20.1973 C   0  0  0  0  0  0  0  0  0  0  0  0
  -11.3228  -17.3397   26.5815 N   0  0  0  0  0  0  0  0  0  0  0  0
   -7.4595  -16.2088   23.8326 N   0  0  0  0  0  0  0  0  0  0  0  0
  -11.3010  -17.4219   24.2111 N   0  0  0  0  0  0  0  0  0  0  0  0
   -9.4195  -16.6539   27.6249 O   0  0  0  0  0  0  0  0  0  0  0  0
   -2.5325  -12.3792   20.0702 O   0  5  0  0  0  0  0  0  0  0  0  0
    0.0954  -13.2669   23.7716 O   0  0  0  0  0  0  0  0  0  0  0  0
   -4.2574  -13.9163   21.1958 O   0  0  0  0  0  0  0  0  0  0  0  0
   -1.8961  -13.6159   22.2044 O   0  0  0  0  0  0  0  0  0  0  0  0
    0.4063  -14.6205   21.5891 O   0  5  0  0  0  0  0  0  0  0  0  0
   -2.2108  -14.9435   20.0238 O   0  0  0  0  0  0  0  0  0  0  0  0
    0.0247  -12.0839   21.4986 O   0  0  0  0  0  0  0  0  0  0  0  0
   -6.7536  -16.8849   21.5390 S   0  0  0  0  0  0  0  0  0  0  0  0
   -2.6961  -13.7935   20.8209 P   0  0  2  0  0  0  0  0  0  0  0  0
   -0.2944  -13.4824   22.2249 P   0  0  2  0  0  0  0  0  0  0  0  0
  2 16  2  0  0  0  0
  2  3  1  0  0  0  0
  2 13  1  0  0  0  0
  3  8  2  0  0  0  0
  3  4  1  0  0  0  0
  4 14  1  0  0  0  0
  5  1  1  1  0  0  0
  5 14  1  0  0  0  0
  5 10  1  0  0  0  0
  6  7  1  0  0  0  0
  7 13  1  0  0  0  0
  7 15  2  0  0  0  0
  8 15  1  0  0  0  0
  9 14  1  0  0  0  0
  9 24  1  0  0  0  0
 10 24  1  0  0  0  0
 10 11  1  6  0  0  0
 11 12  1  0  0  0  0
 12 19  1  0  0  0  0
 17 25  1  0  0  0  0
 19 25  1  0  0  0  0
 20 26  1  0  0  0  0
 21 26  1  0  0  0  0
 22 25  2  0  0  0  0
 23 26  2  0  0  0  0
 25 20  1  1  0  0  0
 26 18  1  1  0  0  0
M  CHG  2  17  -1  21  -1
M  END
>  <CHROM.1>
178.07208161,123.73153189,-63.40477370,103.13143173,-174.26296710,-68.83877279
73.31638905,177.85465297,-5.70050882,-15.17573424,22.89565332,-2.74977205
-0.33816522,-1.48545117

>  <Name>
ligand

>  <RI>
0

>  <Rbt.Current_Directory>
/home/itssahil/PROJECTS/Mol_Feturizer/New_Systems/rnas/3D2X

>  <Rbt.Executable>
rbdock ($Id: //depot/dev/client3/rdock/2013.1/src/exe/rbdock.cxx#4 $)

>  <Rbt.Library>
libRbt.so (2013.1, Build901 2013/11/27)

>  <Rbt.Parameter_File>
/export/apps/rDock/src/rDock_2013.1_src/data/scripts/dock_solv.prm

>  <Rbt.Receptor>
prm/pocket_docking_6.prm

>  <SCORE>
-23.4122

>  <SCORE.INTER>
-22.2607

>  <SCORE.INTER.CONST>
1

>  <SCORE.INTER.POLAR>
0

>  <SCORE.INTER.ROT>
8

>  <SCORE.INTER.SOLV>
14.0716

>  <SCORE.INTER.VDW>
-28.4643

>  <SCORE.INTER.norm>
-0.85618

>  <SCORE.INTRA>
-1.15148

>  <SCORE.INTRA.DIHEDRAL>
-2.27998

>  <SCORE.INTRA.DIHEDRAL.0>
7.88077

>  <SCORE.INTRA.POLAR>
0

>  <SCORE.INTRA.POLAR.0>
0

>  <SCORE.INTRA.REPUL>
0

>  <SCORE.INTRA.REPUL.0>
0

>  <SCORE.INTRA.SOLV>
0.521613

>  <SCORE.INTRA.SOLV.lig_0>
-63.2542

>  <SCORE.INTRA.VDW>
-0.272295

>  <SCORE.INTRA.VDW.0>
-3.15072

>  <SCORE.INTRA.norm>
-0.0442877

>  <SCORE.RESTR>
0

>  <SCORE.RESTR.CAVITY>
0

>  <SCORE.RESTR.norm>
0

>  <SCORE.SYSTEM>
0

>  <SCORE.SYSTEM.CONST>
0

>  <SCORE.SYSTEM.DIHEDRAL>
0

>  <SCORE.SYSTEM.SOLV>
0

>  <SCORE.SYSTEM.norm>
0

>  <SCORE.heavy>
26

>  <SCORE.norm>
-0.900468

>  <RMSD>
2.746

$$$$
ligand
 OpenBabel11021811473D
libRbt.so/2013.1/901 2013/11/27
 26 27  0  0  0  0  0  0  0  0999 V2000
   -8.6206  -16.0889   20.0949 C   0  0  0  0  0  0  0  0  0  0  0  0
  -10.3269  -16.8016   25.2389 C   0  0  0  0  0  0  0  0  0  0  0  0
   -9.3680  -16.3575   24.3345 C   0  0  0  0  0  0  0  0  0  0  0  0
   -9.6560  -16.1267   22.8491 C   0  0  0  0  0  0  0  0  0  0  0  0
   -8.4089  -14.9438   21.0896 C   0  0  1  0  0  0  0  0  0  0  0  0
   -8.2955  -16.8129   28.4648 C   0  0  0  0  0  0  0  0  0  0  0  0
   -8.6806  -16.6634   26.9922 C   0  0  0  0  0  0  0  0  0  0  0  0
   -8.0907  -16.0901   24.8167 C   0  0  0  0  0  0  0  0  0  0  0  0
   -8.6666  -13.9151   23.1042 C   0  0  0  0  0  0  0  0  0  0  0  0
   -7.7126  -13.7900   20.7501 C   0  0  2  0  0  0  0  0  0  0  0  0
   -7.0424  -13.3719   19.4388 C   0  0  0  0  0  0  0  0  0  0  0  0
   -5.5176  -13.2966   19.5463 C   0  0  0  0  0  0  0  0  0  0  0  0
   -9.9883  -16.9585   26.5845 N   0  0  0  0  0  0  0  0  0  0  0  0
   -8.8933  -14.9803   22.3341 N   0  0  0  0  0  0  0  0  0  0  0  0
   -7.7818  -16.2416   26.0911 N   0  0  0  0  0  0  0  0  0  0  0  0
  -11.4710  -17.0527   24.8600 O   0  0  0  0  0  0  0  0  0  0  0  0
   -3.0541  -12.3550   16.6264 O   0  5  0  0  0  0  0  0  0  0  0  0
   -2.3646  -10.0326   17.7123 O   0  0  0  0  0  0  0  0  0  0  0  0
   -4.9188  -12.8819   18.3145 O   0  0  0  0  0  0  0  0  0  0  0  0
   -2.5712  -12.1585   19.1199 O   0  0  0  0  0  0  0  0  0  0  0  0
   -4.1535  -10.1643   19.5764 O   0  5  0  0  0  0  0  0  0  0  0  0
   -2.9214  -14.4863   18.0830 O   0  0  0  0  0  0  0  0  0  0  0  0
   -1.6625  -10.0160   20.1777 O   0  0  0  0  0  0  0  0  0  0  0  0
   -7.6839  -12.8051   22.1862 S   0  0  0  0  0  0  0  0  0  0  0  0
   -3.3428  -13.0671   18.0406 P   0  0  2  0  0  0  0  0  0  0  0  0
   -2.7883  -10.5667   19.1704 P   0  0  2  0  0  0  0  0  0  0  0  0
  2 16  2  0  0  0  0
  2  3  1  0  0  0  0
  2 13  1  0  0  0  0
  3  8  2  0  0  0  0
  3  4  1  0  0  0  0
  4 14  1  0  0  0  0
  5  1  1  6  0  0  0
  5 14  1  0  0  0  0
  5 10  1  0  0  0  0
  6  7  1  0  0  0  0
  7 13  1  0  0  0  0
  7 15  2  0  0  0  0
  8 15  1  0  0  0  0
  9 14  1  0  0  0  0
  9 24  1  0  0  0  0
 10 24  1  0  0  0  0
 10 11  1  1  0  0  0
 11 12  1  0  0  0  0
 12 19  1  0  0  0  0
 17 25  1  0  0  0  0
 19 25  1  0  0  0  0
 20 26  1  0  0  0  0
 21 26  1  0  0  0  0
 22 25  2  0  0  0  0
 23 26  2  0  0  0  0
 25 20  1  1  0  0  0
 26 18  1  6  0  0  0
M  CHG  2  17  -1  21  -1
M  END
>  <CHROM.1>
144.75720194,-112.62490478,-179.00292642,145.22989171,-164.69512330,51.37863501
-174.65420959,-58.57942030,-6.28491536,-13.80745797,21.37081545,2.43627649
0.64868554,1.56228329

>  <Name>
ligand

>  <RI>
0

>  <Rbt.Current_Directory>
/home/itssahil/PROJECTS/Mol_Feturizer/New_Systems/rnas/3D2X

>  <Rbt.Executable>
rbdock ($Id: //depot/dev/client3/rdock/2013.1/src/exe/rbdock.cxx#4 $)

>  <Rbt.Library>
libRbt.so (2013.1, Build901 2013/11/27)

>  <Rbt.Parameter_File>
/export/apps/rDock/src/rDock_2013.1_src/data/scripts/dock_solv.prm

>  <Rbt.Receptor>
prm/pocket_docking_2.prm

>  <SCORE>
-11.2449

>  <SCORE.INTER>
-12.0917

>  <SCORE.INTER.CONST>
1

>  <SCORE.INTER.POLAR>
0

>  <SCORE.INTER.ROT>
8

>  <SCORE.INTER.SOLV>
8.34271

>  <SCORE.INTER.VDW>
-19.7754

>  <SCORE.INTER.norm>
-0.465067

>  <SCORE.INTRA>
-0.942176

>  <SCORE.INTRA.DIHEDRAL>
-1.48101

>  <SCORE.INTRA.DIHEDRAL.0>
7.88077

>  <SCORE.INTRA.POLAR>
0

>  <SCORE.INTRA.POLAR.0>
0

>  <SCORE.INTRA.REPUL>
0

>  <SCORE.INTRA.REPUL.0>
0

>  <SCORE.INTRA.SOLV>
-1.28273

>  <SCORE.INTRA.SOLV.lig_0>
-63.2542

>  <SCORE.INTRA.VDW>
0.439692

>  <SCORE.INTRA.VDW.0>
-3.15072

>  <SCORE.INTRA.norm>
-0.0362375

>  <SCORE.RESTR>
1.78899

>  <SCORE.RESTR.CAVITY>
1.78899

>  <SCORE.RESTR.norm>
0.0688074

>  <SCORE.SYSTEM>
0

>  <SCORE.SYSTEM.CONST>
0

>  <SCORE.SYSTEM.DIHEDRAL>
0

>  <SCORE.SYSTEM.SOLV>
0

>  <SCORE.SYSTEM.norm>
0

>  <SCORE.heavy>
26

>  <SCORE.norm>
-0.432497

>  <RMSD>
2.749

$$$$
ligand
 OpenBabel11021811473D
libRbt.so/2013.1/901 2013/11/27
 26 27  0  0  0  0  0  0  0  0999 V2000
   -7.2060  -13.7452   22.6165 C   0  0  0  0  0  0  0  0  0  0  0  0
  -10.6218  -16.5857   23.6622 C   0  0  0  0  0  0  0  0  0  0  0  0
   -9.5810  -16.5407   24.5839 C   0  0  0  0  0  0  0  0  0  0  0  0
   -8.1957  -15.9755   24.2613 C   0  0  0  0  0  0  0  0  0  0  0  0
   -7.4216  -15.1609   22.0733 C   0  0  1  0  0  0  0  0  0  0  0  0
  -13.3931  -18.0863   25.8071 C   0  0  0  0  0  0  0  0  0  0  0  0
  -12.0337  -17.5449   25.3621 C   0  0  0  0  0  0  0  0  0  0  0  0
   -9.8266  -17.0144   25.8687 C   0  0  0  0  0  0  0  0  0  0  0  0
   -7.9937  -17.3562   22.2643 C   0  0  0  0  0  0  0  0  0  0  0  0
   -7.1509  -15.4937   20.7514 C   0  0  2  0  0  0  0  0  0  0  0  0
   -6.6143  -14.6482   19.5936 C   0  0  0  0  0  0  0  0  0  0  0  0
   -5.4444  -15.3116   18.8632 C   0  0  0  0  0  0  0  0  0  0  0  0
  -11.8652  -17.0913   24.0471 N   0  0  0  0  0  0  0  0  0  0  0  0
   -7.8668  -16.1599   22.8404 N   0  0  0  0  0  0  0  0  0  0  0  0
  -11.0063  -17.4899   26.2218 N   0  0  0  0  0  0  0  0  0  0  0  0
  -10.4529  -16.1793   22.5124 O   0  0  0  0  0  0  0  0  0  0  0  0
   -4.0622  -12.9964   19.6847 O   0  5  0  0  0  0  0  0  0  0  0  0
   -2.5176  -15.6034   18.7800 O   0  0  0  0  0  0  0  0  0  0  0  0
   -4.9532  -14.4943   17.7961 O   0  0  0  0  0  0  0  0  0  0  0  0
   -2.6485  -13.3408   17.5938 O   0  0  0  0  0  0  0  0  0  0  0  0
   -0.3992  -14.6148   17.6722 O   0  5  0  0  0  0  0  0  0  0  0  0
   -4.8074  -11.9507   17.4413 O   0  0  0  0  0  0  0  0  0  0  0  0
   -1.3688  -13.5498   19.7968 O   0  0  0  0  0  0  0  0  0  0  0  0
   -7.5840  -17.1718   20.5794 S   0  0  0  0  0  0  0  0  0  0  0  0
   -4.1643  -13.1202   18.0832 P   0  0  2  0  0  0  0  0  0  0  0  0
   -1.6474  -14.3027   18.4037 P   0  0  2  0  0  0  0  0  0  0  0  0
  2 16  2  0  0  0  0
  2  3  1  0  0  0  0
  2 13  1  0  0  0  0
  3  8  2  0  0  0  0
  3  4  1  0  0  0  0
  4 14  1  0  0  0  0
  5  1  1  1  0  0  0
  5 14  1  0  0  0  0
  5 10  1  0  0  0  0
  6  7  1  0  0  0  0
  7 13  1  0  0  0  0
  7 15  2  0  0  0  0
  8 15  1  0  0  0  0
  9 14  1  0  0  0  0
  9 24  1  0  0  0  0
 10 24  1  0  0  0  0
 10 11  1  6  0  0  0
 11 12  1  0  0  0  0
 12 19  1  0  0  0  0
 17 25  1  0  0  0  0
 19 25  1  0  0  0  0
 20 26  1  0  0  0  0
 21 26  1  0  0  0  0
 22 25  2  0  0  0  0
 23 26  2  0  0  0  0
 25 20  1  6  0  0  0
 26 18  1  1  0  0  0
M  CHG  2  17  -1  21  -1
M  END
>  <CHROM.1>
-30.02265920,130.45607299,-179.36390471,129.95955363,69.74437226,40.96978674
1.88648861,42.76965769,-6.47969939,-15.29273593,20.98428373,2.42316216,-0.04839580
2.09993230

>  <Name>
ligand

>  <RI>
0

>  <Rbt.Current_Directory>
/home/itssahil/PROJECTS/Mol_Feturizer/New_Systems/rnas/3D2X

>  <Rbt.Executable>
rbdock ($Id: //depot/dev/client3/rdock/2013.1/src/exe/rbdock.cxx#4 $)

>  <Rbt.Library>
libRbt.so (2013.1, Build901 2013/11/27)

>  <Rbt.Parameter_File>
/export/apps/rDock/src/rDock_2013.1_src/data/scripts/dock_solv.prm

>  <Rbt.Receptor>
prm/pocket_docking_4.prm

>  <SCORE>
-15.4714

>  <SCORE.INTER>
-16.6978

>  <SCORE.INTER.CONST>
1

>  <SCORE.INTER.POLAR>
0

>  <SCORE.INTER.ROT>
8

>  <SCORE.INTER.SOLV>
7.32324

>  <SCORE.INTER.VDW>
-22.5063

>  <SCORE.INTER.norm>
-0.642225

>  <SCORE.INTRA>
1.22641

>  <SCORE.INTRA.DIHEDRAL>
0.614738

>  <SCORE.INTRA.DIHEDRAL.0>
7.88077

>  <SCORE.INTRA.POLAR>
0

>  <SCORE.INTRA.POLAR.0>
0

>  <SCORE.INTRA.REPUL>
0

>  <SCORE.INTRA.REPUL.0>
0

>  <SCORE.INTRA.SOLV>
0.502478

>  <SCORE.INTRA.SOLV.lig_0>
-63.2542

>  <SCORE.INTRA.VDW>
0.667802

>  <SCORE.INTRA.VDW.0>
-3.15072

>  <SCORE.INTRA.norm>
0.0471696

>  <SCORE.RESTR>
0

>  <SCORE.RESTR.CAVITY>
0

>  <SCORE.RESTR.norm>
0

>  <SCORE.SYSTEM>
0

>  <SCORE.SYSTEM.CONST>
0

>  <SCORE.SYSTEM.DIHEDRAL>
0

>  <SCORE.SYSTEM.SOLV>
0

>  <SCORE.SYSTEM.norm>
0

>  <SCORE.heavy>
26

>  <SCORE.norm>
-0.595055

>  <RMSD>
2.755

$$$$
ligand
 OpenBabel11021811473D
libRbt.so/2013.1/901 2013/11/27
 26 27  0  0  0  0  0  0  0  0999 V2000
   -7.1527  -13.7253   25.0945 C   0  0  0  0  0  0  0  0  0  0  0  0
   -9.9042  -16.8533   26.2829 C   0  0  0  0  0  0  0  0  0  0  0  0
   -9.4438  -16.8425   24.9704 C   0  0  0  0  0  0  0  0  0  0  0  0
   -8.0030  -16.4964   24.5873 C   0  0  0  0  0  0  0  0  0  0  0  0
   -7.5905  -14.2329   23.7174 C   0  0  1  0  0  0  0  0  0  0  0  0
  -13.5140  -17.9572   25.7505 C   0  0  0  0  0  0  0  0  0  0  0  0
  -12.0657  -17.5481   25.4778 C   0  0  0  0  0  0  0  0  0  0  0  0
  -10.3387  -17.1870   23.9624 C   0  0  0  0  0  0  0  0  0  0  0  0
   -8.3057  -15.8318   22.2632 C   0  0  0  0  0  0  0  0  0  0  0  0
   -7.6061  -13.4098   22.5977 C   0  0  2  0  0  0  0  0  0  0  0  0
   -7.2274  -11.9360   22.4307 C   0  0  0  0  0  0  0  0  0  0  0  0
   -6.2728  -11.6949   21.2590 C   0  0  0  0  0  0  0  0  0  0  0  0
  -11.2280  -17.2092   26.5487 N   0  0  0  0  0  0  0  0  0  0  0  0
   -7.9675  -15.4975   23.5093 N   0  0  0  0  0  0  0  0  0  0  0  0
  -11.5881  -17.5224   24.2253 N   0  0  0  0  0  0  0  0  0  0  0  0
   -9.1504  -16.5546   27.2094 O   0  0  0  0  0  0  0  0  0  0  0  0
   -3.6326  -10.1304   20.3478 O   0  5  0  0  0  0  0  0  0  0  0  0
   -7.8903  -10.8656   18.4553 O   0  0  0  0  0  0  0  0  0  0  0  0
   -6.1180  -10.3001   20.9791 O   0  0  0  0  0  0  0  0  0  0  0  0
   -5.3380  -10.7255   18.5514 O   0  0  0  0  0  0  0  0  0  0  0  0
   -6.6443   -9.1692   16.9514 O   0  5  0  0  0  0  0  0  0  0  0  0
   -5.3065   -8.3429   19.5204 O   0  0  0  0  0  0  0  0  0  0  0  0
   -6.4818  -11.6865   16.4771 O   0  0  0  0  0  0  0  0  0  0  0  0
   -8.2091  -14.3885   21.2894 S   0  0  0  0  0  0  0  0  0  0  0  0
   -5.1159   -9.7782   19.8317 P   0  0  2  0  0  0  0  0  0  0  0  0
   -6.5932  -10.5126   17.5702 P   0  0  2  0  0  0  0  0  0  0  0  0
  2 16  2  0  0  0  0
  2  3  1  0  0  0  0
  2 13  1  0  0  0  0
  3  8  2  0  0  0  0
  3  4  1  0  0  0  0
  4 14  1  0  0  0  0
  5  1  1  6  0  0  0
  5 14  1  0  0  0  0
  5 10  1  0  0  0  0
  6  7  1  0  0  0  0
  7 13  1  0  0  0  0
  7 15  2  0  0  0  0
  8 15  1  0  0  0  0
  9 14  1  0  0  0  0
  9 24  1  0  0  0  0
 10 24  1  0  0  0  0
 10 11  1  1  0  0  0
 11 12  1  0  0  0  0
 12 19  1  0  0  0  0
 17 25  1  0  0  0  0
 19 25  1  0  0  0  0
 20 26  1  0  0  0  0
 21 26  1  0  0  0  0
 22 25  2  0  0  0  0
 23 26  2  0  0  0  0
 25 20  1  6  0  0  0
 26 18  1  1  0  0  0
M  CHG  2  17  -1  21  -1
M  END
>  <CHROM.1>
-130.61809206,130.07159340,169.88856223,108.33743443,177.33604843,-169.03702203
-67.06409152,-66.16181072,-7.76230251,-13.28007812,21.82635906,-2.17402170
-0.69701128,-1.19094966

>  <Name>
ligand

>  <RI>
0

>  <Rbt.Current_Directory>
/home/itssahil/PROJECTS/Mol_Feturizer/New_Systems/rnas/3D2X

>  <Rbt.Executable>
rbdock ($Id: //depot/dev/client3/rdock/2013.1/src/exe/rbdock.cxx#4 $)

>  <Rbt.Library>
libRbt.so (2013.1, Build901 2013/11/27)

>  <Rbt.Parameter_File>
/export/apps/rDock/src/rDock_2013.1_src/data/scripts/dock_solv.prm

>  <Rbt.Receptor>
prm/pocket_docking_4.prm

>  <SCORE>
-21.9721

>  <SCORE.INTER>
-19.4732

>  <SCORE.INTER.CONST>
1

>  <SCORE.INTER.POLAR>
0

>  <SCORE.INTER.ROT>
8

>  <SCORE.INTER.SOLV>
15.6092

>  <SCORE.INTER.VDW>
-27.1186

>  <SCORE.INTER.norm>
-0.748971

>  <SCORE.INTRA>
-2.49885

>  <SCORE.INTRA.DIHEDRAL>
-1.7813

>  <SCORE.INTRA.DIHEDRAL.0>
7.88077

>  <SCORE.INTRA.POLAR>
0

>  <SCORE.INTRA.POLAR.0>
0

>  <SCORE.INTRA.REPUL>
0

>  <SCORE.INTRA.REPUL.0>
0

>  <SCORE.INTRA.SOLV>
-2.45769

>  <SCORE.INTRA.SOLV.lig_0>
-63.2542

>  <SCORE.INTRA.VDW>
-0.379358

>  <SCORE.INTRA.VDW.0>
-3.15072

>  <SCORE.INTRA.norm>
-0.0961098

>  <SCORE.RESTR>
0

>  <SCORE.RESTR.CAVITY>
0

>  <SCORE.RESTR.norm>
0

>  <SCORE.SYSTEM>
0

>  <SCORE.SYSTEM.CONST>
0

>  <SCORE.SYSTEM.DIHEDRAL>
0

>  <SCORE.SYSTEM.SOLV>
0

>  <SCORE.SYSTEM.norm>
0

>  <SCORE.heavy>
26

>  <SCORE.norm>
-0.845081

>  <RMSD>
2.768

$$$$
ligand
 OpenBabel11021811473D
libRbt.so/2013.1/901 2013/11/27
 26 27  0  0  0  0  0  0  0  0999 V2000
   -8.0389  -16.6883   21.9049 C   0  0  0  0  0  0  0  0  0  0  0  0
  -10.0844  -16.7949   26.4327 C   0  0  0  0  0  0  0  0  0  0  0  0
   -9.5308  -16.9220   25.1630 C   0  0  0  0  0  0  0  0  0  0  0  0
   -8.0699  -16.5940   24.8458 C   0  0  0  0  0  0  0  0  0  0  0  0
   -7.9437  -15.3868   22.7065 C   0  0  1  0  0  0  0  0  0  0  0  0
  -13.6346  -18.0183   25.7751 C   0  0  0  0  0  0  0  0  0  0  0  0
  -12.1748  -17.6153   25.5608 C   0  0  0  0  0  0  0  0  0  0  0  0
  -10.3470  -17.3933   24.1397 C   0  0  0  0  0  0  0  0  0  0  0  0
   -7.8994  -14.1732   24.6322 C   0  0  0  0  0  0  0  0  0  0  0  0
   -7.8451  -14.1452   22.0898 C   0  0  2  0  0  0  0  0  0  0  0  0
   -7.8156  -13.7604   20.6084 C   0  0  0  0  0  0  0  0  0  0  0  0
   -6.4122  -13.8308   20.0021 C   0  0  0  0  0  0  0  0  0  0  0  0
  -11.4201  -17.1435   26.6430 N   0  0  0  0  0  0  0  0  0  0  0  0
   -7.9653  -15.3676   24.0421 N   0  0  0  0  0  0  0  0  0  0  0  0
  -11.6085  -17.7205   24.3500 N   0  0  0  0  0  0  0  0  0  0  0  0
   -9.4026  -16.3808   27.3705 O   0  0  0  0  0  0  0  0  0  0  0  0
   -3.1241  -12.4049   21.5950 O   0  5  0  0  0  0  0  0  0  0  0  0
   -4.9917  -16.3487   19.6085 O   0  0  0  0  0  0  0  0  0  0  0  0
   -5.4608  -13.0978   20.7800 O   0  0  0  0  0  0  0  0  0  0  0  0
   -3.3629  -14.4307   20.0691 O   0  0  0  0  0  0  0  0  0  0  0  0
   -4.5237  -14.5964   17.7639 O   0  5  0  0  0  0  0  0  0  0  0  0
   -3.7837  -12.0784   19.1171 O   0  0  0  0  0  0  0  0  0  0  0  0
   -2.7130  -16.2869   18.4361 O   0  0  0  0  0  0  0  0  0  0  0  0
   -7.7153  -12.9780   23.3759 S   0  0  0  0  0  0  0  0  0  0  0  0
   -3.9284  -12.9447   20.3095 P   0  0  2  0  0  0  0  0  0  0  0  0
   -3.9440  -15.3587   18.8923 P   0  0  2  0  0  0  0  0  0  0  0  0
  2 16  2  0  0  0  0
  2  3  1  0  0  0  0
  2 13  1  0  0  0  0
  3  8  2  0  0  0  0
  3  4  1  0  0  0  0
  4 14  1  0  0  0  0
  5  1  1  6  0  0  0
  5 14  1  0  0  0  0
  5 10  1  0  0  0  0
  6  7  1  0  0  0  0
  7 13  1  0  0  0  0
  7 15  2  0  0  0  0
  8 15  1  0  0  0  0
  9 14  1  0  0  0  0
  9 24  1  0  0  0  0
 10 24  1  0  0  0  0
 10 11  1  6  0  0  0
 11 12  1  0  0  0  0
 12 19  1  0  0  0  0
 17 25  1  0  0  0  0
 19 25  1  0  0  0  0
 20 26  1  0  0  0  0
 21 26  1  0  0  0  0
 22 25  2  0  0  0  0
 23 26  2  0  0  0  0
 25 20  1  6  0  0  0
 26 18  1  1  0  0  0
M  CHG  2  17  -1  21  -1
M  END
>  <CHROM.1>
-108.96506273,-85.42376220,-51.80860490,-91.94607588,-176.43143651,177.95680065
-165.82506230,-99.50596937,-7.02518269,-15.08205156,22.21528921,2.99418477
0.76632139,0.65371420

>  <Name>
ligand

>  <RI>
0

>  <Rbt.Current_Directory>
/home/itssahil/PROJECTS/Mol_Feturizer/New_Systems/rnas/3D2X

>  <Rbt.Executable>
rbdock ($Id: //depot/dev/client3/rdock/2013.1/src/exe/rbdock.cxx#4 $)

>  <Rbt.Library>
libRbt.so (2013.1, Build901 2013/11/27)

>  <Rbt.Parameter_File>
/export/apps/rDock/src/rDock_2013.1_src/data/scripts/dock_solv.prm

>  <Rbt.Receptor>
prm/pocket_docking_2.prm

>  <SCORE>
-18.8627

>  <SCORE.INTER>
-18.5314

>  <SCORE.INTER.CONST>
1

>  <SCORE.INTER.POLAR>
0

>  <SCORE.INTER.ROT>
8

>  <SCORE.INTER.SOLV>
10.0758

>  <SCORE.INTER.VDW>
-24.6462

>  <SCORE.INTER.norm>
-0.712746

>  <SCORE.INTRA>
-1.58618

>  <SCORE.INTRA.DIHEDRAL>
-1.13397

>  <SCORE.INTRA.DIHEDRAL.0>
7.88077

>  <SCORE.INTRA.POLAR>
0

>  <SCORE.INTRA.POLAR.0>
0

>  <SCORE.INTRA.REPUL>
0

>  <SCORE.INTRA.REPUL.0>
0

>  <SCORE.INTRA.SOLV>
-1.00395

>  <SCORE.INTRA.SOLV.lig_0>
-63.2542

>  <SCORE.INTRA.VDW>
-0.517226

>  <SCORE.INTRA.VDW.0>
-3.15072

>  <SCORE.INTRA.norm>
-0.0610071

>  <SCORE.RESTR>
1.25486

>  <SCORE.RESTR.CAVITY>
1.25486

>  <SCORE.RESTR.norm>
0.0482638

>  <SCORE.SYSTEM>
0

>  <SCORE.SYSTEM.CONST>
0

>  <SCORE.SYSTEM.DIHEDRAL>
0

>  <SCORE.SYSTEM.SOLV>
0

>  <SCORE.SYSTEM.norm>
0

>  <SCORE.heavy>
26

>  <SCORE.norm>
-0.72549

>  <RMSD>
2.825

$$$$
ligand
 OpenBabel11021811473D
libRbt.so/2013.1/901 2013/11/27
 26 27  0  0  0  0  0  0  0  0999 V2000
   -7.3169  -17.3158   23.0036 C   0  0  0  0  0  0  0  0  0  0  0  0
  -10.1472  -17.0649   26.6521 C   0  0  0  0  0  0  0  0  0  0  0  0
   -9.5736  -16.5691   25.4860 C   0  0  0  0  0  0  0  0  0  0  0  0
   -8.1897  -15.9169   25.4408 C   0  0  0  0  0  0  0  0  0  0  0  0
   -7.5844  -15.8089   23.0592 C   0  0  1  0  0  0  0  0  0  0  0  0
  -13.4293  -18.4430   25.2878 C   0  0  0  0  0  0  0  0  0  0  0  0
  -12.0601  -17.7661   25.3666 C   0  0  0  0  0  0  0  0  0  0  0  0
  -10.2910  -16.6966   24.3008 C   0  0  0  0  0  0  0  0  0  0  0  0
   -8.2104  -13.8831   24.0998 C   0  0  0  0  0  0  0  0  0  0  0  0
   -7.4405  -14.9917   21.9443 C   0  0  2  0  0  0  0  0  0  0  0  0
   -7.0312  -15.3197   20.5062 C   0  0  0  0  0  0  0  0  0  0  0  0
   -7.5074  -14.2721   19.4972 C   0  0  0  0  0  0  0  0  0  0  0  0
  -11.4036  -17.6721   26.6010 N   0  0  0  0  0  0  0  0  0  0  0  0
   -7.9857  -15.1956   24.1762 N   0  0  0  0  0  0  0  0  0  0  0  0
  -11.4780  -17.2730   24.2640 N   0  0  0  0  0  0  0  0  0  0  0  0
   -9.5518  -16.9744   27.7259 O   0  0  0  0  0  0  0  0  0  0  0  0
   -6.2687  -10.5689   19.1557 O   0  5  0  0  0  0  0  0  0  0  0  0
   -5.9184  -10.7980   15.7358 O   0  0  0  0  0  0  0  0  0  0  0  0
   -6.8442  -13.0177   19.6819 O   0  0  0  0  0  0  0  0  0  0  0  0
   -5.3739  -12.4132   17.6432 O   0  0  0  0  0  0  0  0  0  0  0  0
   -3.9666  -12.4755   15.4743 O   0  5  0  0  0  0  0  0  0  0  0  0
   -7.8899  -11.8783   17.6263 O   0  0  0  0  0  0  0  0  0  0  0  0
   -6.3963  -13.3030   15.4759 O   0  0  0  0  0  0  0  0  0  0  0  0
   -7.7990  -13.3748   22.4833 S   0  0  0  0  0  0  0  0  0  0  0  0
   -6.6776  -11.9676   18.4724 P   0  0  2  0  0  0  0  0  0  0  0  0
   -5.3149  -12.2578   16.0445 P   0  0  2  0  0  0  0  0  0  0  0  0
  2 16  2  0  0  0  0
  2  3  1  0  0  0  0
  2 13  1  0  0  0  0
  3  8  2  0  0  0  0
  3  4  1  0  0  0  0
  4 14  1  0  0  0  0
  5  1  1  6  0  0  0
  5 14  1  0  0  0  0
  5 10  1  0  0  0  0
  6  7  1  0  0  0  0
  7 13  1  0  0  0  0
  7 15  2  0  0  0  0
  8 15  1  0  0  0  0
  9 14  1  0  0  0  0
  9 24  1  0  0  0  0
 10 24  1  0  0  0  0
 10 11  1  1  0  0  0
 11 12  1  0  0  0  0
 12 19  1  0  0  0  0
 17 25  1  0  0  0  0
 19 25  1  0  0  0  0
 20 26  1  0  0  0  0
 21 26  1  0  0  0  0
 22 25  2  0  0  0  0
 23 26  2  0  0  0  0
 25 20  1  6  0  0  0
 26 18  1  6  0  0  0
M  CHG  2  17  -1  21  -1
M  END
>  <CHROM.1>
-165.76577599,157.75328929,67.34087859,-83.28243751,154.65019605,-103.82945570
164.77853718,44.13181525,-7.86265209,-14.36009945,21.21126594,2.15206763
0.71656168,1.67861975

>  <Name>
ligand

>  <RI>
0

>  <Rbt.Current_Directory>
/home/itssahil/PROJECTS/Mol_Feturizer/New_Systems/rnas/3D2X

>  <Rbt.Executable>
rbdock ($Id: //depot/dev/client3/rdock/2013.1/src/exe/rbdock.cxx#4 $)

>  <Rbt.Library>
libRbt.so (2013.1, Build901 2013/11/27)

>  <Rbt.Parameter_File>
/export/apps/rDock/src/rDock_2013.1_src/data/scripts/dock_solv.prm

>  <Rbt.Receptor>
prm/pocket_docking_5.prm

>  <SCORE>
-22.5663

>  <SCORE.INTER>
-23.2038

>  <SCORE.INTER.CONST>
1

>  <SCORE.INTER.POLAR>
0

>  <SCORE.INTER.ROT>
8

>  <SCORE.INTER.SOLV>
15.9695

>  <SCORE.INTER.VDW>
-29.7257

>  <SCORE.INTER.norm>
-0.892454

>  <SCORE.INTRA>
0.637499

>  <SCORE.INTRA.DIHEDRAL>
2.28512

>  <SCORE.INTRA.DIHEDRAL.0>
7.88077

>  <SCORE.INTRA.POLAR>
0

>  <SCORE.INTRA.POLAR.0>
0

>  <SCORE.INTRA.REPUL>
0

>  <SCORE.INTRA.REPUL.0>
0

>  <SCORE.INTRA.SOLV>
-1.46675

>  <SCORE.INTRA.SOLV.lig_0>
-63.2542

>  <SCORE.INTRA.VDW>
0.228313

>  <SCORE.INTRA.VDW.0>
-3.15072

>  <SCORE.INTRA.norm>
0.0245192

>  <SCORE.RESTR>
0

>  <SCORE.RESTR.CAVITY>
0

>  <SCORE.RESTR.norm>
0

>  <SCORE.SYSTEM>
0

>  <SCORE.SYSTEM.CONST>
0

>  <SCORE.SYSTEM.DIHEDRAL>
0

>  <SCORE.SYSTEM.SOLV>
0

>  <SCORE.SYSTEM.norm>
0

>  <SCORE.heavy>
26

>  <SCORE.norm>
-0.867935

>  <RMSD>
2.851

$$$$
ligand
 OpenBabel11021811473D
libRbt.so/2013.1/901 2013/11/27
 26 27  0  0  0  0  0  0  0  0999 V2000
   -6.6341  -17.3057   22.4663 C   0  0  0  0  0  0  0  0  0  0  0  0
  -10.3538  -16.6084   25.7119 C   0  0  0  0  0  0  0  0  0  0  0  0
  -10.1735  -16.4744   24.3392 C   0  0  0  0  0  0  0  0  0  0  0  0
   -8.9013  -15.9014   23.7101 C   0  0  0  0  0  0  0  0  0  0  0  0
   -7.8416  -16.7918   21.6767 C   0  0  1  0  0  0  0  0  0  0  0  0
  -13.8091  -18.2158   25.8112 C   0  0  0  0  0  0  0  0  0  0  0  0
  -12.5162  -17.5841   25.2931 C   0  0  0  0  0  0  0  0  0  0  0  0
  -11.1968  -16.9063   23.5016 C   0  0  0  0  0  0  0  0  0  0  0  0
   -9.8711  -15.7794   21.4786 C   0  0  0  0  0  0  0  0  0  0  0  0
   -7.9536  -16.9657   20.3024 C   0  0  2  0  0  0  0  0  0  0  0  0
   -7.0207  -17.6472   19.2981 C   0  0  0  0  0  0  0  0  0  0  0  0
   -5.6116  -17.0498   19.2931 C   0  0  0  0  0  0  0  0  0  0  0  0
  -11.5348  -17.1688   26.2029 N   0  0  0  0  0  0  0  0  0  0  0  0
   -8.8629  -16.1615   22.2637 N   0  0  0  0  0  0  0  0  0  0  0  0
  -12.3091  -17.4352   23.9768 N   0  0  0  0  0  0  0  0  0  0  0  0
   -9.4773  -16.2395   26.4938 O   0  0  0  0  0  0  0  0  0  0  0  0
   -3.0811  -16.6462   16.9784 O   0  5  0  0  0  0  0  0  0  0  0  0
   -3.5534  -12.4883   15.2182 O   0  0  0  0  0  0  0  0  0  0  0  0
   -5.3621  -16.2892   18.1070 O   0  0  0  0  0  0  0  0  0  0  0  0
   -4.1993  -14.3618   16.8357 O   0  0  0  0  0  0  0  0  0  0  0  0
   -2.7215  -12.4087   17.6664 O   0  5  0  0  0  0  0  0  0  0  0  0
   -3.2660  -15.1701   19.0923 O   0  0  0  0  0  0  0  0  0  0  0  0
   -1.7813  -14.1516   16.0334 O   0  0  0  0  0  0  0  0  0  0  0  0
   -9.4428  -16.1907   19.8391 S   0  0  0  0  0  0  0  0  0  0  0  0
   -3.9364  -15.5897   17.8402 P   0  0  2  0  0  0  0  0  0  0  0  0
   -3.0465  -13.2870   16.5204 P   0  0  2  0  0  0  0  0  0  0  0  0
  2 16  2  0  0  0  0
  2  3  1  0  0  0  0
  2 13  1  0  0  0  0
  3  8  2  0  0  0  0
  3  4  1  0  0  0  0
  4 14  1  0  0  0  0
  5  1  1  1  0  0  0
  5 14  1  0  0  0  0
  5 10  1  0  0  0  0
  6  7  1  0  0  0  0
  7 13  1  0  0  0  0
  7 15  2  0  0  0  0
  8 15  1  0  0  0  0
  9 14  1  0  0  0  0
  9 24  1  0  0  0  0
 10 24  1  0  0  0  0
 10 11  1  6  0  0  0
 11 12  1  0  0  0  0
 12 19  1  0  0  0  0
 17 25  1  0  0  0  0
 19 25  1  0  0  0  0
 20 26  1  0  0  0  0
 21 26  1  0  0  0  0
 22 25  2  0  0  0  0
 23 26  2  0  0  0  0
 25 20  1  6  0  0  0
 26 18  1  6  0  0  0
M  CHG  2  17  -1  21  -1
M  END
>  <CHROM.1>
166.99798346,-57.37742661,-108.33349114,-124.52679542,-178.30361650,-77.58534849
93.10167746,165.34815044,-7.04636740,-15.84525716,20.48037033,-2.44008316
-0.44199608,-1.69633068

>  <Name>
ligand

>  <RI>
0

>  <Rbt.Current_Directory>
/home/itssahil/PROJECTS/Mol_Feturizer/New_Systems/rnas/3D2X

>  <Rbt.Executable>
rbdock ($Id: //depot/dev/client3/rdock/2013.1/src/exe/rbdock.cxx#4 $)

>  <Rbt.Library>
libRbt.so (2013.1, Build901 2013/11/27)

>  <Rbt.Parameter_File>
/export/apps/rDock/src/rDock_2013.1_src/data/scripts/dock_solv.prm

>  <Rbt.Receptor>
prm/pocket_docking_4.prm

>  <SCORE>
-20.9515

>  <SCORE.INTER>
-24.2815

>  <SCORE.INTER.CONST>
1

>  <SCORE.INTER.POLAR>
0

>  <SCORE.INTER.ROT>
8

>  <SCORE.INTER.SOLV>
13.1901

>  <SCORE.INTER.VDW>
-29.5177

>  <SCORE.INTER.norm>
-0.933906

>  <SCORE.INTRA>
3.33003

>  <SCORE.INTRA.DIHEDRAL>
3.36559

>  <SCORE.INTRA.DIHEDRAL.0>
7.88077

>  <SCORE.INTRA.POLAR>
0

>  <SCORE.INTRA.POLAR.0>
0

>  <SCORE.INTRA.REPUL>
0

>  <SCORE.INTRA.REPUL.0>
0

>  <SCORE.INTRA.SOLV>
0.465517

>  <SCORE.INTRA.SOLV.lig_0>
-63.2542

>  <SCORE.INTRA.VDW>
1.41448

>  <SCORE.INTRA.VDW.0>
-3.15072

>  <SCORE.INTRA.norm>
0.128078

>  <SCORE.RESTR>
0

>  <SCORE.RESTR.CAVITY>
0

>  <SCORE.RESTR.norm>
0

>  <SCORE.SYSTEM>
0

>  <SCORE.SYSTEM.CONST>
0

>  <SCORE.SYSTEM.DIHEDRAL>
0

>  <SCORE.SYSTEM.SOLV>
0

>  <SCORE.SYSTEM.norm>
0

>  <SCORE.heavy>
26

>  <SCORE.norm>
-0.805828

>  <RMSD>
2.862

$$$$
ligand
 OpenBabel11021811473D
libRbt.so/2013.1/901 2013/11/27
 26 27  0  0  0  0  0  0  0  0999 V2000
   -7.2435  -13.6212   20.0517 C   0  0  0  0  0  0  0  0  0  0  0  0
   -8.4808  -14.8347   23.6276 C   0  0  0  0  0  0  0  0  0  0  0  0
   -9.4145  -15.4018   22.7666 C   0  0  0  0  0  0  0  0  0  0  0  0
   -9.4950  -15.0679   21.2751 C   0  0  0  0  0  0  0  0  0  0  0  0
   -7.4246  -15.1385   19.9489 C   0  0  1  0  0  0  0  0  0  0  0  0
   -9.3598  -16.6117   26.8837 C   0  0  0  0  0  0  0  0  0  0  0  0
   -9.3818  -16.1682   25.4202 C   0  0  0  0  0  0  0  0  0  0  0  0
  -10.3022  -16.3361   23.2908 C   0  0  0  0  0  0  0  0  0  0  0  0
   -8.4940  -17.1012   20.3815 C   0  0  0  0  0  0  0  0  0  0  0  0
   -6.5197  -15.9459   19.2702 C   0  0  2  0  0  0  0  0  0  0  0  0
   -5.2286  -15.5989   18.5246 C   0  0  0  0  0  0  0  0  0  0  0  0
   -4.2253  -14.8362   19.3929 C   0  0  0  0  0  0  0  0  0  0  0  0
   -8.4567  -15.2166   24.9705 N   0  0  0  0  0  0  0  0  0  0  0  0
   -8.4523  -15.7750   20.5176 N   0  0  0  0  0  0  0  0  0  0  0  0
  -10.2700  -16.6902   24.5621 N   0  0  0  0  0  0  0  0  0  0  0  0
   -7.6751  -14.0022   23.2110 O   0  0  0  0  0  0  0  0  0  0  0  0
   -1.0120  -13.0498   18.0335 O   0  5  0  0  0  0  0  0  0  0  0  0
   -2.0247  -10.4632   17.9192 O   0  0  0  0  0  0  0  0  0  0  0  0
   -3.0451  -14.4910   18.6611 O   0  0  0  0  0  0  0  0  0  0  0  0
   -2.7044  -12.1545   19.7139 O   0  0  0  0  0  0  0  0  0  0  0  0
   -2.6959   -9.6298   20.2744 O   0  5  0  0  0  0  0  0  0  0  0  0
   -1.1743  -14.1103   20.3852 O   0  0  0  0  0  0  0  0  0  0  0  0
   -0.4900  -10.8952   19.9264 O   0  0  0  0  0  0  0  0  0  0  0  0
   -7.1481  -17.5668   19.3753 S   0  0  0  0  0  0  0  0  0  0  0  0
   -1.9361  -13.4967   19.2732 P   0  0  2  0  0  0  0  0  0  0  0  0
   -2.0317  -10.7090   19.5099 P   0  0  2  0  0  0  0  0  0  0  0  0
  2 16  2  0  0  0  0
  2  3  1  0  0  0  0
  2 13  1  0  0  0  0
  3  8  2  0  0  0  0
  3  4  1  0  0  0  0
  4 14  1  0  0  0  0
  5  1  1  1  0  0  0
  5 14  1  0  0  0  0
  5 10  1  0  0  0  0
  6  7  1  0  0  0  0
  7 13  1  0  0  0  0
  7 15  2  0  0  0  0
  8 15  1  0  0  0  0
  9 14  1  0  0  0  0
  9 24  1  0  0  0  0
 10 24  1  0  0  0  0
 10 11  1  6  0  0  0
 11 12  1  0  0  0  0
 12 19  1  0  0  0  0
 17 25  1  0  0  0  0
 19 25  1  0  0  0  0
 20 26  1  0  0  0  0
 21 26  1  0  0  0  0
 22 25  2  0  0  0  0
 23 26  2  0  0  0  0
 25 20  1  1  0  0  0
 26 18  1  6  0  0  0
M  CHG  2  17  -1  21  -1
M  END
>  <CHROM.1>
78.24512757,55.39323562,-178.31381445,-111.24658277,170.54993418,-29.86428371
-164.78627686,70.04190387,-5.47808672,-14.24535767,20.76768550,3.04677588
0.67201776,0.94042382

>  <Name>
ligand

>  <RI>
0

>  <Rbt.Current_Directory>
/home/itssahil/PROJECTS/Mol_Feturizer/New_Systems/rnas/3D2X

>  <Rbt.Executable>
rbdock ($Id: //depot/dev/client3/rdock/2013.1/src/exe/rbdock.cxx#4 $)

>  <Rbt.Library>
libRbt.so (2013.1, Build901 2013/11/27)

>  <Rbt.Parameter_File>
/export/apps/rDock/src/rDock_2013.1_src/data/scripts/dock_solv.prm

>  <Rbt.Receptor>
prm/pocket_docking_3.prm

>  <SCORE>
-15.478

>  <SCORE.INTER>
-14.752

>  <SCORE.INTER.CONST>
1

>  <SCORE.INTER.POLAR>
0

>  <SCORE.INTER.ROT>
8

>  <SCORE.INTER.SOLV>
8.01813

>  <SCORE.INTER.VDW>
-21.4407

>  <SCORE.INTER.norm>
-0.567384

>  <SCORE.INTRA>
-0.789139

>  <SCORE.INTRA.DIHEDRAL>
-0.935202

>  <SCORE.INTRA.DIHEDRAL.0>
7.88077

>  <SCORE.INTRA.POLAR>
0

>  <SCORE.INTRA.POLAR.0>
0

>  <SCORE.INTRA.REPUL>
0

>  <SCORE.INTRA.REPUL.0>
0

>  <SCORE.INTRA.SOLV>
-0.340774

>  <SCORE.INTRA.SOLV.lig_0>
-63.2542

>  <SCORE.INTRA.VDW>
-0.151151

>  <SCORE.INTRA.VDW.0>
-3.15072

>  <SCORE.INTRA.norm>
-0.0303515

>  <SCORE.RESTR>
0.063106

>  <SCORE.RESTR.CAVITY>
0.063106

>  <SCORE.RESTR.norm>
0.00242716

>  <SCORE.SYSTEM>
0

>  <SCORE.SYSTEM.CONST>
0

>  <SCORE.SYSTEM.DIHEDRAL>
0

>  <SCORE.SYSTEM.SOLV>
0

>  <SCORE.SYSTEM.norm>
0

>  <SCORE.heavy>
26

>  <SCORE.norm>
-0.595308

>  <RMSD>
2.882

$$$$
ligand
 OpenBabel11021811473D
libRbt.so/2013.1/901 2013/11/27
 26 27  0  0  0  0  0  0  0  0999 V2000
   -7.6591  -13.5330   23.5481 C   0  0  0  0  0  0  0  0  0  0  0  0
  -10.4829  -16.6637   24.0507 C   0  0  0  0  0  0  0  0  0  0  0  0
   -9.7738  -16.4658   25.2309 C   0  0  0  0  0  0  0  0  0  0  0  0
   -8.4018  -15.7897   25.2845 C   0  0  0  0  0  0  0  0  0  0  0  0
   -7.3167  -14.9908   23.2266 C   0  0  1  0  0  0  0  0  0  0  0  0
  -13.6510  -18.2977   25.4020 C   0  0  0  0  0  0  0  0  0  0  0  0
  -12.2650  -17.6547   25.3334 C   0  0  0  0  0  0  0  0  0  0  0  0
  -10.3583  -16.8862   26.4214 C   0  0  0  0  0  0  0  0  0  0  0  0
   -7.2872  -17.2252   23.6621 C   0  0  0  0  0  0  0  0  0  0  0  0
   -6.6139  -15.3492   22.0826 C   0  0  2  0  0  0  0  0  0  0  0  0
   -6.0376  -14.4952   20.9503 C   0  0  0  0  0  0  0  0  0  0  0  0
   -4.9692  -13.5104   21.4309 C   0  0  0  0  0  0  0  0  0  0  0  0
  -11.7432  -17.2635   24.0933 N   0  0  0  0  0  0  0  0  0  0  0  0
   -7.6594  -15.9993   24.0330 N   0  0  0  0  0  0  0  0  0  0  0  0
  -11.5508  -17.4517   26.4499 N   0  0  0  0  0  0  0  0  0  0  0  0
  -10.0069  -16.3099   22.9718 O   0  0  0  0  0  0  0  0  0  0  0  0
   -4.6726  -10.7676   19.8621 O   0  5  0  0  0  0  0  0  0  0  0  0
   -8.1459  -12.4855   17.4126 O   0  0  0  0  0  0  0  0  0  0  0  0
   -5.5346  -12.2435   21.7813 O   0  0  0  0  0  0  0  0  0  0  0  0
   -6.8754  -12.0163   19.5826 O   0  0  0  0  0  0  0  0  0  0  0  0
   -7.7235  -10.0407   18.1451 O   0  5  0  0  0  0  0  0  0  0  0  0
   -6.7447  -10.0423   21.2267 O   0  0  0  0  0  0  0  0  0  0  0  0
   -5.7789  -11.5049   17.3308 O   0  0  0  0  0  0  0  0  0  0  0  0
   -6.5005  -17.0869   22.1120 S   0  0  0  0  0  0  0  0  0  0  0  0
   -6.0066  -11.1925   20.6562 P   0  0  2  0  0  0  0  0  0  0  0  0
   -7.1755  -11.4154   18.1224 P   0  0  2  0  0  0  0  0  0  0  0  0
  2 16  2  0  0  0  0
  2  3  1  0  0  0  0
  2 13  1  0  0  0  0
  3  8  2  0  0  0  0
  3  4  1  0  0  0  0
  4 14  1  0  0  0  0
  5  1  1  1  0  0  0
  5 14  1  0  0  0  0
  5 10  1  0  0  0  0
  6  7  1  0  0  0  0
  7 13  1  0  0  0  0
  7 15  2  0  0  0  0
  8 15  1  0  0  0  0
  9 14  1  0  0  0  0
  9 24  1  0  0  0  0
 10 24  1  0  0  0  0
 10 11  1  6  0  0  0
 11 12  1  0  0  0  0
 12 19  1  0  0  0  0
 17 25  1  0  0  0  0
 19 25  1  0  0  0  0
 20 26  1  0  0  0  0
 21 26  1  0  0  0  0
 22 25  2  0  0  0  0
 23 26  2  0  0  0  0
 25 20  1  6  0  0  0
 26 18  1  6  0  0  0
M  CHG  2  17  -1  21  -1
M  END
>  <CHROM.1>
-28.82576492,61.99686777,-91.32307651,116.33652693,-75.53250290,-50.86538323
-64.12816553,-176.09013694,-7.85355920,-14.18650791,21.92636904,-2.05014153
-0.08885983,-0.82614479

>  <Name>
ligand

>  <RI>
0

>  <Rbt.Current_Directory>
/home/itssahil/PROJECTS/Mol_Feturizer/New_Systems/rnas/3D2X

>  <Rbt.Executable>
rbdock ($Id: //depot/dev/client3/rdock/2013.1/src/exe/rbdock.cxx#4 $)

>  <Rbt.Library>
libRbt.so (2013.1, Build901 2013/11/27)

>  <Rbt.Parameter_File>
/export/apps/rDock/src/rDock_2013.1_src/data/scripts/dock_solv.prm

>  <Rbt.Receptor>
prm/pocket_docking_4.prm

>  <SCORE>
-20.6387

>  <SCORE.INTER>
-21.7744

>  <SCORE.INTER.CONST>
1

>  <SCORE.INTER.POLAR>
0

>  <SCORE.INTER.ROT>
8

>  <SCORE.INTER.SOLV>
10.4623

>  <SCORE.INTER.VDW>
-26.937

>  <SCORE.INTER.norm>
-0.837477

>  <SCORE.INTRA>
1.1357

>  <SCORE.INTRA.DIHEDRAL>
1.27072

>  <SCORE.INTRA.DIHEDRAL.0>
7.88077

>  <SCORE.INTRA.POLAR>
0

>  <SCORE.INTRA.POLAR.0>
0

>  <SCORE.INTRA.REPUL>
0

>  <SCORE.INTRA.REPUL.0>
0

>  <SCORE.INTRA.SOLV>
2.2283

>  <SCORE.INTRA.SOLV.lig_0>
-63.2542

>  <SCORE.INTRA.VDW>
-0.613803

>  <SCORE.INTRA.VDW.0>
-3.15072

>  <SCORE.INTRA.norm>
0.0436809

>  <SCORE.RESTR>
0

>  <SCORE.RESTR.CAVITY>
0

>  <SCORE.RESTR.norm>
0

>  <SCORE.SYSTEM>
0

>  <SCORE.SYSTEM.CONST>
0

>  <SCORE.SYSTEM.DIHEDRAL>
0

>  <SCORE.SYSTEM.SOLV>
0

>  <SCORE.SYSTEM.norm>
0

>  <SCORE.heavy>
26

>  <SCORE.norm>
-0.793796

>  <RMSD>
2.896

$$$$
ligand
 OpenBabel11021811473D
libRbt.so/2013.1/901 2013/11/27
 26 27  0  0  0  0  0  0  0  0999 V2000
   -8.4062  -13.8550   23.5285 C   0  0  0  0  0  0  0  0  0  0  0  0
  -10.1578  -17.2230   24.2576 C   0  0  0  0  0  0  0  0  0  0  0  0
   -9.4630  -16.7049   25.3456 C   0  0  0  0  0  0  0  0  0  0  0  0
   -8.0197  -16.2027   25.2599 C   0  0  0  0  0  0  0  0  0  0  0  0
   -7.7145  -15.1396   23.0629 C   0  0  1  0  0  0  0  0  0  0  0  0
  -13.5406  -17.9388   25.8629 C   0  0  0  0  0  0  0  0  0  0  0  0
  -12.0842  -17.5114   25.6751 C   0  0  0  0  0  0  0  0  0  0  0  0
  -10.1281  -16.6213   26.5646 C   0  0  0  0  0  0  0  0  0  0  0  0
   -6.9074  -17.2475   23.3609 C   0  0  0  0  0  0  0  0  0  0  0  0
   -7.2071  -15.2806   21.7768 C   0  0  2  0  0  0  0  0  0  0  0  0
   -7.1851  -14.3081   20.5948 C   0  0  0  0  0  0  0  0  0  0  0  0
   -6.6073  -14.9304   19.3215 C   0  0  0  0  0  0  0  0  0  0  0  0
  -11.4834  -17.6327   24.4150 N   0  0  0  0  0  0  0  0  0  0  0  0
   -7.5450  -16.1917   23.8687 N   0  0  0  0  0  0  0  0  0  0  0  0
  -11.3818  -17.0111   26.7018 N   0  0  0  0  0  0  0  0  0  0  0  0
   -9.6116  -17.3184   23.1584 O   0  0  0  0  0  0  0  0  0  0  0  0
   -4.4123  -15.0400   17.0947 O   0  5  0  0  0  0  0  0  0  0  0  0
   -0.7567  -15.3715   19.9631 O   0  0  0  0  0  0  0  0  0  0  0  0
   -5.2513  -15.3493   19.5040 O   0  0  0  0  0  0  0  0  0  0  0  0
   -2.8979  -16.1623   18.8083 O   0  0  0  0  0  0  0  0  0  0  0  0
   -1.8108  -13.9271   18.0937 O   0  5  0  0  0  0  0  0  0  0  0  0
   -4.9922  -17.4007   17.9737 O   0  0  0  0  0  0  0  0  0  0  0  0
   -2.9686  -14.1430   20.3743 O   0  0  0  0  0  0  0  0  0  0  0  0
   -6.5641  -16.8967   21.6876 S   0  0  0  0  0  0  0  0  0  0  0  0
   -4.4294  -16.0768   18.3257 P   0  0  2  0  0  0  0  0  0  0  0  0
   -2.0851  -14.8400   19.2259 P   0  0  2  0  0  0  0  0  0  0  0  0
  2 16  2  0  0  0  0
  2  3  1  0  0  0  0
  2 13  1  0  0  0  0
  3  8  2  0  0  0  0
  3  4  1  0  0  0  0
  4 14  1  0  0  0  0
  5  1  1  1  0  0  0
  5 14  1  0  0  0  0
  5 10  1  0  0  0  0
  6  7  1  0  0  0  0
  7 13  1  0  0  0  0
  7 15  2  0  0  0  0
  8 15  1  0  0  0  0
  9 14  1  0  0  0  0
  9 24  1  0  0  0  0
 10 24  1  0  0  0  0
 10 11  1  6  0  0  0
 11 12  1  0  0  0  0
 12 19  1  0  0  0  0
 17 25  1  0  0  0  0
 19 25  1  0  0  0  0
 20 26  1  0  0  0  0
 21 26  1  0  0  0  0
 22 25  2  0  0  0  0
 23 26  2  0  0  0  0
 25 20  1  1  0  0  0
 26 18  1  1  0  0  0
M  CHG  2  17  -1  21  -1
M  END
>  <CHROM.1>
6.88371482,-175.72217090,-60.95485120,88.52270440,178.11513115,55.65603563
59.24558712,166.87490226,-6.57211544,-15.97167540,21.62364496,-2.51855600
-0.38262923,-1.77950188

>  <Name>
ligand

>  <RI>
0

>  <Rbt.Current_Directory>
/home/itssahil/PROJECTS/Mol_Feturizer/New_Systems/rnas/3D2X

>  <Rbt.Executable>
rbdock ($Id: //depot/dev/client3/rdock/2013.1/src/exe/rbdock.cxx#4 $)

>  <Rbt.Library>
libRbt.so (2013.1, Build901 2013/11/27)

>  <Rbt.Parameter_File>
/export/apps/rDock/src/rDock_2013.1_src/data/scripts/dock_solv.prm

>  <Rbt.Receptor>
prm/pocket_docking_4.prm

>  <SCORE>
-23.2027

>  <SCORE.INTER>
-22.5396

>  <SCORE.INTER.CONST>
1

>  <SCORE.INTER.POLAR>
0

>  <SCORE.INTER.ROT>
8

>  <SCORE.INTER.SOLV>
11.8036

>  <SCORE.INTER.VDW>
-27.8943

>  <SCORE.INTER.norm>
-0.866909

>  <SCORE.INTRA>
-0.663053

>  <SCORE.INTRA.DIHEDRAL>
-3.02449

>  <SCORE.INTRA.DIHEDRAL.0>
7.88077

>  <SCORE.INTRA.POLAR>
0

>  <SCORE.INTRA.POLAR.0>
0

>  <SCORE.INTRA.REPUL>
0

>  <SCORE.INTRA.REPUL.0>
0

>  <SCORE.INTRA.SOLV>
1.0294

>  <SCORE.INTRA.SOLV.lig_0>
-63.2542

>  <SCORE.INTRA.VDW>
0.33449

>  <SCORE.INTRA.VDW.0>
-3.15072

>  <SCORE.INTRA.norm>
-0.025502

>  <SCORE.RESTR>
0

>  <SCORE.RESTR.CAVITY>
0

>  <SCORE.RESTR.norm>
0

>  <SCORE.SYSTEM>
0

>  <SCORE.SYSTEM.CONST>
0

>  <SCORE.SYSTEM.DIHEDRAL>
0

>  <SCORE.SYSTEM.SOLV>
0

>  <SCORE.SYSTEM.norm>
0

>  <SCORE.heavy>
26

>  <SCORE.norm>
-0.892411

>  <RMSD>
2.902

$$$$
ligand
 OpenBabel11021811473D
libRbt.so/2013.1/901 2013/11/27
 26 27  0  0  0  0  0  0  0  0999 V2000
   -6.9796  -16.1987   21.6662 C   0  0  0  0  0  0  0  0  0  0  0  0
  -10.1643  -16.9211   23.8070 C   0  0  0  0  0  0  0  0  0  0  0  0
   -9.2063  -16.7226   24.7957 C   0  0  0  0  0  0  0  0  0  0  0  0
   -7.7701  -16.2843   24.4994 C   0  0  0  0  0  0  0  0  0  0  0  0
   -7.3859  -14.9566   22.4647 C   0  0  1  0  0  0  0  0  0  0  0  0
  -13.1870  -17.8500   25.9361 C   0  0  0  0  0  0  0  0  0  0  0  0
  -11.7672  -17.4594   25.5228 C   0  0  0  0  0  0  0  0  0  0  0  0
   -9.5871  -16.9120   26.1204 C   0  0  0  0  0  0  0  0  0  0  0  0
   -8.1032  -13.8765   24.3362 C   0  0  0  0  0  0  0  0  0  0  0  0
   -7.4186  -13.6898   21.8940 C   0  0  2  0  0  0  0  0  0  0  0  0
   -7.1051  -13.2225   20.4704 C   0  0  0  0  0  0  0  0  0  0  0  0
   -6.2307  -11.9670   20.4341 C   0  0  0  0  0  0  0  0  0  0  0  0
  -11.4615  -17.2932   24.1655 N   0  0  0  0  0  0  0  0  0  0  0  0
   -7.7467  -15.0201   23.7495 N   0  0  0  0  0  0  0  0  0  0  0  0
  -10.8167  -17.2633   26.4479 N   0  0  0  0  0  0  0  0  0  0  0  0
   -9.8751  -16.7671   22.6202 O   0  0  0  0  0  0  0  0  0  0  0  0
   -3.6745  -10.4613   19.3327 O   0  5  0  0  0  0  0  0  0  0  0  0
   -6.0564  -12.2962   16.4564 O   0  0  0  0  0  0  0  0  0  0  0  0
   -6.0062  -11.5155   19.0949 O   0  0  0  0  0  0  0  0  0  0  0  0
   -5.0009  -10.0848   17.1907 O   0  0  0  0  0  0  0  0  0  0  0  0
   -4.3654  -11.1066   14.9014 O   0  5  0  0  0  0  0  0  0  0  0  0
   -5.7838   -8.9677   19.3714 O   0  0  0  0  0  0  0  0  0  0  0  0
   -3.5725  -12.2020   17.0831 O   0  0  0  0  0  0  0  0  0  0  0  0
   -7.8839  -12.5991   23.1696 S   0  0  0  0  0  0  0  0  0  0  0  0
   -5.1624  -10.1787   18.7879 P   0  0  2  0  0  0  0  0  0  0  0  0
   -4.7286  -11.3989   16.3061 P   0  0  2  0  0  0  0  0  0  0  0  0
  2 16  2  0  0  0  0
  2  3  1  0  0  0  0
  2 13  1  0  0  0  0
  3  8  2  0  0  0  0
  3  4  1  0  0  0  0
  4 14  1  0  0  0  0
  5  1  1  6  0  0  0
  5 14  1  0  0  0  0
  5 10  1  0  0  0  0
  6  7  1  0  0  0  0
  7 13  1  0  0  0  0
  7 15  2  0  0  0  0
  8 15  1  0  0  0  0
  9 14  1  0  0  0  0
  9 24  1  0  0  0  0
 10 24  1  0  0  0  0
 10 11  1  1  0  0  0
 11 12  1  0  0  0  0
 12 19  1  0  0  0  0
 17 25  1  0  0  0  0
 19 25  1  0  0  0  0
 20 26  1  0  0  0  0
 21 26  1  0  0  0  0
 22 25  2  0  0  0  0
 23 26  2  0  0  0  0
 25 20  1  6  0  0  0
 26 18  1  1  0  0  0
M  CHG  2  17  -1  21  -1
M  END
>  <CHROM.1>
56.81376439,-134.63760469,-177.21340032,-109.30349563,177.64145683,72.82305574
63.14368557,65.34213719,-7.26362192,-13.52138538,21.10732558,2.80605099,1.01356845
1.05378422

>  <Name>
ligand

>  <RI>
0

>  <Rbt.Current_Directory>
/home/itssahil/PROJECTS/Mol_Feturizer/New_Systems/rnas/3D2X

>  <Rbt.Executable>
rbdock ($Id: //depot/dev/client3/rdock/2013.1/src/exe/rbdock.cxx#4 $)

>  <Rbt.Library>
libRbt.so (2013.1, Build901 2013/11/27)

>  <Rbt.Parameter_File>
/export/apps/rDock/src/rDock_2013.1_src/data/scripts/dock_solv.prm

>  <Rbt.Receptor>
prm/pocket_docking_3.prm

>  <SCORE>
-20.2231

>  <SCORE.INTER>
-18.0698

>  <SCORE.INTER.CONST>
1

>  <SCORE.INTER.POLAR>
0

>  <SCORE.INTER.ROT>
8

>  <SCORE.INTER.SOLV>
12.1136

>  <SCORE.INTER.VDW>
-25.0177

>  <SCORE.INTER.norm>
-0.694992

>  <SCORE.INTRA>
-2.15331

>  <SCORE.INTRA.DIHEDRAL>
-2.06549

>  <SCORE.INTRA.DIHEDRAL.0>
7.88077

>  <SCORE.INTRA.POLAR>
0

>  <SCORE.INTRA.POLAR.0>
0

>  <SCORE.INTRA.REPUL>
0

>  <SCORE.INTRA.REPUL.0>
0

>  <SCORE.INTRA.SOLV>
-0.988161

>  <SCORE.INTRA.SOLV.lig_0>
-63.2542

>  <SCORE.INTRA.VDW>
-0.626482

>  <SCORE.INTRA.VDW.0>
-3.15072

>  <SCORE.INTRA.norm>
-0.0828195

>  <SCORE.RESTR>
0

>  <SCORE.RESTR.CAVITY>
0

>  <SCORE.RESTR.norm>
0

>  <SCORE.SYSTEM>
0

>  <SCORE.SYSTEM.CONST>
0

>  <SCORE.SYSTEM.DIHEDRAL>
0

>  <SCORE.SYSTEM.SOLV>
0

>  <SCORE.SYSTEM.norm>
0

>  <SCORE.heavy>
26

>  <SCORE.norm>
-0.777812

>  <RMSD>
2.906

$$$$
ligand
 OpenBabel11021811473D
libRbt.so/2013.1/901 2013/11/27
 26 27  0  0  0  0  0  0  0  0999 V2000
   -6.4592  -17.2155   23.3935 C   0  0  0  0  0  0  0  0  0  0  0  0
  -10.3221  -17.4062   24.3185 C   0  0  0  0  0  0  0  0  0  0  0  0
   -9.7532  -16.8024   25.4350 C   0  0  0  0  0  0  0  0  0  0  0  0
   -8.3230  -16.2578   25.4594 C   0  0  0  0  0  0  0  0  0  0  0  0
   -7.1928  -15.8738   23.3088 C   0  0  1  0  0  0  0  0  0  0  0  0
  -13.8262  -18.1404   25.6280 C   0  0  0  0  0  0  0  0  0  0  0  0
  -12.3708  -17.6759   25.5568 C   0  0  0  0  0  0  0  0  0  0  0  0
  -10.5380  -16.6702   26.5761 C   0  0  0  0  0  0  0  0  0  0  0  0
   -8.6387  -14.2858   24.0643 C   0  0  0  0  0  0  0  0  0  0  0  0
   -7.0327  -15.0115   22.2307 C   0  0  2  0  0  0  0  0  0  0  0  0
   -6.1863  -15.1384   20.9615 C   0  0  0  0  0  0  0  0  0  0  0  0
   -7.0287  -15.1733   19.6842 C   0  0  0  0  0  0  0  0  0  0  0  0
  -11.6450  -17.8503   24.3710 N   0  0  0  0  0  0  0  0  0  0  0  0
   -8.0393  -15.4617   24.2566 N   0  0  0  0  0  0  0  0  0  0  0  0
  -11.7878  -17.0933   26.6144 N   0  0  0  0  0  0  0  0  0  0  0  0
   -9.6673  -17.5472   23.2855 O   0  0  0  0  0  0  0  0  0  0  0  0
   -5.5476  -16.9678   17.5601 O   0  5  0  0  0  0  0  0  0  0  0  0
   -3.9765  -12.9100   15.0168 O   0  0  0  0  0  0  0  0  0  0  0  0
   -6.2891  -14.7144   18.5484 O   0  0  0  0  0  0  0  0  0  0  0  0
   -4.5671  -14.8116   16.6226 O   0  0  0  0  0  0  0  0  0  0  0  0
   -6.0295  -12.6791   16.5738 O   0  5  0  0  0  0  0  0  0  0  0  0
   -3.9048  -15.5738   18.9884 O   0  0  0  0  0  0  0  0  0  0  0  0
   -3.6533  -12.6084   17.5418 O   0  0  0  0  0  0  0  0  0  0  0  0
   -8.0081  -13.6126   22.5844 S   0  0  0  0  0  0  0  0  0  0  0  0
   -5.0057  -15.5173   17.9994 P   0  0  2  0  0  0  0  0  0  0  0  0
   -4.6569  -13.2169   16.4429 P   0  0  2  0  0  0  0  0  0  0  0  0
  2 16  2  0  0  0  0
  2  3  1  0  0  0  0
  2 13  1  0  0  0  0
  3  8  2  0  0  0  0
  3  4  1  0  0  0  0
  4 14  1  0  0  0  0
  5  1  1  6  0  0  0
  5 14  1  0  0  0  0
  5 10  1  0  0  0  0
  6  7  1  0  0  0  0
  7 13  1  0  0  0  0
  7 15  2  0  0  0  0
  8 15  1  0  0  0  0
  9 14  1  0  0  0  0
  9 24  1  0  0  0  0
 10 24  1  0  0  0  0
 10 11  1  1  0  0  0
 11 12  1  0  0  0  0
 12 19  1  0  0  0  0
 17 25  1  0  0  0  0
 19 25  1  0  0  0  0
 20 26  1  0  0  0  0
 21 26  1  0  0  0  0
 22 25  2  0  0  0  0
 23 26  2  0  0  0  0
 25 20  1  6  0  0  0
 26 18  1  6  0  0  0
M  CHG  2  17  -1  21  -1
M  END
>  <CHROM.1>
46.09892378,116.88888398,154.62211202,-110.67885430,64.85546328,149.50036072
61.62585128,173.61972070,-7.35985688,-15.39112384,21.11814774,2.64872170
0.87020822,0.95937409

>  <Name>
ligand

>  <RI>
0

>  <Rbt.Current_Directory>
/home/itssahil/PROJECTS/Mol_Feturizer/New_Systems/rnas/3D2X

>  <Rbt.Executable>
rbdock ($Id: //depot/dev/client3/rdock/2013.1/src/exe/rbdock.cxx#4 $)

>  <Rbt.Library>
libRbt.so (2013.1, Build901 2013/11/27)

>  <Rbt.Parameter_File>
/export/apps/rDock/src/rDock_2013.1_src/data/scripts/dock_solv.prm

>  <Rbt.Receptor>
prm/pocket_docking_4.prm

>  <SCORE>
-20.4096

>  <SCORE.INTER>
-20.6146

>  <SCORE.INTER.CONST>
1

>  <SCORE.INTER.POLAR>
0

>  <SCORE.INTER.ROT>
8

>  <SCORE.INTER.SOLV>
11.3177

>  <SCORE.INTER.VDW>
-26.449

>  <SCORE.INTER.norm>
-0.79287

>  <SCORE.INTRA>
0.20505

>  <SCORE.INTRA.DIHEDRAL>
0.575215

>  <SCORE.INTRA.DIHEDRAL.0>
7.88077

>  <SCORE.INTRA.POLAR>
0

>  <SCORE.INTRA.POLAR.0>
0

>  <SCORE.INTRA.REPUL>
0

>  <SCORE.INTRA.REPUL.0>
0

>  <SCORE.INTRA.SOLV>
1.01932

>  <SCORE.INTRA.SOLV.lig_0>
-63.2542

>  <SCORE.INTRA.VDW>
-0.592217

>  <SCORE.INTRA.VDW.0>
-3.15072

>  <SCORE.INTRA.norm>
0.00788653

>  <SCORE.RESTR>
0

>  <SCORE.RESTR.CAVITY>
0

>  <SCORE.RESTR.norm>
0

>  <SCORE.SYSTEM>
0

>  <SCORE.SYSTEM.CONST>
0

>  <SCORE.SYSTEM.DIHEDRAL>
0

>  <SCORE.SYSTEM.SOLV>
0

>  <SCORE.SYSTEM.norm>
0

>  <SCORE.heavy>
26

>  <SCORE.norm>
-0.784983

>  <RMSD>
2.907

$$$$
ligand
 OpenBabel11021811473D
libRbt.so/2013.1/901 2013/11/27
 26 27  0  0  0  0  0  0  0  0999 V2000
   -7.7380  -17.1008   22.5281 C   0  0  0  0  0  0  0  0  0  0  0  0
   -9.9910  -17.0746   26.6263 C   0  0  0  0  0  0  0  0  0  0  0  0
   -9.4350  -16.6644   25.4191 C   0  0  0  0  0  0  0  0  0  0  0  0
   -8.0087  -16.1241   25.2906 C   0  0  0  0  0  0  0  0  0  0  0  0
   -7.7659  -15.6145   22.8965 C   0  0  1  0  0  0  0  0  0  0  0  0
  -13.4276  -18.2374   25.4558 C   0  0  0  0  0  0  0  0  0  0  0  0
  -12.0085  -17.6672   25.4508 C   0  0  0  0  0  0  0  0  0  0  0  0
  -10.2132  -16.7754   24.2713 C   0  0  0  0  0  0  0  0  0  0  0  0
   -7.9307  -13.8755   24.3566 C   0  0  0  0  0  0  0  0  0  0  0  0
   -7.6741  -14.6139   21.9365 C   0  0  2  0  0  0  0  0  0  0  0  0
   -7.5433  -14.6939   20.4134 C   0  0  0  0  0  0  0  0  0  0  0  0
   -7.0565  -13.3849   19.7873 C   0  0  0  0  0  0  0  0  0  0  0  0
  -11.2912  -17.5832   26.6516 N   0  0  0  0  0  0  0  0  0  0  0  0
   -7.8953  -15.1939   24.1579 N   0  0  0  0  0  0  0  0  0  0  0  0
  -11.4412  -17.2583   24.3068 N   0  0  0  0  0  0  0  0  0  0  0  0
   -9.3422  -16.9947   27.6696 O   0  0  0  0  0  0  0  0  0  0  0  0
   -6.9408  -12.5992   15.9366 O   0  5  0  0  0  0  0  0  0  0  0  0
   -8.5575   -8.8337   18.7965 O   0  0  0  0  0  0  0  0  0  0  0  0
   -7.0413  -13.4539   18.3581 O   0  0  0  0  0  0  0  0  0  0  0  0
   -7.6663  -11.0103   17.7909 O   0  0  0  0  0  0  0  0  0  0  0  0
   -6.6808  -10.1321   20.0148 O   0  5  0  0  0  0  0  0  0  0  0  0
   -5.2137  -11.7773   17.6753 O   0  0  0  0  0  0  0  0  0  0  0  0
   -6.1951   -8.9199   17.8051 O   0  0  0  0  0  0  0  0  0  0  0  0
   -7.7004  -13.1065   22.8085 S   0  0  0  0  0  0  0  0  0  0  0  0
   -6.6206  -12.1860   17.4588 P   0  0  2  0  0  0  0  0  0  0  0  0
   -7.2405   -9.7537   18.6980 P   0  0  2  0  0  0  0  0  0  0  0  0
  2 16  2  0  0  0  0
  2  3  1  0  0  0  0
  2 13  1  0  0  0  0
  3  8  2  0  0  0  0
  3  4  1  0  0  0  0
  4 14  1  0  0  0  0
  5  1  1  6  0  0  0
  5 14  1  0  0  0  0
  5 10  1  0  0  0  0
  6  7  1  0  0  0  0
  7 13  1  0  0  0  0
  7 15  2  0  0  0  0
  8 15  1  0  0  0  0
  9 14  1  0  0  0  0
  9 24  1  0  0  0  0
 10 24  1  0  0  0  0
 10 11  1  1  0  0  0
 11 12  1  0  0  0  0
 12 19  1  0  0  0  0
 17 25  1  0  0  0  0
 19 25  1  0  0  0  0
 20 26  1  0  0  0  0
 21 26  1  0  0  0  0
 22 25  2  0  0  0  0
 23 26  2  0  0  0  0
 25 20  1  1  0  0  0
 26 18  1  1  0  0  0
M  CHG  2  17  -1  21  -1
M  END
>  <CHROM.1>
-152.01103575,-162.68716704,-175.52914933,-80.17748884,177.67993413,-142.38085101
-171.85463719,-179.48337298,-8.19428350,-13.80142086,21.56184608,2.94446004
1.22050473,0.89343901

>  <Name>
ligand

>  <RI>
0

>  <Rbt.Current_Directory>
/home/itssahil/PROJECTS/Mol_Feturizer/New_Systems/rnas/3D2X

>  <Rbt.Executable>
rbdock ($Id: //depot/dev/client3/rdock/2013.1/src/exe/rbdock.cxx#4 $)

>  <Rbt.Library>
libRbt.so (2013.1, Build901 2013/11/27)

>  <Rbt.Parameter_File>
/export/apps/rDock/src/rDock_2013.1_src/data/scripts/dock_solv.prm

>  <Rbt.Receptor>
prm/pocket_docking_5.prm

>  <SCORE>
-27.0542

>  <SCORE.INTER>
-27.2829

>  <SCORE.INTER.CONST>
1

>  <SCORE.INTER.POLAR>
0

>  <SCORE.INTER.ROT>
8

>  <SCORE.INTER.SOLV>
18.0846

>  <SCORE.INTER.VDW>
-33.1501

>  <SCORE.INTER.norm>
-1.04934

>  <SCORE.INTRA>
0.228722

>  <SCORE.INTRA.DIHEDRAL>
-1.14792

>  <SCORE.INTRA.DIHEDRAL.0>
7.88077

>  <SCORE.INTRA.POLAR>
0

>  <SCORE.INTRA.POLAR.0>
0

>  <SCORE.INTRA.REPUL>
0

>  <SCORE.INTRA.REPUL.0>
0

>  <SCORE.INTRA.SOLV>
0.372751

>  <SCORE.INTRA.SOLV.lig_0>
-63.2542

>  <SCORE.INTRA.VDW>
0.616304

>  <SCORE.INTRA.VDW.0>
-3.15072

>  <SCORE.INTRA.norm>
0.00879702

>  <SCORE.RESTR>
0

>  <SCORE.RESTR.CAVITY>
0

>  <SCORE.RESTR.norm>
0

>  <SCORE.SYSTEM>
0

>  <SCORE.SYSTEM.CONST>
0

>  <SCORE.SYSTEM.DIHEDRAL>
0

>  <SCORE.SYSTEM.SOLV>
0

>  <SCORE.SYSTEM.norm>
0

>  <SCORE.heavy>
26

>  <SCORE.norm>
-1.04054

>  <RMSD>
2.910

$$$$
ligand
 OpenBabel11021811473D
libRbt.so/2013.1/901 2013/11/27
 26 27  0  0  0  0  0  0  0  0999 V2000
   -7.0465  -17.2879   19.5459 C   0  0  0  0  0  0  0  0  0  0  0  0
  -10.0723  -16.7395   24.0743 C   0  0  0  0  0  0  0  0  0  0  0  0
   -8.9121  -16.7770   23.3080 C   0  0  0  0  0  0  0  0  0  0  0  0
   -8.9158  -16.8738   21.7805 C   0  0  0  0  0  0  0  0  0  0  0  0
   -7.3261  -15.9158   20.1664 C   0  0  1  0  0  0  0  0  0  0  0  0
   -8.5924  -16.3961   27.5706 C   0  0  0  0  0  0  0  0  0  0  0  0
   -8.7125  -16.5434   26.0530 C   0  0  0  0  0  0  0  0  0  0  0  0
   -7.6907  -16.6993   23.9695 C   0  0  0  0  0  0  0  0  0  0  0  0
   -8.3647  -14.5061   21.6214 C   0  0  0  0  0  0  0  0  0  0  0  0
   -6.7147  -14.7572   19.7026 C   0  0  2  0  0  0  0  0  0  0  0  0
   -5.7115  -14.5377   18.5673 C   0  0  0  0  0  0  0  0  0  0  0  0
   -4.3042  -14.2085   19.0707 C   0  0  0  0  0  0  0  0  0  0  0  0
   -9.9808  -16.6210   25.4626 N   0  0  0  0  0  0  0  0  0  0  0  0
   -8.1836  -15.7507   21.1774 N   0  0  0  0  0  0  0  0  0  0  0  0
   -7.6160  -16.5870   25.2826 N   0  0  0  0  0  0  0  0  0  0  0  0
  -11.1770  -16.8065   23.5349 O   0  0  0  0  0  0  0  0  0  0  0  0
   -1.8157  -12.3126   19.1301 O   0  5  0  0  0  0  0  0  0  0  0  0
   -2.5227   -9.6931   18.4743 O   0  0  0  0  0  0  0  0  0  0  0  0
   -4.2499  -12.9188   19.6883 O   0  0  0  0  0  0  0  0  0  0  0  0
   -3.1500  -10.8050   20.6910 O   0  0  0  0  0  0  0  0  0  0  0  0
   -5.0113  -10.1364   19.0246 O   0  5  0  0  0  0  0  0  0  0  0  0
   -2.4362  -13.1405   21.4989 O   0  0  0  0  0  0  0  0  0  0  0  0
   -3.7003   -8.3388   20.3046 O   0  0  0  0  0  0  0  0  0  0  0  0
   -7.2895  -13.4681   20.7230 S   0  0  0  0  0  0  0  0  0  0  0  0
   -2.8872  -12.3500   20.3306 P   0  0  2  0  0  0  0  0  0  0  0  0
   -3.6885   -9.7746   19.5812 P   0  0  2  0  0  0  0  0  0  0  0  0
  2 16  2  0  0  0  0
  2  3  1  0  0  0  0
  2 13  1  0  0  0  0
  3  8  2  0  0  0  0
  3  4  1  0  0  0  0
  4 14  1  0  0  0  0
  5  1  1  6  0  0  0
  5 14  1  0  0  0  0
  5 10  1  0  0  0  0
  6  7  1  0  0  0  0
  7 13  1  0  0  0  0
  7 15  2  0  0  0  0
  8 15  1  0  0  0  0
  9 14  1  0  0  0  0
  9 24  1  0  0  0  0
 10 24  1  0  0  0  0
 10 11  1  1  0  0  0
 11 12  1  0  0  0  0
 12 19  1  0  0  0  0
 17 25  1  0  0  0  0
 19 25  1  0  0  0  0
 20 26  1  0  0  0  0
 21 26  1  0  0  0  0
 22 25  2  0  0  0  0
 23 26  2  0  0  0  0
 25 20  1  1  0  0  0
 26 18  1  6  0  0  0
M  CHG  2  17  -1  21  -1
M  END
>  <CHROM.1>
122.87078032,-108.33053798,-68.72681925,136.21046275,178.61018420,58.11378803
59.27568434,-64.13768607,-6.03993745,-13.80133976,21.31058758,2.81847762
0.85574410,1.31946071

>  <Name>
ligand

>  <RI>
0

>  <Rbt.Current_Directory>
/home/itssahil/PROJECTS/Mol_Feturizer/New_Systems/rnas/3D2X

>  <Rbt.Executable>
rbdock ($Id: //depot/dev/client3/rdock/2013.1/src/exe/rbdock.cxx#4 $)

>  <Rbt.Library>
libRbt.so (2013.1, Build901 2013/11/27)

>  <Rbt.Parameter_File>
/export/apps/rDock/src/rDock_2013.1_src/data/scripts/dock_solv.prm

>  <Rbt.Receptor>
prm/pocket_docking_7.prm

>  <SCORE>
-14.2288

>  <SCORE.INTER>
-11.3373

>  <SCORE.INTER.CONST>
1

>  <SCORE.INTER.POLAR>
0

>  <SCORE.INTER.ROT>
8

>  <SCORE.INTER.SOLV>
6.80355

>  <SCORE.INTER.VDW>
-18.7594

>  <SCORE.INTER.norm>
-0.43605

>  <SCORE.INTRA>
-2.89152

>  <SCORE.INTRA.DIHEDRAL>
-2.41255

>  <SCORE.INTRA.DIHEDRAL.0>
7.88077

>  <SCORE.INTRA.POLAR>
0

>  <SCORE.INTRA.POLAR.0>
0

>  <SCORE.INTRA.REPUL>
0

>  <SCORE.INTRA.REPUL.0>
0

>  <SCORE.INTRA.SOLV>
-1.70336

>  <SCORE.INTRA.SOLV.lig_0>
-63.2542

>  <SCORE.INTRA.VDW>
-0.833573

>  <SCORE.INTRA.VDW.0>
-3.15072

>  <SCORE.INTRA.norm>
-0.111212

>  <SCORE.RESTR>
0

>  <SCORE.RESTR.CAVITY>
0

>  <SCORE.RESTR.norm>
0

>  <SCORE.SYSTEM>
0

>  <SCORE.SYSTEM.CONST>
0

>  <SCORE.SYSTEM.DIHEDRAL>
0

>  <SCORE.SYSTEM.SOLV>
0

>  <SCORE.SYSTEM.norm>
0

>  <SCORE.heavy>
26

>  <SCORE.norm>
-0.547262

>  <RMSD>
2.919

$$$$
ligand
 OpenBabel11021811473D
libRbt.so/2013.1/901 2013/11/27
 26 27  0  0  0  0  0  0  0  0999 V2000
   -6.7131  -14.0547   20.6222 C   0  0  0  0  0  0  0  0  0  0  0  0
   -8.6970  -15.0805   23.8330 C   0  0  0  0  0  0  0  0  0  0  0  0
   -9.5406  -15.4939   22.8073 C   0  0  0  0  0  0  0  0  0  0  0  0
   -9.3905  -15.0300   21.3565 C   0  0  0  0  0  0  0  0  0  0  0  0
   -7.2225  -15.4570   20.2760 C   0  0  1  0  0  0  0  0  0  0  0  0
  -10.1406  -17.0464   26.7629 C   0  0  0  0  0  0  0  0  0  0  0  0
   -9.9289  -16.4809   25.3577 C   0  0  0  0  0  0  0  0  0  0  0  0
  -10.5560  -16.3922   23.1198 C   0  0  0  0  0  0  0  0  0  0  0  0
   -8.7669  -17.1296   20.2898 C   0  0  0  0  0  0  0  0  0  0  0  0
   -6.4397  -16.3788   19.5912 C   0  0  2  0  0  0  0  0  0  0  0  0
   -5.0092  -16.2785   19.0554 C   0  0  0  0  0  0  0  0  0  0  0  0
   -4.8318  -15.1497   18.0372 C   0  0  0  0  0  0  0  0  0  0  0  0
   -8.8856  -15.5748   25.1253 N   0  0  0  0  0  0  0  0  0  0  0  0
   -8.4406  -15.8805   20.6247 N   0  0  0  0  0  0  0  0  0  0  0  0
  -10.7248  -16.8534   24.3451 N   0  0  0  0  0  0  0  0  0  0  0  0
   -7.7846  -14.2856   23.6064 O   0  0  0  0  0  0  0  0  0  0  0  0
   -1.8788  -14.1888   17.6071 O   0  5  0  0  0  0  0  0  0  0  0  0
   -2.2310  -10.3286   20.8485 O   0  0  0  0  0  0  0  0  0  0  0  0
   -4.2297  -13.9933   18.6268 O   0  0  0  0  0  0  0  0  0  0  0  0
   -2.3158  -12.4405   19.4076 O   0  0  0  0  0  0  0  0  0  0  0  0
   -4.2340  -11.9506   21.0717 O   0  5  0  0  0  0  0  0  0  0  0  0
   -2.3009  -14.9321   20.0466 O   0  0  0  0  0  0  0  0  0  0  0  0
   -1.9112  -12.6333   21.9242 O   0  0  0  0  0  0  0  0  0  0  0  0
   -7.4334  -17.7939   19.3835 S   0  0  0  0  0  0  0  0  0  0  0  0
   -2.6621  -13.9553   18.9936 P   0  0  2  0  0  0  0  0  0  0  0  0
   -2.7786  -11.8420   20.8257 P   0  0  2  0  0  0  0  0  0  0  0  0
  2 16  2  0  0  0  0
  2  3  1  0  0  0  0
  2 13  1  0  0  0  0
  3  8  2  0  0  0  0
  3  4  1  0  0  0  0
  4 14  1  0  0  0  0
  5  1  1  1  0  0  0
  5 14  1  0  0  0  0
  5 10  1  0  0  0  0
  6  7  1  0  0  0  0
  7 13  1  0  0  0  0
  7 15  2  0  0  0  0
  8 15  1  0  0  0  0
  9 14  1  0  0  0  0
  9 24  1  0  0  0  0
 10 24  1  0  0  0  0
 10 11  1  6  0  0  0
 11 12  1  0  0  0  0
 12 19  1  0  0  0  0
 17 25  1  0  0  0  0
 19 25  1  0  0  0  0
 20 26  1  0  0  0  0
 21 26  1  0  0  0  0
 22 25  2  0  0  0  0
 23 26  2  0  0  0  0
 25 20  1  1  0  0  0
 26 18  1  1  0  0  0
M  CHG  2  17  -1  21  -1
M  END
>  <CHROM.1>
86.26946526,-59.65969833,100.61417329,-107.74323247,74.24391375,-173.52440818
59.94437152,179.52859858,-5.91915982,-14.73309418,21.04462857,2.96479893
0.62099815,0.99614764

>  <Name>
ligand

>  <RI>
0

>  <Rbt.Current_Directory>
/home/itssahil/PROJECTS/Mol_Feturizer/New_Systems/rnas/3D2X

>  <Rbt.Executable>
rbdock ($Id: //depot/dev/client3/rdock/2013.1/src/exe/rbdock.cxx#4 $)

>  <Rbt.Library>
libRbt.so (2013.1, Build901 2013/11/27)

>  <Rbt.Parameter_File>
/export/apps/rDock/src/rDock_2013.1_src/data/scripts/dock_solv.prm

>  <Rbt.Receptor>
prm/pocket_docking_7.prm

>  <SCORE>
-12.6821

>  <SCORE.INTER>
-13.5969

>  <SCORE.INTER.CONST>
1

>  <SCORE.INTER.POLAR>
0

>  <SCORE.INTER.ROT>
8

>  <SCORE.INTER.SOLV>
7.76296

>  <SCORE.INTER.VDW>
-20.5856

>  <SCORE.INTER.norm>
-0.522957

>  <SCORE.INTRA>
0.914812

>  <SCORE.INTRA.DIHEDRAL>
2.07767

>  <SCORE.INTRA.DIHEDRAL.0>
7.88077

>  <SCORE.INTRA.POLAR>
0

>  <SCORE.INTRA.POLAR.0>
0

>  <SCORE.INTRA.REPUL>
0

>  <SCORE.INTRA.REPUL.0>
0

>  <SCORE.INTRA.SOLV>
1.82841

>  <SCORE.INTRA.SOLV.lig_0>
-63.2542

>  <SCORE.INTRA.VDW>
-1.03823

>  <SCORE.INTRA.VDW.0>
-3.15072

>  <SCORE.INTRA.norm>
0.0351851

>  <SCORE.RESTR>
0

>  <SCORE.RESTR.CAVITY>
0

>  <SCORE.RESTR.norm>
0

>  <SCORE.SYSTEM>
0

>  <SCORE.SYSTEM.CONST>
0

>  <SCORE.SYSTEM.DIHEDRAL>
0

>  <SCORE.SYSTEM.SOLV>
0

>  <SCORE.SYSTEM.norm>
0

>  <SCORE.heavy>
26

>  <SCORE.norm>
-0.487772

>  <RMSD>
2.922

$$$$
ligand
 OpenBabel11021811473D
libRbt.so/2013.1/901 2013/11/27
 26 27  0  0  0  0  0  0  0  0999 V2000
   -5.8576  -14.3350   26.0003 C   0  0  0  0  0  0  0  0  0  0  0  0
  -10.1752  -16.6697   26.5703 C   0  0  0  0  0  0  0  0  0  0  0  0
   -9.4160  -16.7249   25.4061 C   0  0  0  0  0  0  0  0  0  0  0  0
   -7.9479  -16.2975   25.3383 C   0  0  0  0  0  0  0  0  0  0  0  0
   -6.8559  -14.1473   24.8541 C   0  0  1  0  0  0  0  0  0  0  0  0
  -13.4830  -18.0920   25.3182 C   0  0  0  0  0  0  0  0  0  0  0  0
  -12.0378  -17.5928   25.3530 C   0  0  0  0  0  0  0  0  0  0  0  0
  -10.0226  -17.2161   24.2545 C   0  0  0  0  0  0  0  0  0  0  0  0
   -8.5927  -14.7950   23.5324 C   0  0  0  0  0  0  0  0  0  0  0  0
   -6.8345  -13.0268   24.0323 C   0  0  2  0  0  0  0  0  0  0  0  0
   -5.9131  -11.8043   24.0265 C   0  0  0  0  0  0  0  0  0  0  0  0
   -5.3704  -11.4735   22.6342 C   0  0  0  0  0  0  0  0  0  0  0  0
  -11.5012  -17.1068   26.5528 N   0  0  0  0  0  0  0  0  0  0  0  0
   -7.7936  -15.0549   24.5681 N   0  0  0  0  0  0  0  0  0  0  0  0
  -11.2770  -17.6272   24.2495 N   0  0  0  0  0  0  0  0  0  0  0  0
   -9.6832  -16.2415   27.6146 O   0  0  0  0  0  0  0  0  0  0  0  0
   -4.0906  -11.6577   19.7363 O   0  5  0  0  0  0  0  0  0  0  0  0
   -1.4502  -15.3654   20.1974 O   0  0  0  0  0  0  0  0  0  0  0  0
   -4.6412  -12.5703   22.0748 O   0  0  0  0  0  0  0  0  0  0  0  0
   -3.6849  -14.1214   20.2409 O   0  0  0  0  0  0  0  0  0  0  0  0
   -1.5014  -12.8115   19.7884 O   0  5  0  0  0  0  0  0  0  0  0  0
   -6.0991  -13.2507   20.0676 O   0  0  0  0  0  0  0  0  0  0  0  0
   -1.9919  -13.7612   22.1220 O   0  0  0  0  0  0  0  0  0  0  0  0
   -8.1603  -13.2207   22.9197 S   0  0  0  0  0  0  0  0  0  0  0  0
   -4.7230  -12.9222   20.5055 P   0  0  2  0  0  0  0  0  0  0  0  0
   -2.1143  -13.9371   20.5285 P   0  0  2  0  0  0  0  0  0  0  0  0
  2 16  2  0  0  0  0
  2  3  1  0  0  0  0
  2 13  1  0  0  0  0
  3  8  2  0  0  0  0
  3  4  1  0  0  0  0
  4 14  1  0  0  0  0
  5  1  1  6  0  0  0
  5 14  1  0  0  0  0
  5 10  1  0  0  0  0
  6  7  1  0  0  0  0
  7 13  1  0  0  0  0
  7 15  2  0  0  0  0
  8 15  1  0  0  0  0
  9 14  1  0  0  0  0
  9 24  1  0  0  0  0
 10 24  1  0  0  0  0
 10 11  1  1  0  0  0
 11 12  1  0  0  0  0
 12 19  1  0  0  0  0
 17 25  1  0  0  0  0
 19 25  1  0  0  0  0
 20 26  1  0  0  0  0
 21 26  1  0  0  0  0
 22 25  2  0  0  0  0
 23 26  2  0  0  0  0
 25 20  1  6  0  0  0
 26 18  1  6  0  0  0
M  CHG  2  17  -1  21  -1
M  END
>  <CHROM.1>
-109.83256614,131.65688173,-58.39882534,146.99658591,142.42183324,51.18582760
64.08474820,177.72949974,-6.56828254,-14.45689651,23.03930180,-3.11425969
-0.67623384,-2.48045729

>  <Name>
ligand

>  <RI>
0

>  <Rbt.Current_Directory>
/home/itssahil/PROJECTS/Mol_Feturizer/New_Systems/rnas/3D2X

>  <Rbt.Executable>
rbdock ($Id: //depot/dev/client3/rdock/2013.1/src/exe/rbdock.cxx#4 $)

>  <Rbt.Library>
libRbt.so (2013.1, Build901 2013/11/27)

>  <Rbt.Parameter_File>
/export/apps/rDock/src/rDock_2013.1_src/data/scripts/dock_solv.prm

>  <Rbt.Receptor>
prm/pocket_docking_4.prm

>  <SCORE>
-16.8933

>  <SCORE.INTER>
-17.8171

>  <SCORE.INTER.CONST>
1

>  <SCORE.INTER.POLAR>
0

>  <SCORE.INTER.ROT>
8

>  <SCORE.INTER.SOLV>
8.07475

>  <SCORE.INTER.VDW>
-23.503

>  <SCORE.INTER.norm>
-0.685274

>  <SCORE.INTRA>
0.923828

>  <SCORE.INTRA.DIHEDRAL>
2.3071

>  <SCORE.INTRA.DIHEDRAL.0>
7.88077

>  <SCORE.INTRA.POLAR>
0

>  <SCORE.INTRA.POLAR.0>
0

>  <SCORE.INTRA.REPUL>
0

>  <SCORE.INTRA.REPUL.0>
0

>  <SCORE.INTRA.SOLV>
0.361814

>  <SCORE.INTRA.SOLV.lig_0>
-63.2542

>  <SCORE.INTRA.VDW>
-0.41063

>  <SCORE.INTRA.VDW.0>
-3.15072

>  <SCORE.INTRA.norm>
0.0355318

>  <SCORE.RESTR>
0

>  <SCORE.RESTR.CAVITY>
0

>  <SCORE.RESTR.norm>
0

>  <SCORE.SYSTEM>
0

>  <SCORE.SYSTEM.CONST>
0

>  <SCORE.SYSTEM.DIHEDRAL>
0

>  <SCORE.SYSTEM.SOLV>
0

>  <SCORE.SYSTEM.norm>
0

>  <SCORE.heavy>
26

>  <SCORE.norm>
-0.649742

>  <RMSD>
2.924

$$$$
ligand
 OpenBabel11021811473D
libRbt.so/2013.1/901 2013/11/27
 26 27  0  0  0  0  0  0  0  0999 V2000
   -7.8569  -17.0454   21.7927 C   0  0  0  0  0  0  0  0  0  0  0  0
  -10.7217  -16.8417   23.9438 C   0  0  0  0  0  0  0  0  0  0  0  0
   -9.7280  -16.9208   24.9138 C   0  0  0  0  0  0  0  0  0  0  0  0
   -8.2710  -16.5268   24.6595 C   0  0  0  0  0  0  0  0  0  0  0  0
   -7.9889  -15.6384   22.3832 C   0  0  1  0  0  0  0  0  0  0  0  0
  -13.7519  -17.9950   25.9488 C   0  0  0  0  0  0  0  0  0  0  0  0
  -12.3177  -17.6217   25.5709 C   0  0  0  0  0  0  0  0  0  0  0  0
  -10.0894  -17.3597   26.1836 C   0  0  0  0  0  0  0  0  0  0  0  0
   -8.3060  -14.1596   24.0849 C   0  0  0  0  0  0  0  0  0  0  0  0
   -7.9311  -14.4972   21.5923 C   0  0  2  0  0  0  0  0  0  0  0  0
   -7.7499  -14.3319   20.0812 C   0  0  0  0  0  0  0  0  0  0  0  0
   -6.7258  -13.2541   19.7180 C   0  0  0  0  0  0  0  0  0  0  0  0
  -12.0337  -17.1936   24.2673 N   0  0  0  0  0  0  0  0  0  0  0  0
   -8.1822  -15.4270   23.6881 N   0  0  0  0  0  0  0  0  0  0  0  0
  -11.3332  -17.6893   26.4785 N   0  0  0  0  0  0  0  0  0  0  0  0
  -10.4509  -16.4603   22.8049 O   0  0  0  0  0  0  0  0  0  0  0  0
   -4.2028  -11.7813   21.4694 O   0  5  0  0  0  0  0  0  0  0  0  0
   -1.1705  -15.2799   19.4864 O   0  0  0  0  0  0  0  0  0  0  0  0
   -5.4048  -13.6169   20.1314 O   0  0  0  0  0  0  0  0  0  0  0  0
   -2.8266  -13.4287   20.0978 O   0  0  0  0  0  0  0  0  0  0  0  0
   -3.7042  -15.7987   19.5486 O   0  5  0  0  0  0  0  0  0  0  0  0
   -4.2665  -11.6741   18.8875 O   0  0  0  0  0  0  0  0  0  0  0  0
   -2.7306  -14.3083   17.6995 O   0  0  0  0  0  0  0  0  0  0  0  0
   -8.0779  -13.1476   22.6833 S   0  0  0  0  0  0  0  0  0  0  0  0
   -4.1846  -12.5681   20.0654 P   0  0  2  0  0  0  0  0  0  0  0  0
   -2.6792  -14.7777   19.2365 P   0  0  2  0  0  0  0  0  0  0  0  0
  2 16  2  0  0  0  0
  2  3  1  0  0  0  0
  2 13  1  0  0  0  0
  3  8  2  0  0  0  0
  3  4  1  0  0  0  0
  4 14  1  0  0  0  0
  5  1  1  6  0  0  0
  5 14  1  0  0  0  0
  5 10  1  0  0  0  0
  6  7  1  0  0  0  0
  7 13  1  0  0  0  0
  7 15  2  0  0  0  0
  8 15  1  0  0  0  0
  9 14  1  0  0  0  0
  9 24  1  0  0  0  0
 10 24  1  0  0  0  0
 10 11  1  1  0  0  0
 11 12  1  0  0  0  0
 12 19  1  0  0  0  0
 17 25  1  0  0  0  0
 19 25  1  0  0  0  0
 20 26  1  0  0  0  0
 21 26  1  0  0  0  0
 22 25  2  0  0  0  0
 23 26  2  0  0  0  0
 25 20  1  6  0  0  0
 26 18  1  1  0  0  0
M  CHG  2  17  -1  21  -1
M  END
>  <CHROM.1>
32.42336953,-134.30473676,66.02169904,-94.84386480,-170.80761767,154.49733634
88.20848528,177.19639103,-6.94642502,-14.92919057,21.88434304,-2.70133173
0.55390923,-0.18862231

>  <Name>
ligand

>  <RI>
0

>  <Rbt.Current_Directory>
/home/itssahil/PROJECTS/Mol_Feturizer/New_Systems/rnas/3D2X

>  <Rbt.Executable>
rbdock ($Id: //depot/dev/client3/rdock/2013.1/src/exe/rbdock.cxx#4 $)

>  <Rbt.Library>
libRbt.so (2013.1, Build901 2013/11/27)

>  <Rbt.Parameter_File>
/export/apps/rDock/src/rDock_2013.1_src/data/scripts/dock_solv.prm

>  <Rbt.Receptor>
prm/pocket_docking_2.prm

>  <SCORE>
-14.9491

>  <SCORE.INTER>
-16.3746

>  <SCORE.INTER.CONST>
1

>  <SCORE.INTER.POLAR>
0

>  <SCORE.INTER.ROT>
8

>  <SCORE.INTER.SOLV>
10.1361

>  <SCORE.INTER.VDW>
-23.2284

>  <SCORE.INTER.norm>
-0.629792

>  <SCORE.INTRA>
0.0503624

>  <SCORE.INTRA.DIHEDRAL>
-0.636979

>  <SCORE.INTRA.DIHEDRAL.0>
7.88077

>  <SCORE.INTRA.POLAR>
0

>  <SCORE.INTRA.POLAR.0>
0

>  <SCORE.INTRA.REPUL>
0

>  <SCORE.INTRA.REPUL.0>
0

>  <SCORE.INTRA.SOLV>
0.327156

>  <SCORE.INTRA.SOLV.lig_0>
-63.2542

>  <SCORE.INTRA.VDW>
0.205274

>  <SCORE.INTRA.VDW.0>
-3.15072

>  <SCORE.INTRA.norm>
0.00193701

>  <SCORE.RESTR>
1.37517

>  <SCORE.RESTR.CAVITY>
1.37517

>  <SCORE.RESTR.norm>
0.0528911

>  <SCORE.SYSTEM>
0

>  <SCORE.SYSTEM.CONST>
0

>  <SCORE.SYSTEM.DIHEDRAL>
0

>  <SCORE.SYSTEM.SOLV>
0

>  <SCORE.SYSTEM.norm>
0

>  <SCORE.heavy>
26

>  <SCORE.norm>
-0.574964

>  <RMSD>
2.926

$$$$
ligand
 OpenBabel11021811473D
libRbt.so/2013.1/901 2013/11/27
 26 27  0  0  0  0  0  0  0  0999 V2000
   -5.5518  -14.4151   25.5342 C   0  0  0  0  0  0  0  0  0  0  0  0
   -9.8539  -17.1721   24.4702 C   0  0  0  0  0  0  0  0  0  0  0  0
   -9.4895  -16.4899   25.6263 C   0  0  0  0  0  0  0  0  0  0  0  0
   -8.1379  -15.7934   25.8013 C   0  0  0  0  0  0  0  0  0  0  0  0
   -6.7224  -14.2029   24.5697 C   0  0  1  0  0  0  0  0  0  0  0  0
  -13.3928  -18.2568   25.3823 C   0  0  0  0  0  0  0  0  0  0  0  0
  -11.9963  -17.6390   25.4677 C   0  0  0  0  0  0  0  0  0  0  0  0
  -10.4149  -16.4224   26.6629 C   0  0  0  0  0  0  0  0  0  0  0  0
   -8.8258  -14.5977   23.7933 C   0  0  0  0  0  0  0  0  0  0  0  0
   -6.6368  -13.3409   23.4829 C   0  0  2  0  0  0  0  0  0  0  0  0
   -5.4844  -12.4642   22.9862 C   0  0  0  0  0  0  0  0  0  0  0  0
   -5.5189  -12.2352   21.4733 C   0  0  0  0  0  0  0  0  0  0  0  0
  -11.1193  -17.7556   24.3811 N   0  0  0  0  0  0  0  0  0  0  0  0
   -7.8862  -14.8443   24.7073 N   0  0  0  0  0  0  0  0  0  0  0  0
  -11.6088  -16.9774   26.5677 N   0  0  0  0  0  0  0  0  0  0  0  0
   -9.0688  -17.2603   23.5259 O   0  0  0  0  0  0  0  0  0  0  0  0
   -7.6535  -13.4653   19.3987 O   0  5  0  0  0  0  0  0  0  0  0  0
   -7.7000  -12.1531   16.9949 O   0  0  0  0  0  0  0  0  0  0  0  0
   -5.4669  -13.4682   20.7489 O   0  0  0  0  0  0  0  0  0  0  0  0
   -5.6102  -12.2635   18.4660 O   0  0  0  0  0  0  0  0  0  0  0  0
   -5.6457  -10.6930   16.4116 O   0  5  0  0  0  0  0  0  0  0  0  0
   -5.6213  -14.8335   18.5742 O   0  0  0  0  0  0  0  0  0  0  0  0
   -5.5559  -13.2396   16.1041 O   0  0  0  0  0  0  0  0  0  0  0  0
   -8.1971  -13.3842   22.7104 S   0  0  0  0  0  0  0  0  0  0  0  0
   -6.0555  -13.5920   19.2551 P   0  0  2  0  0  0  0  0  0  0  0  0
   -6.0990  -11.9910   16.9593 P   0  0  2  0  0  0  0  0  0  0  0  0
  2 16  2  0  0  0  0
  2  3  1  0  0  0  0
  2 13  1  0  0  0  0
  3  8  2  0  0  0  0
  3  4  1  0  0  0  0
  4 14  1  0  0  0  0
  5  1  1  6  0  0  0
  5 14  1  0  0  0  0
  5 10  1  0  0  0  0
  6  7  1  0  0  0  0
  7 13  1  0  0  0  0
  7 15  2  0  0  0  0
  8 15  1  0  0  0  0
  9 14  1  0  0  0  0
  9 24  1  0  0  0  0
 10 24  1  0  0  0  0
 10 11  1  1  0  0  0
 11 12  1  0  0  0  0
 12 19  1  0  0  0  0
 17 25  1  0  0  0  0
 19 25  1  0  0  0  0
 20 26  1  0  0  0  0
 21 26  1  0  0  0  0
 22 25  2  0  0  0  0
 23 26  2  0  0  0  0
 25 20  1  6  0  0  0
 26 18  1  6  0  0  0
M  CHG  2  17  -1  21  -1
M  END
>  <CHROM.1>
54.30328012,151.11459401,-58.55524616,-173.79652002,155.39905498,-64.06045904
-69.11575728,52.23410256,-7.67755919,-14.30735254,21.78421780,-2.14165173
-0.59797380,-1.40616247

>  <Name>
ligand

>  <RI>
0

>  <Rbt.Current_Directory>
/home/itssahil/PROJECTS/Mol_Feturizer/New_Systems/rnas/3D2X

>  <Rbt.Executable>
rbdock ($Id: //depot/dev/client3/rdock/2013.1/src/exe/rbdock.cxx#4 $)

>  <Rbt.Library>
libRbt.so (2013.1, Build901 2013/11/27)

>  <Rbt.Parameter_File>
/export/apps/rDock/src/rDock_2013.1_src/data/scripts/dock_solv.prm

>  <Rbt.Receptor>
prm/pocket_docking_5.prm

>  <SCORE>
-19.5382

>  <SCORE.INTER>
-20.0311

>  <SCORE.INTER.CONST>
1

>  <SCORE.INTER.POLAR>
0

>  <SCORE.INTER.ROT>
8

>  <SCORE.INTER.SOLV>
11.3141

>  <SCORE.INTER.VDW>
-26.0588

>  <SCORE.INTER.norm>
-0.770425

>  <SCORE.INTRA>
0.492837

>  <SCORE.INTRA.DIHEDRAL>
-0.117075

>  <SCORE.INTRA.DIHEDRAL.0>
7.88077

>  <SCORE.INTRA.POLAR>
0

>  <SCORE.INTRA.POLAR.0>
0

>  <SCORE.INTRA.REPUL>
0

>  <SCORE.INTRA.REPUL.0>
0

>  <SCORE.INTRA.SOLV>
-0.439911

>  <SCORE.INTRA.SOLV.lig_0>
-63.2542

>  <SCORE.INTRA.VDW>
0.771329

>  <SCORE.INTRA.VDW.0>
-3.15072

>  <SCORE.INTRA.norm>
0.0189553

>  <SCORE.RESTR>
0

>  <SCORE.RESTR.CAVITY>
0

>  <SCORE.RESTR.norm>
0

>  <SCORE.SYSTEM>
0

>  <SCORE.SYSTEM.CONST>
0

>  <SCORE.SYSTEM.DIHEDRAL>
0

>  <SCORE.SYSTEM.SOLV>
0

>  <SCORE.SYSTEM.norm>
0

>  <SCORE.heavy>
26

>  <SCORE.norm>
-0.75147

>  <RMSD>
2.932

$$$$
ligand
 OpenBabel11021811473D
libRbt.so/2013.1/901 2013/11/27
 26 27  0  0  0  0  0  0  0  0999 V2000
   -6.4683  -15.9192   21.4029 C   0  0  0  0  0  0  0  0  0  0  0  0
   -9.6394  -17.0019   25.6810 C   0  0  0  0  0  0  0  0  0  0  0  0
   -9.5126  -17.1067   24.2998 C   0  0  0  0  0  0  0  0  0  0  0  0
   -8.1802  -16.9496   23.5632 C   0  0  0  0  0  0  0  0  0  0  0  0
   -6.9773  -15.0534   22.5592 C   0  0  1  0  0  0  0  0  0  0  0  0
  -13.3636  -17.7009   26.0980 C   0  0  0  0  0  0  0  0  0  0  0  0
  -11.9909  -17.4769   25.4620 C   0  0  0  0  0  0  0  0  0  0  0  0
  -10.6556  -17.3916   23.5595 C   0  0  0  0  0  0  0  0  0  0  0  0
   -8.1604  -14.6884   24.4697 C   0  0  0  0  0  0  0  0  0  0  0  0
   -6.6688  -13.7022   22.6613 C   0  0  2  0  0  0  0  0  0  0  0  0
   -5.8383  -12.7913   21.7536 C   0  0  0  0  0  0  0  0  0  0  0  0
   -6.6981  -11.8571   20.8991 C   0  0  0  0  0  0  0  0  0  0  0  0
  -10.8883  -17.1880   26.2770 N   0  0  0  0  0  0  0  0  0  0  0  0
   -7.7587  -15.5417   23.5266 N   0  0  0  0  0  0  0  0  0  0  0  0
  -11.8313  -17.5662   24.1337 N   0  0  0  0  0  0  0  0  0  0  0  0
   -8.6569  -16.7499   26.3789 O   0  0  0  0  0  0  0  0  0  0  0  0
   -6.4441   -8.6770   19.7694 O   0  5  0  0  0  0  0  0  0  0  0  0
   -4.3173  -10.4989   15.5586 O   0  0  0  0  0  0  0  0  0  0  0  0
   -5.9228  -11.1902   19.8981 O   0  0  0  0  0  0  0  0  0  0  0  0
   -5.5749   -9.8781   17.6979 O   0  0  0  0  0  0  0  0  0  0  0  0
   -4.5489  -12.2400   17.4579 O   0  5  0  0  0  0  0  0  0  0  0  0
   -7.9526  -10.3796   18.5416 O   0  0  0  0  0  0  0  0  0  0  0  0
   -6.5951  -11.5600   16.0654 O   0  0  0  0  0  0  0  0  0  0  0  0
   -7.4127  -13.1489   24.1357 S   0  0  0  0  0  0  0  0  0  0  0  0
   -6.5662  -10.0577   18.9513 P   0  0  2  0  0  0  0  0  0  0  0  0
   -5.2068  -11.1208   16.7472 P   0  0  2  0  0  0  0  0  0  0  0  0
  2 16  2  0  0  0  0
  2  3  1  0  0  0  0
  2 13  1  0  0  0  0
  3  8  2  0  0  0  0
  3  4  1  0  0  0  0
  4 14  1  0  0  0  0
  5  1  1  6  0  0  0
  5 14  1  0  0  0  0
  5 10  1  0  0  0  0
  6  7  1  0  0  0  0
  7 13  1  0  0  0  0
  7 15  2  0  0  0  0
  8 15  1  0  0  0  0
  9 14  1  0  0  0  0
  9 24  1  0  0  0  0
 10 24  1  0  0  0  0
 10 11  1  1  0  0  0
 11 12  1  0  0  0  0
 12 19  1  0  0  0  0
 17 25  1  0  0  0  0
 19 25  1  0  0  0  0
 20 26  1  0  0  0  0
 21 26  1  0  0  0  0
 22 25  2  0  0  0  0
 23 26  2  0  0  0  0
 25 20  1  6  0  0  0
 26 18  1  6  0  0  0
M  CHG  2  17  -1  21  -1
M  END
>  <CHROM.1>
-73.67583569,104.35464819,-169.69918744,-153.06462166,-174.62958554,169.82765281
85.94928297,174.91027729,-7.57188947,-13.51571517,21.43020515,2.48527817
1.00484466,1.43686573

>  <Name>
ligand

>  <RI>
0

>  <Rbt.Current_Directory>
/home/itssahil/PROJECTS/Mol_Feturizer/New_Systems/rnas/3D2X

>  <Rbt.Executable>
rbdock ($Id: //depot/dev/client3/rdock/2013.1/src/exe/rbdock.cxx#4 $)

>  <Rbt.Library>
libRbt.so (2013.1, Build901 2013/11/27)

>  <Rbt.Parameter_File>
/export/apps/rDock/src/rDock_2013.1_src/data/scripts/dock_solv.prm

>  <Rbt.Receptor>
prm/pocket_docking_4.prm

>  <SCORE>
-16.7041

>  <SCORE.INTER>
-15.9474

>  <SCORE.INTER.CONST>
1

>  <SCORE.INTER.POLAR>
0

>  <SCORE.INTER.ROT>
8

>  <SCORE.INTER.SOLV>
15.9176

>  <SCORE.INTER.VDW>
-24.8708

>  <SCORE.INTER.norm>
-0.613361

>  <SCORE.INTRA>
-0.756669

>  <SCORE.INTRA.DIHEDRAL>
-1.3915

>  <SCORE.INTRA.DIHEDRAL.0>
7.88077

>  <SCORE.INTRA.POLAR>
0

>  <SCORE.INTRA.POLAR.0>
0

>  <SCORE.INTRA.REPUL>
0

>  <SCORE.INTRA.REPUL.0>
0

>  <SCORE.INTRA.SOLV>
-0.266516

>  <SCORE.INTRA.SOLV.lig_0>
-63.2542

>  <SCORE.INTRA.VDW>
0.072337

>  <SCORE.INTRA.VDW.0>
-3.15072

>  <SCORE.INTRA.norm>
-0.0291026

>  <SCORE.RESTR>
0

>  <SCORE.RESTR.CAVITY>
0

>  <SCORE.RESTR.norm>
0

>  <SCORE.SYSTEM>
0

>  <SCORE.SYSTEM.CONST>
0

>  <SCORE.SYSTEM.DIHEDRAL>
0

>  <SCORE.SYSTEM.SOLV>
0

>  <SCORE.SYSTEM.norm>
0

>  <SCORE.heavy>
26

>  <SCORE.norm>
-0.642464

>  <RMSD>
2.940

$$$$
ligand
 OpenBabel11021811473D
libRbt.so/2013.1/901 2013/11/27
 26 27  0  0  0  0  0  0  0  0999 V2000
   -7.7102  -12.8818   23.2054 C   0  0  0  0  0  0  0  0  0  0  0  0
  -10.4438  -16.3284   23.4392 C   0  0  0  0  0  0  0  0  0  0  0  0
   -9.4864  -16.3106   24.4481 C   0  0  0  0  0  0  0  0  0  0  0  0
   -8.1555  -15.5637   24.3315 C   0  0  0  0  0  0  0  0  0  0  0  0
   -7.5725  -14.1708   22.3898 C   0  0  1  0  0  0  0  0  0  0  0  0
  -13.1744  -18.4056   25.1010 C   0  0  0  0  0  0  0  0  0  0  0  0
  -11.8575  -17.6669   24.8581 C   0  0  0  0  0  0  0  0  0  0  0  0
   -9.7700  -16.9898   25.6287 C   0  0  0  0  0  0  0  0  0  0  0  0
   -7.6028  -16.4316   22.1233 C   0  0  0  0  0  0  0  0  0  0  0  0
   -7.2133  -14.1604   21.0474 C   0  0  2  0  0  0  0  0  0  0  0  0
   -6.8811  -12.9992   20.1067 C   0  0  0  0  0  0  0  0  0  0  0  0
   -7.5740  -13.1165   18.7471 C   0  0  0  0  0  0  0  0  0  0  0  0
  -11.6455  -17.0111   23.6381 N   0  0  0  0  0  0  0  0  0  0  0  0
   -7.7742  -15.3786   22.9239 N   0  0  0  0  0  0  0  0  0  0  0  0
  -10.9099  -17.6315   25.8061 N   0  0  0  0  0  0  0  0  0  0  0  0
  -10.2383  -15.7432   22.3757 O   0  0  0  0  0  0  0  0  0  0  0  0
   -4.4663  -12.1980   18.4898 O   0  5  0  0  0  0  0  0  0  0  0  0
   -2.9991  -14.3081   16.0417 O   0  0  0  0  0  0  0  0  0  0  0  0
   -6.9244  -12.3214   17.7503 O   0  0  0  0  0  0  0  0  0  0  0  0
   -5.2794  -14.2380   17.1988 O   0  0  0  0  0  0  0  0  0  0  0  0
   -3.1672  -14.8242   18.5711 O   0  5  0  0  0  0  0  0  0  0  0  0
   -5.0816  -11.9766   15.9890 O   0  0  0  0  0  0  0  0  0  0  0  0
   -4.1010  -16.4787   16.8452 O   0  0  0  0  0  0  0  0  0  0  0  0
   -7.2283  -15.8240   20.5322 S   0  0  0  0  0  0  0  0  0  0  0  0
   -5.4202  -12.6377   17.2703 P   0  0  2  0  0  0  0  0  0  0  0  0
   -3.8382  -14.9471   17.2577 P   0  0  2  0  0  0  0  0  0  0  0  0
  2 16  2  0  0  0  0
  2  3  1  0  0  0  0
  2 13  1  0  0  0  0
  3  8  2  0  0  0  0
  3  4  1  0  0  0  0
  4 14  1  0  0  0  0
  5  1  1  1  0  0  0
  5 14  1  0  0  0  0
  5 10  1  0  0  0  0
  6  7  1  0  0  0  0
  7 13  1  0  0  0  0
  7 15  2  0  0  0  0
  8 15  1  0  0  0  0
  9 14  1  0  0  0  0
  9 24  1  0  0  0  0
 10 24  1  0  0  0  0
 10 11  1  6  0  0  0
 11 12  1  0  0  0  0
 12 19  1  0  0  0  0
 17 25  1  0  0  0  0
 19 25  1  0  0  0  0
 20 26  1  0  0  0  0
 21 26  1  0  0  0  0
 22 25  2  0  0  0  0
 23 26  2  0  0  0  0
 25 20  1  6  0  0  0
 26 18  1  6  0  0  0
M  CHG  2  17  -1  21  -1
M  END
>  <CHROM.1>
-24.00014454,-134.22908600,-159.95460139,121.36910364,64.83501534,-46.58087334
-72.23362063,-56.80132402,-7.18291438,-14.88795344,20.49978747,2.61069757
-0.78472923,2.85712710

>  <Name>
ligand

>  <RI>
0

>  <Rbt.Current_Directory>
/home/itssahil/PROJECTS/Mol_Feturizer/New_Systems/rnas/3D2X

>  <Rbt.Executable>
rbdock ($Id: //depot/dev/client3/rdock/2013.1/src/exe/rbdock.cxx#4 $)

>  <Rbt.Library>
libRbt.so (2013.1, Build901 2013/11/27)

>  <Rbt.Parameter_File>
/export/apps/rDock/src/rDock_2013.1_src/data/scripts/dock_solv.prm

>  <Rbt.Receptor>
prm/pocket_docking_4.prm

>  <SCORE>
-16.6988

>  <SCORE.INTER>
-16.721

>  <SCORE.INTER.CONST>
1

>  <SCORE.INTER.POLAR>
0

>  <SCORE.INTER.ROT>
8

>  <SCORE.INTER.SOLV>
6.70582

>  <SCORE.INTER.VDW>
-22.3159

>  <SCORE.INTER.norm>
-0.643115

>  <SCORE.INTRA>
0.0221834

>  <SCORE.INTRA.DIHEDRAL>
-0.275419

>  <SCORE.INTRA.DIHEDRAL.0>
7.88077

>  <SCORE.INTRA.POLAR>
0

>  <SCORE.INTRA.POLAR.0>
0

>  <SCORE.INTRA.REPUL>
0

>  <SCORE.INTRA.REPUL.0>
0

>  <SCORE.INTRA.SOLV>
0.316874

>  <SCORE.INTRA.SOLV.lig_0>
-63.2542

>  <SCORE.INTRA.VDW>
0.00145583

>  <SCORE.INTRA.VDW.0>
-3.15072

>  <SCORE.INTRA.norm>
0.000853209

>  <SCORE.RESTR>
0

>  <SCORE.RESTR.CAVITY>
0

>  <SCORE.RESTR.norm>
0

>  <SCORE.SYSTEM>
0

>  <SCORE.SYSTEM.CONST>
0

>  <SCORE.SYSTEM.DIHEDRAL>
0

>  <SCORE.SYSTEM.SOLV>
0

>  <SCORE.SYSTEM.norm>
0

>  <SCORE.heavy>
26

>  <SCORE.norm>
-0.642262

>  <RMSD>
2.947

$$$$
ligand
 OpenBabel11021811473D
libRbt.so/2013.1/901 2013/11/27
 26 27  0  0  0  0  0  0  0  0999 V2000
   -7.3987  -16.8835   21.7312 C   0  0  0  0  0  0  0  0  0  0  0  0
   -9.8728  -16.7759   26.2716 C   0  0  0  0  0  0  0  0  0  0  0  0
   -9.3837  -16.8414   24.9712 C   0  0  0  0  0  0  0  0  0  0  0  0
   -7.9433  -16.4853   24.5954 C   0  0  0  0  0  0  0  0  0  0  0  0
   -7.6545  -15.5089   22.3564 C   0  0  1  0  0  0  0  0  0  0  0  0
  -13.4424  -18.0043   25.7406 C   0  0  0  0  0  0  0  0  0  0  0  0
  -11.9986  -17.5778   25.4708 C   0  0  0  0  0  0  0  0  0  0  0  0
  -10.2474  -17.2753   23.9705 C   0  0  0  0  0  0  0  0  0  0  0  0
   -8.1363  -14.1106   24.0871 C   0  0  0  0  0  0  0  0  0  0  0  0
   -7.6565  -14.3427   21.6005 C   0  0  2  0  0  0  0  0  0  0  0  0
   -7.4391  -14.1181   20.1019 C   0  0  0  0  0  0  0  0  0  0  0  0
   -6.0085  -13.6921   19.7643 C   0  0  0  0  0  0  0  0  0  0  0  0
  -11.1933  -17.1468   26.5335 N   0  0  0  0  0  0  0  0  0  0  0  0
   -7.9054  -15.3526   23.6592 N   0  0  0  0  0  0  0  0  0  0  0  0
  -11.4939  -17.6239   24.2295 N   0  0  0  0  0  0  0  0  0  0  0  0
   -9.1473  -16.3969   27.1912 O   0  0  0  0  0  0  0  0  0  0  0  0
   -5.2162  -15.1462   17.2756 O   0  5  0  0  0  0  0  0  0  0  0  0
   -2.4280  -14.7815   20.0839 O   0  0  0  0  0  0  0  0  0  0  0  0
   -5.0994  -14.7959   19.8189 O   0  0  0  0  0  0  0  0  0  0  0  0
   -3.5995  -16.5506   18.6551 O   0  0  0  0  0  0  0  0  0  0  0  0
   -1.0239  -16.3341   18.5639 O   0  5  0  0  0  0  0  0  0  0  0  0
   -6.1296  -16.9571   18.8781 O   0  0  0  0  0  0  0  0  0  0  0  0
   -2.5217  -14.5210   17.5355 O   0  0  0  0  0  0  0  0  0  0  0  0
   -7.9391  -13.0419   22.7235 S   0  0  0  0  0  0  0  0  0  0  0  0
   -5.0826  -15.9295   18.6752 P   0  0  2  0  0  0  0  0  0  0  0  0
   -2.3026  -15.6024   18.7050 P   0  0  2  0  0  0  0  0  0  0  0  0
  2 16  2  0  0  0  0
  2  3  1  0  0  0  0
  2 13  1  0  0  0  0
  3  8  2  0  0  0  0
  3  4  1  0  0  0  0
  4 14  1  0  0  0  0
  5  1  1  6  0  0  0
  5 14  1  0  0  0  0
  5 10  1  0  0  0  0
  6  7  1  0  0  0  0
  7 13  1  0  0  0  0
  7 15  2  0  0  0  0
  8 15  1  0  0  0  0
  9 14  1  0  0  0  0
  9 24  1  0  0  0  0
 10 24  1  0  0  0  0
 10 11  1  1  0  0  0
 11 12  1  0  0  0  0
 12 19  1  0  0  0  0
 17 25  1  0  0  0  0
 19 25  1  0  0  0  0
 20 26  1  0  0  0  0
 21 26  1  0  0  0  0
 22 25  2  0  0  0  0
 23 26  2  0  0  0  0
 25 20  1  1  0  0  0
 26 18  1  1  0  0  0
M  CHG  2  17  -1  21  -1
M  END
>  <CHROM.1>
-118.37640879,-98.01400968,76.15597214,-104.41392965,73.62363731,66.98520366
42.49787885,59.75718302,-6.82426768,-15.70681438,21.65657955,3.00895645,0.75397875
0.38567204

>  <Name>
ligand

>  <RI>
0

>  <Rbt.Current_Directory>
/home/itssahil/PROJECTS/Mol_Feturizer/New_Systems/rnas/3D2X

>  <Rbt.Executable>
rbdock ($Id: //depot/dev/client3/rdock/2013.1/src/exe/rbdock.cxx#4 $)

>  <Rbt.Library>
libRbt.so (2013.1, Build901 2013/11/27)

>  <Rbt.Parameter_File>
/export/apps/rDock/src/rDock_2013.1_src/data/scripts/dock_solv.prm

>  <Rbt.Receptor>
prm/pocket_docking_4.prm

>  <SCORE>
-23.02

>  <SCORE.INTER>
-22.1949

>  <SCORE.INTER.CONST>
1

>  <SCORE.INTER.POLAR>
0

>  <SCORE.INTER.ROT>
8

>  <SCORE.INTER.SOLV>
15.0903

>  <SCORE.INTER.VDW>
-28.76

>  <SCORE.INTER.norm>
-0.853649

>  <SCORE.INTRA>
-0.825118

>  <SCORE.INTRA.DIHEDRAL>
-0.182293

>  <SCORE.INTRA.DIHEDRAL.0>
7.88077

>  <SCORE.INTRA.POLAR>
0

>  <SCORE.INTRA.POLAR.0>
0

>  <SCORE.INTRA.REPUL>
0

>  <SCORE.INTRA.REPUL.0>
0

>  <SCORE.INTRA.SOLV>
0.811465

>  <SCORE.INTRA.SOLV.lig_0>
-63.2542

>  <SCORE.INTRA.VDW>
-1.1397

>  <SCORE.INTRA.VDW.0>
-3.15072

>  <SCORE.INTRA.norm>
-0.0317353

>  <SCORE.RESTR>
0

>  <SCORE.RESTR.CAVITY>
0

>  <SCORE.RESTR.norm>
0

>  <SCORE.SYSTEM>
0

>  <SCORE.SYSTEM.CONST>
0

>  <SCORE.SYSTEM.DIHEDRAL>
0

>  <SCORE.SYSTEM.SOLV>
0

>  <SCORE.SYSTEM.norm>
0

>  <SCORE.heavy>
26

>  <SCORE.norm>
-0.885385

>  <RMSD>
2.950

$$$$
ligand
 OpenBabel11021811473D
libRbt.so/2013.1/901 2013/11/27
 26 27  0  0  0  0  0  0  0  0999 V2000
   -8.5896  -14.2773   23.0397 C   0  0  0  0  0  0  0  0  0  0  0  0
   -9.8021  -16.4873   26.5303 C   0  0  0  0  0  0  0  0  0  0  0  0
   -9.1492  -16.6085   25.3081 C   0  0  0  0  0  0  0  0  0  0  0  0
   -7.6933  -16.1911   25.0873 C   0  0  0  0  0  0  0  0  0  0  0  0
   -7.9190  -13.8553   24.3503 C   0  0  1  0  0  0  0  0  0  0  0  0
  -13.2066  -17.9626   25.6555 C   0  0  0  0  0  0  0  0  0  0  0  0
  -11.7645  -17.4679   25.5349 C   0  0  0  0  0  0  0  0  0  0  0  0
   -9.8551  -17.1590   24.2432 C   0  0  0  0  0  0  0  0  0  0  0  0
   -6.9738  -14.2570   26.3822 C   0  0  0  0  0  0  0  0  0  0  0  0
   -7.6949  -12.5213   24.6691 C   0  0  2  0  0  0  0  0  0  0  0  0
   -8.0214  -11.2378   23.9012 C   0  0  0  0  0  0  0  0  0  0  0  0
   -6.9701  -10.8918   22.8442 C   0  0  0  0  0  0  0  0  0  0  0  0
  -11.1240  -16.9197   26.6542 N   0  0  0  0  0  0  0  0  0  0  0  0
   -7.5250  -14.7420   25.2686 N   0  0  0  0  0  0  0  0  0  0  0  0
  -11.1046  -17.5649   24.3718 N   0  0  0  0  0  0  0  0  0  0  0  0
   -9.2198  -16.0051   27.5020 O   0  0  0  0  0  0  0  0  0  0  0  0
   -6.2520  -12.9871   19.5900 O   0  5  0  0  0  0  0  0  0  0  0  0
   -5.0274   -8.9775   18.6426 O   0  0  0  0  0  0  0  0  0  0  0  0
   -6.8896  -11.8957   21.8275 O   0  0  0  0  0  0  0  0  0  0  0  0
   -6.8160  -10.5037   19.6503 O   0  0  0  0  0  0  0  0  0  0  0  0
   -5.8493  -11.0380   17.3118 O   0  5  0  0  0  0  0  0  0  0  0  0
   -4.6325  -11.3275   20.7322 O   0  0  0  0  0  0  0  0  0  0  0  0
   -7.3920   -9.0152   17.6535 O   0  0  0  0  0  0  0  0  0  0  0  0
   -6.8793  -12.5246   26.2079 S   0  0  0  0  0  0  0  0  0  0  0  0
   -6.0531  -11.6560   20.4725 P   0  0  2  0  0  0  0  0  0  0  0  0
   -6.2386   -9.9627   18.2512 P   0  0  2  0  0  0  0  0  0  0  0  0
  2 16  2  0  0  0  0
  2  3  1  0  0  0  0
  2 13  1  0  0  0  0
  3  8  2  0  0  0  0
  3  4  1  0  0  0  0
  4 14  1  0  0  0  0
  5  1  1  1  0  0  0
  5 14  1  0  0  0  0
  5 10  1  0  0  0  0
  6  7  1  0  0  0  0
  7 13  1  0  0  0  0
  7 15  2  0  0  0  0
  8 15  1  0  0  0  0
  9 14  1  0  0  0  0
  9 24  1  0  0  0  0
 10 24  1  0  0  0  0
 10 11  1  6  0  0  0
 11 12  1  0  0  0  0
 12 19  1  0  0  0  0
 17 25  1  0  0  0  0
 19 25  1  0  0  0  0
 20 26  1  0  0  0  0
 21 26  1  0  0  0  0
 22 25  2  0  0  0  0
 23 26  2  0  0  0  0
 25 20  1  6  0  0  0
 26 18  1  1  0  0  0
M  CHG  2  17  -1  21  -1
M  END
>  <CHROM.1>
-64.27979731,-82.90750410,63.01613611,-75.80568623,169.23388116,-69.85584220
-178.30110691,-77.46637535,-7.74713906,-13.21188197,22.79739097,2.18436607
0.81149814,1.81844135

>  <Name>
ligand

>  <RI>
0

>  <Rbt.Current_Directory>
/home/itssahil/PROJECTS/Mol_Feturizer/New_Systems/rnas/3D2X

>  <Rbt.Executable>
rbdock ($Id: //depot/dev/client3/rdock/2013.1/src/exe/rbdock.cxx#4 $)

>  <Rbt.Library>
libRbt.so (2013.1, Build901 2013/11/27)

>  <Rbt.Parameter_File>
/export/apps/rDock/src/rDock_2013.1_src/data/scripts/dock_solv.prm

>  <Rbt.Receptor>
prm/pocket_docking_5.prm

>  <SCORE>
-22.3627

>  <SCORE.INTER>
-19.6344

>  <SCORE.INTER.CONST>
1

>  <SCORE.INTER.POLAR>
0

>  <SCORE.INTER.ROT>
8

>  <SCORE.INTER.SOLV>
14.1373

>  <SCORE.INTER.VDW>
-26.7354

>  <SCORE.INTER.norm>
-0.755168

>  <SCORE.INTRA>
-2.72831

>  <SCORE.INTRA.DIHEDRAL>
-2.21381

>  <SCORE.INTRA.DIHEDRAL.0>
7.88077

>  <SCORE.INTRA.POLAR>
0

>  <SCORE.INTRA.POLAR.0>
0

>  <SCORE.INTRA.REPUL>
0

>  <SCORE.INTRA.REPUL.0>
0

>  <SCORE.INTRA.SOLV>
-0.934885

>  <SCORE.INTRA.SOLV.lig_0>
-63.2542

>  <SCORE.INTRA.VDW>
-1.15396

>  <SCORE.INTRA.VDW.0>
-3.15072

>  <SCORE.INTRA.norm>
-0.104935

>  <SCORE.RESTR>
0

>  <SCORE.RESTR.CAVITY>
0

>  <SCORE.RESTR.norm>
0

>  <SCORE.SYSTEM>
0

>  <SCORE.SYSTEM.CONST>
0

>  <SCORE.SYSTEM.DIHEDRAL>
0

>  <SCORE.SYSTEM.SOLV>
0

>  <SCORE.SYSTEM.norm>
0

>  <SCORE.heavy>
26

>  <SCORE.norm>
-0.860103

>  <RMSD>
2.956

$$$$
ligand
 OpenBabel11021811473D
libRbt.so/2013.1/901 2013/11/27
 26 27  0  0  0  0  0  0  0  0999 V2000
   -7.4742  -13.5387   19.9998 C   0  0  0  0  0  0  0  0  0  0  0  0
   -8.4350  -15.0042   23.5579 C   0  0  0  0  0  0  0  0  0  0  0  0
   -9.4716  -15.4690   22.7552 C   0  0  0  0  0  0  0  0  0  0  0  0
   -9.5911  -15.1445   21.2642 C   0  0  0  0  0  0  0  0  0  0  0  0
   -7.5395  -15.0662   19.9097 C   0  0  1  0  0  0  0  0  0  0  0  0
   -9.3405  -16.6314   26.8842 C   0  0  0  0  0  0  0  0  0  0  0  0
   -9.3881  -16.2046   25.4163 C   0  0  0  0  0  0  0  0  0  0  0  0
  -10.4320  -16.2885   23.3396 C   0  0  0  0  0  0  0  0  0  0  0  0
   -8.4490  -17.1018   20.3702 C   0  0  0  0  0  0  0  0  0  0  0  0
   -6.5845  -15.8070   19.2237 C   0  0  2  0  0  0  0  0  0  0  0  0
   -5.3340  -15.3676   18.4577 C   0  0  0  0  0  0  0  0  0  0  0  0
   -4.0353  -15.8396   19.1158 C   0  0  0  0  0  0  0  0  0  0  0  0
   -8.3846  -15.3714   24.9041 N   0  0  0  0  0  0  0  0  0  0  0  0
   -8.5075  -15.7754   20.4969 N   0  0  0  0  0  0  0  0  0  0  0  0
  -10.3741  -16.6298   24.6135 N   0  0  0  0  0  0  0  0  0  0  0  0
   -7.5619  -14.2751   23.0868 O   0  0  0  0  0  0  0  0  0  0  0  0
   -1.7261  -12.6585   19.3149 O   0  5  0  0  0  0  0  0  0  0  0  0
   -4.8738  -11.3167   21.3704 O   0  0  0  0  0  0  0  0  0  0  0  0
   -2.9905  -14.8710   18.9822 O   0  0  0  0  0  0  0  0  0  0  0  0
   -4.2731  -12.6447   19.2683 O   0  0  0  0  0  0  0  0  0  0  0  0
   -3.4733  -10.1967   19.5059 O   0  5  0  0  0  0  0  0  0  0  0  0
   -3.0542  -13.7009   21.2722 O   0  0  0  0  0  0  0  0  0  0  0  0
   -5.9556  -10.7257   19.1229 O   0  0  0  0  0  0  0  0  0  0  0  0
   -7.0850  -17.4705   19.3483 S   0  0  0  0  0  0  0  0  0  0  0  0
   -3.0145  -13.4882   19.8071 P   0  0  2  0  0  0  0  0  0  0  0  0
   -4.5618  -11.1555   19.7996 P   0  0  2  0  0  0  0  0  0  0  0  0
  2 16  2  0  0  0  0
  2  3  1  0  0  0  0
  2 13  1  0  0  0  0
  3  8  2  0  0  0  0
  3  4  1  0  0  0  0
  4 14  1  0  0  0  0
  5  1  1  1  0  0  0
  5 14  1  0  0  0  0
  5 10  1  0  0  0  0
  6  7  1  0  0  0  0
  7 13  1  0  0  0  0
  7 15  2  0  0  0  0
  8 15  1  0  0  0  0
  9 14  1  0  0  0  0
  9 24  1  0  0  0  0
 10 24  1  0  0  0  0
 10 11  1  6  0  0  0
 11 12  1  0  0  0  0
 12 19  1  0  0  0  0
 17 25  1  0  0  0  0
 19 25  1  0  0  0  0
 20 26  1  0  0  0  0
 21 26  1  0  0  0  0
 22 25  2  0  0  0  0
 23 26  2  0  0  0  0
 25 20  1  6  0  0  0
 26 18  1  1  0  0  0
M  CHG  2  17  -1  21  -1
M  END
>  <CHROM.1>
67.16766280,113.73187744,-144.11246920,-111.70046878,71.52670667,-63.97830123
-176.83785577,-63.82997693,-6.25639058,-14.36061728,20.95229001,0.00055071
-0.77874536,-2.41794763

>  <Name>
ligand

>  <RI>
0

>  <Rbt.Current_Directory>
/home/itssahil/PROJECTS/Mol_Feturizer/New_Systems/rnas/3D2X

>  <Rbt.Executable>
rbdock ($Id: //depot/dev/client3/rdock/2013.1/src/exe/rbdock.cxx#4 $)

>  <Rbt.Library>
libRbt.so (2013.1, Build901 2013/11/27)

>  <Rbt.Parameter_File>
/export/apps/rDock/src/rDock_2013.1_src/data/scripts/dock_solv.prm

>  <Rbt.Receptor>
prm/pocket_docking_3.prm

>  <SCORE>
-13.0835

>  <SCORE.INTER>
-12.6762

>  <SCORE.INTER.CONST>
1

>  <SCORE.INTER.POLAR>
0

>  <SCORE.INTER.ROT>
8

>  <SCORE.INTER.SOLV>
6.50138

>  <SCORE.INTER.VDW>
-19.5512

>  <SCORE.INTER.norm>
-0.487545

>  <SCORE.INTRA>
-0.409137

>  <SCORE.INTRA.DIHEDRAL>
1.55303

>  <SCORE.INTRA.DIHEDRAL.0>
7.88077

>  <SCORE.INTRA.POLAR>
0

>  <SCORE.INTRA.POLAR.0>
0

>  <SCORE.INTRA.REPUL>
0.00967455

>  <SCORE.INTRA.REPUL.0>
0

>  <SCORE.INTRA.SOLV>
1.01834

>  <SCORE.INTRA.SOLV.lig_0>
-63.2542

>  <SCORE.INTRA.VDW>
-1.74319

>  <SCORE.INTRA.VDW.0>
-3.15072

>  <SCORE.INTRA.norm>
-0.0157361

>  <SCORE.RESTR>
0.00182613

>  <SCORE.RESTR.CAVITY>
0.00182613

>  <SCORE.RESTR.norm>
7.02357e-05

>  <SCORE.SYSTEM>
0

>  <SCORE.SYSTEM.CONST>
0

>  <SCORE.SYSTEM.DIHEDRAL>
0

>  <SCORE.SYSTEM.SOLV>
0

>  <SCORE.SYSTEM.norm>
0

>  <SCORE.heavy>
26

>  <SCORE.norm>
-0.503211

>  <RMSD>
2.972

$$$$
ligand
 OpenBabel11021811473D
libRbt.so/2013.1/901 2013/11/27
 26 27  0  0  0  0  0  0  0  0999 V2000
   -8.5929  -16.8311   20.2231 C   0  0  0  0  0  0  0  0  0  0  0  0
  -10.3966  -16.9131   25.2729 C   0  0  0  0  0  0  0  0  0  0  0  0
   -9.4949  -16.4515   24.3197 C   0  0  0  0  0  0  0  0  0  0  0  0
   -9.8406  -16.3060   22.8358 C   0  0  0  0  0  0  0  0  0  0  0  0
   -8.3953  -15.5283   21.0037 C   0  0  1  0  0  0  0  0  0  0  0  0
   -8.2744  -16.6532   28.4290 C   0  0  0  0  0  0  0  0  0  0  0  0
   -8.7114  -16.5943   26.9646 C   0  0  0  0  0  0  0  0  0  0  0  0
   -8.2234  -16.0840   24.7485 C   0  0  0  0  0  0  0  0  0  0  0  0
   -8.7513  -14.1282   22.7633 C   0  0  0  0  0  0  0  0  0  0  0  0
   -7.6109  -14.4886   20.5189 C   0  0  2  0  0  0  0  0  0  0  0  0
   -6.8179  -14.3533   19.2165 C   0  0  0  0  0  0  0  0  0  0  0  0
   -5.3122  -14.2064   19.4479 C   0  0  0  0  0  0  0  0  0  0  0  0
  -10.0092  -16.9881   26.6123 N   0  0  0  0  0  0  0  0  0  0  0  0
   -8.9767  -15.3095   22.1865 N   0  0  0  0  0  0  0  0  0  0  0  0
   -7.8681  -16.1585   26.0177 N   0  0  0  0  0  0  0  0  0  0  0  0
  -11.5332  -17.2515   24.9422 O   0  0  0  0  0  0  0  0  0  0  0  0
   -4.4754  -13.8554   22.5519 O   0  5  0  0  0  0  0  0  0  0  0  0
   -1.7874  -11.8046   19.5762 O   0  0  0  0  0  0  0  0  0  0  0  0
   -5.0016  -13.0169   20.1803 O   0  0  0  0  0  0  0  0  0  0  0  0
   -2.6444  -13.8920   20.7812 O   0  0  0  0  0  0  0  0  0  0  0  0
   -0.4102  -13.9925   19.4824 O   0  5  0  0  0  0  0  0  0  0  0  0
   -3.4595  -11.6342   21.7058 O   0  0  0  0  0  0  0  0  0  0  0  0
   -2.6411  -13.8096   18.2263 O   0  0  0  0  0  0  0  0  0  0  0  0
   -7.6390  -13.2523   21.7452 S   0  0  0  0  0  0  0  0  0  0  0  0
   -3.8703  -13.0055   21.3263 P   0  0  2  0  0  0  0  0  0  0  0  0
   -1.7716  -13.4131   19.5193 P   0  0  2  0  0  0  0  0  0  0  0  0
  2 16  2  0  0  0  0
  2  3  1  0  0  0  0
  2 13  1  0  0  0  0
  3  8  2  0  0  0  0
  3  4  1  0  0  0  0
  4 14  1  0  0  0  0
  5  1  1  6  0  0  0
  5 14  1  0  0  0  0
  5 10  1  0  0  0  0
  6  7  1  0  0  0  0
  7 13  1  0  0  0  0
  7 15  2  0  0  0  0
  8 15  1  0  0  0  0
  9 14  1  0  0  0  0
  9 24  1  0  0  0  0
 10 24  1  0  0  0  0
 10 11  1  1  0  0  0
 11 12  1  0  0  0  0
 12 19  1  0  0  0  0
 17 25  1  0  0  0  0
 19 25  1  0  0  0  0
 20 26  1  0  0  0  0
 21 26  1  0  0  0  0
 22 25  2  0  0  0  0
 23 26  2  0  0  0  0
 25 20  1  6  0  0  0
 26 18  1  1  0  0  0
M  CHG  2  17  -1  21  -1
M  END
>  <CHROM.1>
155.77193216,-117.30786520,-62.58011152,134.44589124,139.90110653,178.71272521
-70.48086457,31.16868847,-6.20694214,-14.57733525,22.06379072,2.47090192
0.32850602,1.73748673

>  <Name>
ligand

>  <RI>
0

>  <Rbt.Current_Directory>
/home/itssahil/PROJECTS/Mol_Feturizer/New_Systems/rnas/3D2X

>  <Rbt.Executable>
rbdock ($Id: //depot/dev/client3/rdock/2013.1/src/exe/rbdock.cxx#4 $)

>  <Rbt.Library>
libRbt.so (2013.1, Build901 2013/11/27)

>  <Rbt.Parameter_File>
/export/apps/rDock/src/rDock_2013.1_src/data/scripts/dock_solv.prm

>  <Rbt.Receptor>
prm/pocket_docking_3.prm

>  <SCORE>
-11.3696

>  <SCORE.INTER>
-12.8288

>  <SCORE.INTER.CONST>
1

>  <SCORE.INTER.POLAR>
0

>  <SCORE.INTER.ROT>
8

>  <SCORE.INTER.SOLV>
8.18657

>  <SCORE.INTER.VDW>
-20.2147

>  <SCORE.INTER.norm>
-0.493415

>  <SCORE.INTRA>
1.2762

>  <SCORE.INTRA.DIHEDRAL>
3.98718

>  <SCORE.INTRA.DIHEDRAL.0>
7.88077

>  <SCORE.INTRA.POLAR>
0

>  <SCORE.INTRA.POLAR.0>
0

>  <SCORE.INTRA.REPUL>
0

>  <SCORE.INTRA.REPUL.0>
0

>  <SCORE.INTRA.SOLV>
-0.776565

>  <SCORE.INTRA.SOLV.lig_0>
-63.2542

>  <SCORE.INTRA.VDW>
-0.329112

>  <SCORE.INTRA.VDW.0>
-3.15072

>  <SCORE.INTRA.norm>
0.0490844

>  <SCORE.RESTR>
0.182988

>  <SCORE.RESTR.CAVITY>
0.182988

>  <SCORE.RESTR.norm>
0.00703799

>  <SCORE.SYSTEM>
0

>  <SCORE.SYSTEM.CONST>
0

>  <SCORE.SYSTEM.DIHEDRAL>
0

>  <SCORE.SYSTEM.SOLV>
0

>  <SCORE.SYSTEM.norm>
0

>  <SCORE.heavy>
26

>  <SCORE.norm>
-0.437293

>  <RMSD>
2.976

$$$$
ligand
 OpenBabel11021811473D
libRbt.so/2013.1/901 2013/11/27
 26 27  0  0  0  0  0  0  0  0999 V2000
   -6.6575  -17.3765   22.6097 C   0  0  0  0  0  0  0  0  0  0  0  0
  -10.4738  -16.6475   25.8946 C   0  0  0  0  0  0  0  0  0  0  0  0
  -10.2291  -16.5651   24.5278 C   0  0  0  0  0  0  0  0  0  0  0  0
   -8.9177  -16.0403   23.9383 C   0  0  0  0  0  0  0  0  0  0  0  0
   -7.8666  -16.8167   21.8545 C   0  0  1  0  0  0  0  0  0  0  0  0
  -13.9643  -18.1802   25.8904 C   0  0  0  0  0  0  0  0  0  0  0  0
  -12.6359  -17.5932   25.4108 C   0  0  0  0  0  0  0  0  0  0  0  0
  -11.2229  -17.0053   23.6595 C   0  0  0  0  0  0  0  0  0  0  0  0
   -9.8946  -15.7910   21.7206 C   0  0  0  0  0  0  0  0  0  0  0  0
   -7.9834  -16.9127   20.4730 C   0  0  2  0  0  0  0  0  0  0  0  0
   -7.0552  -17.5383   19.4287 C   0  0  0  0  0  0  0  0  0  0  0  0
   -5.7789  -16.7247   19.2020 C   0  0  0  0  0  0  0  0  0  0  0  0
  -11.6876  -17.1664   26.3499 N   0  0  0  0  0  0  0  0  0  0  0  0
   -8.8846  -16.2186   22.4795 N   0  0  0  0  0  0  0  0  0  0  0  0
  -12.3666  -17.4946   24.1010 N   0  0  0  0  0  0  0  0  0  0  0  0
   -9.6256  -16.2692   26.7028 O   0  0  0  0  0  0  0  0  0  0  0  0
   -4.7866  -13.6052   19.6804 O   0  5  0  0  0  0  0  0  0  0  0  0
   -4.5316  -11.9055   17.7151 O   0  0  0  0  0  0  0  0  0  0  0  0
   -6.0434  -15.5084   18.4961 O   0  0  0  0  0  0  0  0  0  0  0  0
   -6.7718  -13.0476   18.1847 O   0  0  0  0  0  0  0  0  0  0  0  0
   -5.4745  -13.6188   16.0216 O   0  5  0  0  0  0  0  0  0  0  0  0
   -7.1782  -14.2420   20.4264 O   0  0  0  0  0  0  0  0  0  0  0  0
   -6.5918  -11.3254   16.3043 O   0  0  0  0  0  0  0  0  0  0  0  0
   -9.4726  -16.1101   20.0591 S   0  0  0  0  0  0  0  0  0  0  0  0
   -6.2581  -14.1143   19.2729 P   0  0  2  0  0  0  0  0  0  0  0  0
   -5.8148  -12.5539   16.9915 P   0  0  2  0  0  0  0  0  0  0  0  0
  2 16  2  0  0  0  0
  2  3  1  0  0  0  0
  2 13  1  0  0  0  0
  3  8  2  0  0  0  0
  3  4  1  0  0  0  0
  4 14  1  0  0  0  0
  5  1  1  1  0  0  0
  5 14  1  0  0  0  0
  5 10  1  0  0  0  0
  6  7  1  0  0  0  0
  7 13  1  0  0  0  0
  7 15  2  0  0  0  0
  8 15  1  0  0  0  0
  9 14  1  0  0  0  0
  9 24  1  0  0  0  0
 10 24  1  0  0  0  0
 10 11  1  6  0  0  0
 11 12  1  0  0  0  0
 12 19  1  0  0  0  0
 17 25  1  0  0  0  0
 19 25  1  0  0  0  0
 20 26  1  0  0  0  0
 21 26  1  0  0  0  0
 22 25  2  0  0  0  0
 23 26  2  0  0  0  0
 25 20  1  6  0  0  0
 26 18  1  1  0  0  0
M  CHG  2  17  -1  21  -1
M  END
>  <CHROM.1>
173.26738071,-72.00667000,-71.79246485,-128.15581550,96.08329288,45.15453474
78.15248878,-58.77735553,-8.12520961,-15.36441324,20.97651496,-2.15910654
0.13808683,-0.99156976

>  <Name>
ligand

>  <RI>
0

>  <Rbt.Current_Directory>
/home/itssahil/PROJECTS/Mol_Feturizer/New_Systems/rnas/3D2X

>  <Rbt.Executable>
rbdock ($Id: //depot/dev/client3/rdock/2013.1/src/exe/rbdock.cxx#4 $)

>  <Rbt.Library>
libRbt.so (2013.1, Build901 2013/11/27)

>  <Rbt.Parameter_File>
/export/apps/rDock/src/rDock_2013.1_src/data/scripts/dock_solv.prm

>  <Rbt.Receptor>
prm/pocket_docking_4.prm

>  <SCORE>
-23.399

>  <SCORE.INTER>
-25.5523

>  <SCORE.INTER.CONST>
1

>  <SCORE.INTER.POLAR>
0

>  <SCORE.INTER.ROT>
8

>  <SCORE.INTER.SOLV>
14.2063

>  <SCORE.INTER.VDW>
-30.7036

>  <SCORE.INTER.norm>
-0.982781

>  <SCORE.INTRA>
2.15332

>  <SCORE.INTRA.DIHEDRAL>
2.5529

>  <SCORE.INTRA.DIHEDRAL.0>
7.88077

>  <SCORE.INTRA.POLAR>
0

>  <SCORE.INTRA.POLAR.0>
0

>  <SCORE.INTRA.REPUL>
0

>  <SCORE.INTRA.REPUL.0>
0

>  <SCORE.INTRA.SOLV>
1.35672

>  <SCORE.INTRA.SOLV.lig_0>
-63.2542

>  <SCORE.INTRA.VDW>
0.19851

>  <SCORE.INTRA.VDW.0>
-3.15072

>  <SCORE.INTRA.norm>
0.08282

>  <SCORE.RESTR>
0

>  <SCORE.RESTR.CAVITY>
0

>  <SCORE.RESTR.norm>
0

>  <SCORE.SYSTEM>
0

>  <SCORE.SYSTEM.CONST>
0

>  <SCORE.SYSTEM.DIHEDRAL>
0

>  <SCORE.SYSTEM.SOLV>
0

>  <SCORE.SYSTEM.norm>
0

>  <SCORE.heavy>
26

>  <SCORE.norm>
-0.899961

>  <RMSD>
3.000

$$$$
ligand
 OpenBabel11021811473D
libRbt.so/2013.1/901 2013/11/27
 26 27  0  0  0  0  0  0  0  0999 V2000
   -6.6943  -17.2306   19.2486 C   0  0  0  0  0  0  0  0  0  0  0  0
   -7.9259  -16.7949   23.7012 C   0  0  0  0  0  0  0  0  0  0  0  0
   -8.9860  -16.8761   22.8044 C   0  0  0  0  0  0  0  0  0  0  0  0
   -8.7995  -16.9715   21.2882 C   0  0  0  0  0  0  0  0  0  0  0  0
   -7.1272  -15.8883   19.8458 C   0  0  1  0  0  0  0  0  0  0  0  0
   -9.8132  -16.7261   27.0127 C   0  0  0  0  0  0  0  0  0  0  0  0
   -9.5125  -16.7678   25.5138 C   0  0  0  0  0  0  0  0  0  0  0  0
  -10.2776  -16.8939   23.3210 C   0  0  0  0  0  0  0  0  0  0  0  0
   -8.3989  -14.5702   21.1980 C   0  0  0  0  0  0  0  0  0  0  0  0
   -6.5537  -14.6854   19.4516 C   0  0  2  0  0  0  0  0  0  0  0  0
   -5.4605  -14.3846   18.4231 C   0  0  0  0  0  0  0  0  0  0  0  0
   -4.2990  -13.5768   19.0068 C   0  0  0  0  0  0  0  0  0  0  0  0
   -8.1828  -16.7403   25.0727 N   0  0  0  0  0  0  0  0  0  0  0  0
   -8.0899  -15.7941   20.7673 N   0  0  0  0  0  0  0  0  0  0  0  0
  -10.5089  -16.8423   24.6196 N   0  0  0  0  0  0  0  0  0  0  0  0
   -6.7648  -16.7748   23.2924 O   0  0  0  0  0  0  0  0  0  0  0  0
   -2.0342  -11.1028   17.0641 O   0  5  0  0  0  0  0  0  0  0  0  0
   -1.9797   -8.8168   18.6455 O   0  0  0  0  0  0  0  0  0  0  0  0
   -3.4635  -13.0319   17.9808 O   0  0  0  0  0  0  0  0  0  0  0  0
   -2.6838  -11.1125   19.5272 O   0  0  0  0  0  0  0  0  0  0  0  0
   -2.2536   -9.1806   21.1920 O   0  5  0  0  0  0  0  0  0  0  0  0
   -0.9902  -12.8450   18.6630 O   0  0  0  0  0  0  0  0  0  0  0  0
   -0.3035  -10.2712   19.9286 O   0  0  0  0  0  0  0  0  0  0  0  0
   -7.3136  -13.4509   20.4169 S   0  0  0  0  0  0  0  0  0  0  0  0
   -2.2135  -12.0789   18.3311 P   0  0  2  0  0  0  0  0  0  0  0  0
   -1.8406   -9.7995   19.9126 P   0  0  2  0  0  0  0  0  0  0  0  0
  2 16  2  0  0  0  0
  2  3  1  0  0  0  0
  2 13  1  0  0  0  0
  3  8  2  0  0  0  0
  3  4  1  0  0  0  0
  4 14  1  0  0  0  0
  5  1  1  6  0  0  0
  5 14  1  0  0  0  0
  5 10  1  0  0  0  0
  6  7  1  0  0  0  0
  7 13  1  0  0  0  0
  7 15  2  0  0  0  0
  8 15  1  0  0  0  0
  9 14  1  0  0  0  0
  9 24  1  0  0  0  0
 10 24  1  0  0  0  0
 10 11  1  1  0  0  0
 11 12  1  0  0  0  0
 12 19  1  0  0  0  0
 17 25  1  0  0  0  0
 19 25  1  0  0  0  0
 20 26  1  0  0  0  0
 21 26  1  0  0  0  0
 22 25  2  0  0  0  0
 23 26  2  0  0  0  0
 25 20  1  1  0  0  0
 26 18  1  6  0  0  0
M  CHG  2  17  -1  21  -1
M  END
>  <CHROM.1>
-60.48981867,-125.76496611,-165.75853230,137.69576813,176.87709227,-53.23592083
-151.01318907,66.46396781,-5.41881254,-13.75933436,20.74367901,2.91923203
0.78942915,1.20863422

>  <Name>
ligand

>  <RI>
0

>  <Rbt.Current_Directory>
/home/itssahil/PROJECTS/Mol_Feturizer/New_Systems/rnas/3D2X

>  <Rbt.Executable>
rbdock ($Id: //depot/dev/client3/rdock/2013.1/src/exe/rbdock.cxx#4 $)

>  <Rbt.Library>
libRbt.so (2013.1, Build901 2013/11/27)

>  <Rbt.Parameter_File>
/export/apps/rDock/src/rDock_2013.1_src/data/scripts/dock_solv.prm

>  <Rbt.Receptor>
prm/pocket_docking_4.prm

>  <SCORE>
-12.8937

>  <SCORE.INTER>
-12.119

>  <SCORE.INTER.CONST>
1

>  <SCORE.INTER.POLAR>
0

>  <SCORE.INTER.ROT>
8

>  <SCORE.INTER.SOLV>
10.8781

>  <SCORE.INTER.VDW>
-20.6387

>  <SCORE.INTER.norm>
-0.466115

>  <SCORE.INTRA>
-0.774675

>  <SCORE.INTRA.DIHEDRAL>
-0.671886

>  <SCORE.INTRA.DIHEDRAL.0>
7.88077

>  <SCORE.INTRA.POLAR>
0

>  <SCORE.INTRA.POLAR.0>
0

>  <SCORE.INTRA.REPUL>
0

>  <SCORE.INTRA.REPUL.0>
0

>  <SCORE.INTRA.SOLV>
-0.580003

>  <SCORE.INTRA.SOLV.lig_0>
-63.2542

>  <SCORE.INTRA.VDW>
-0.148731

>  <SCORE.INTRA.VDW.0>
-3.15072

>  <SCORE.INTRA.norm>
-0.0297952

>  <SCORE.RESTR>
0

>  <SCORE.RESTR.CAVITY>
0

>  <SCORE.RESTR.norm>
0

>  <SCORE.SYSTEM>
0

>  <SCORE.SYSTEM.CONST>
0

>  <SCORE.SYSTEM.DIHEDRAL>
0

>  <SCORE.SYSTEM.SOLV>
0

>  <SCORE.SYSTEM.norm>
0

>  <SCORE.heavy>
26

>  <SCORE.norm>
-0.49591

>  <RMSD>
3.033

$$$$
ligand
 OpenBabel11021811473D
libRbt.so/2013.1/901 2013/11/27
 26 27  0  0  0  0  0  0  0  0999 V2000
   -7.7500  -16.9285   21.8736 C   0  0  0  0  0  0  0  0  0  0  0  0
  -10.0249  -16.7203   26.3738 C   0  0  0  0  0  0  0  0  0  0  0  0
   -9.4829  -16.8276   25.0973 C   0  0  0  0  0  0  0  0  0  0  0  0
   -8.0373  -16.4517   24.7631 C   0  0  0  0  0  0  0  0  0  0  0  0
   -7.8526  -15.5302   22.4900 C   0  0  1  0  0  0  0  0  0  0  0  0
  -13.5409  -18.0582   25.7571 C   0  0  0  0  0  0  0  0  0  0  0  0
  -12.0978  -17.6075   25.5258 C   0  0  0  0  0  0  0  0  0  0  0  0
  -10.2956  -17.3242   24.0832 C   0  0  0  0  0  0  0  0  0  0  0  0
   -8.0916  -14.0762   24.2255 C   0  0  0  0  0  0  0  0  0  0  0  0
   -7.8267  -14.3775   21.7141 C   0  0  2  0  0  0  0  0  0  0  0  0
   -7.7113  -14.1902   20.1992 C   0  0  0  0  0  0  0  0  0  0  0  0
   -6.2625  -14.1999   19.7061 C   0  0  0  0  0  0  0  0  0  0  0  0
  -11.3458  -17.1127   26.5996 N   0  0  0  0  0  0  0  0  0  0  0  0
   -7.9883  -15.3378   23.8050 N   0  0  0  0  0  0  0  0  0  0  0  0
  -11.5430  -17.6927   24.3082 N   0  0  0  0  0  0  0  0  0  0  0  0
   -9.3456  -16.2853   27.3040 O   0  0  0  0  0  0  0  0  0  0  0  0
   -3.8603  -12.9452   18.2310 O   0  5  0  0  0  0  0  0  0  0  0  0
   -2.4215  -15.4447   15.9107 O   0  0  0  0  0  0  0  0  0  0  0  0
   -6.1844  -14.0408   18.2861 O   0  0  0  0  0  0  0  0  0  0  0  0
   -4.0629  -15.4592   17.8726 O   0  0  0  0  0  0  0  0  0  0  0  0
   -1.5636  -14.9505   18.3007 O   0  5  0  0  0  0  0  0  0  0  0  0
   -4.9187  -13.8532   16.0545 O   0  0  0  0  0  0  0  0  0  0  0  0
   -2.3207  -17.3174   17.6582 O   0  0  0  0  0  0  0  0  0  0  0  0
   -7.9225  -13.0440   22.8303 S   0  0  0  0  0  0  0  0  0  0  0  0
   -4.7716  -14.0611   17.5135 P   0  0  2  0  0  0  0  0  0  0  0  0
   -2.5255  -15.7315   17.4911 P   0  0  2  0  0  0  0  0  0  0  0  0
  2 16  2  0  0  0  0
  2  3  1  0  0  0  0
  2 13  1  0  0  0  0
  3  8  2  0  0  0  0
  3  4  1  0  0  0  0
  4 14  1  0  0  0  0
  5  1  1  6  0  0  0
  5 14  1  0  0  0  0
  5 10  1  0  0  0  0
  6  7  1  0  0  0  0
  7 13  1  0  0  0  0
  7 15  2  0  0  0  0
  8 15  1  0  0  0  0
  9 14  1  0  0  0  0
  9 24  1  0  0  0  0
 10 24  1  0  0  0  0
 10 11  1  1  0  0  0
 11 12  1  0  0  0  0
 12 19  1  0  0  0  0
 17 25  1  0  0  0  0
 19 25  1  0  0  0  0
 20 26  1  0  0  0  0
 21 26  1  0  0  0  0
 22 25  2  0  0  0  0
 23 26  2  0  0  0  0
 25 20  1  1  0  0  0
 26 18  1  6  0  0  0
M  CHG  2  17  -1  21  -1
M  END
>  <CHROM.1>
-117.07640296,-84.80722076,179.23273970,-96.02598204,-178.16504937,-57.17262495
-54.37156824,-54.28973160,-6.86484020,-15.40462729,21.21504141,-2.78582244
0.79771769,-0.25694667

>  <Name>
ligand

>  <RI>
0

>  <Rbt.Current_Directory>
/home/itssahil/PROJECTS/Mol_Feturizer/New_Systems/rnas/3D2X

>  <Rbt.Executable>
rbdock ($Id: //depot/dev/client3/rdock/2013.1/src/exe/rbdock.cxx#4 $)

>  <Rbt.Library>
libRbt.so (2013.1, Build901 2013/11/27)

>  <Rbt.Parameter_File>
/export/apps/rDock/src/rDock_2013.1_src/data/scripts/dock_solv.prm

>  <Rbt.Receptor>
prm/pocket_docking_7.prm

>  <SCORE>
-23.0274

>  <SCORE.INTER>
-20.3958

>  <SCORE.INTER.CONST>
1

>  <SCORE.INTER.POLAR>
0

>  <SCORE.INTER.ROT>
8

>  <SCORE.INTER.SOLV>
10.0549

>  <SCORE.INTER.VDW>
-25.8822

>  <SCORE.INTER.norm>
-0.784453

>  <SCORE.INTRA>
-2.63164

>  <SCORE.INTRA.DIHEDRAL>
-2.85053

>  <SCORE.INTRA.DIHEDRAL.0>
7.88077

>  <SCORE.INTRA.POLAR>
0

>  <SCORE.INTRA.POLAR.0>
0

>  <SCORE.INTRA.REPUL>
0

>  <SCORE.INTRA.REPUL.0>
0

>  <SCORE.INTRA.SOLV>
-1.56392

>  <SCORE.INTRA.SOLV.lig_0>
-63.2542

>  <SCORE.INTRA.VDW>
-0.42441

>  <SCORE.INTRA.VDW.0>
-3.15072

>  <SCORE.INTRA.norm>
-0.101217

>  <SCORE.RESTR>
0

>  <SCORE.RESTR.CAVITY>
0

>  <SCORE.RESTR.norm>
0

>  <SCORE.SYSTEM>
0

>  <SCORE.SYSTEM.CONST>
0

>  <SCORE.SYSTEM.DIHEDRAL>
0

>  <SCORE.SYSTEM.SOLV>
0

>  <SCORE.SYSTEM.norm>
0

>  <SCORE.heavy>
26

>  <SCORE.norm>
-0.88567

>  <RMSD>
3.052

$$$$
ligand
 OpenBabel11021811473D
libRbt.so/2013.1/901 2013/11/27
 26 27  0  0  0  0  0  0  0  0999 V2000
   -8.3006  -14.4772   22.9275 C   0  0  0  0  0  0  0  0  0  0  0  0
   -9.7337  -16.6425   26.6739 C   0  0  0  0  0  0  0  0  0  0  0  0
   -9.1170  -16.6187   25.4274 C   0  0  0  0  0  0  0  0  0  0  0  0
   -7.6574  -16.2078   25.2189 C   0  0  0  0  0  0  0  0  0  0  0  0
   -7.7830  -13.9434   24.2665 C   0  0  1  0  0  0  0  0  0  0  0  0
  -13.1966  -17.9184   25.7183 C   0  0  0  0  0  0  0  0  0  0  0  0
  -11.7462  -17.4435   25.6195 C   0  0  0  0  0  0  0  0  0  0  0  0
   -9.8648  -17.0116   24.3220 C   0  0  0  0  0  0  0  0  0  0  0  0
   -7.0806  -14.1685   26.4203 C   0  0  0  0  0  0  0  0  0  0  0  0
   -7.5893  -12.5864   24.4953 C   0  0  2  0  0  0  0  0  0  0  0  0
   -7.8176  -11.3737   23.5894 C   0  0  0  0  0  0  0  0  0  0  0  0
   -6.9257  -11.3824   22.3457 C   0  0  0  0  0  0  0  0  0  0  0  0
  -11.0624  -17.0586   26.7804 N   0  0  0  0  0  0  0  0  0  0  0  0
   -7.5027  -14.7480   25.2955 N   0  0  0  0  0  0  0  0  0  0  0  0
  -11.1203  -17.4036   24.4344 N   0  0  0  0  0  0  0  0  0  0  0  0
   -9.1137  -16.3027   27.6818 O   0  0  0  0  0  0  0  0  0  0  0  0
   -7.2637   -8.9337   19.2829 O   0  5  0  0  0  0  0  0  0  0  0  0
   -4.3038  -10.2747   17.8745 O   0  0  0  0  0  0  0  0  0  0  0  0
   -7.2578  -10.3191   21.4474 O   0  0  0  0  0  0  0  0  0  0  0  0
   -5.0435   -9.7141   20.2582 O   0  0  0  0  0  0  0  0  0  0  0  0
   -4.4283   -7.8030   18.6279 O   0  5  0  0  0  0  0  0  0  0  0  0
   -6.6399  -11.4413   19.2167 O   0  0  0  0  0  0  0  0  0  0  0  0
   -2.6098   -9.3540   19.5638 O   0  0  0  0  0  0  0  0  0  0  0  0
   -6.9564  -12.4566   26.1127 S   0  0  0  0  0  0  0  0  0  0  0  0
   -6.5585  -10.1888   20.0027 P   0  0  2  0  0  0  0  0  0  0  0  0
   -4.1240   -9.1889   19.0489 P   0  0  2  0  0  0  0  0  0  0  0  0
  2 16  2  0  0  0  0
  2  3  1  0  0  0  0
  2 13  1  0  0  0  0
  3  8  2  0  0  0  0
  3  4  1  0  0  0  0
  4 14  1  0  0  0  0
  5  1  1  1  0  0  0
  5 14  1  0  0  0  0
  5 10  1  0  0  0  0
  6  7  1  0  0  0  0
  7 13  1  0  0  0  0
  7 15  2  0  0  0  0
  8 15  1  0  0  0  0
  9 14  1  0  0  0  0
  9 24  1  0  0  0  0
 10 24  1  0  0  0  0
 10 11  1  6  0  0  0
 11 12  1  0  0  0  0
 12 19  1  0  0  0  0
 17 25  1  0  0  0  0
 19 25  1  0  0  0  0
 20 26  1  0  0  0  0
 21 26  1  0  0  0  0
 22 25  2  0  0  0  0
 23 26  2  0  0  0  0
 25 20  1  1  0  0  0
 26 18  1  6  0  0  0
M  CHG  2  17  -1  21  -1
M  END
>  <CHROM.1>
-76.58474680,-63.22259744,173.74601339,-80.77450274,-174.29974765,-55.32259103
176.67088104,-47.62319475,-7.39872638,-12.78007091,22.84269485,2.23114418
0.71136866,1.91962296

>  <Name>
ligand

>  <RI>
0

>  <Rbt.Current_Directory>
/home/itssahil/PROJECTS/Mol_Feturizer/New_Systems/rnas/3D2X

>  <Rbt.Executable>
rbdock ($Id: //depot/dev/client3/rdock/2013.1/src/exe/rbdock.cxx#4 $)

>  <Rbt.Library>
libRbt.so (2013.1, Build901 2013/11/27)

>  <Rbt.Parameter_File>
/export/apps/rDock/src/rDock_2013.1_src/data/scripts/dock_solv.prm

>  <Rbt.Receptor>
prm/pocket_docking_7.prm

>  <SCORE>
-22.4909

>  <SCORE.INTER>
-20.014

>  <SCORE.INTER.CONST>
1

>  <SCORE.INTER.POLAR>
0

>  <SCORE.INTER.ROT>
8

>  <SCORE.INTER.SOLV>
17.7305

>  <SCORE.INTER.VDW>
-28.1862

>  <SCORE.INTER.norm>
-0.76977

>  <SCORE.INTRA>
-2.47686

>  <SCORE.INTRA.DIHEDRAL>
-2.29652

>  <SCORE.INTRA.DIHEDRAL.0>
7.88077

>  <SCORE.INTRA.POLAR>
0

>  <SCORE.INTRA.POLAR.0>
0

>  <SCORE.INTRA.REPUL>
0

>  <SCORE.INTRA.REPUL.0>
0

>  <SCORE.INTRA.SOLV>
-1.64307

>  <SCORE.INTRA.SOLV.lig_0>
-63.2542

>  <SCORE.INTRA.VDW>
-0.50707

>  <SCORE.INTRA.VDW.0>
-3.15072

>  <SCORE.INTRA.norm>
-0.095264

>  <SCORE.RESTR>
0

>  <SCORE.RESTR.CAVITY>
0

>  <SCORE.RESTR.norm>
0

>  <SCORE.SYSTEM>
0

>  <SCORE.SYSTEM.CONST>
0

>  <SCORE.SYSTEM.DIHEDRAL>
0

>  <SCORE.SYSTEM.SOLV>
0

>  <SCORE.SYSTEM.norm>
0

>  <SCORE.heavy>
26

>  <SCORE.norm>
-0.865034

>  <RMSD>
3.078

$$$$
ligand
 OpenBabel11021811473D
libRbt.so/2013.1/901 2013/11/27
 26 27  0  0  0  0  0  0  0  0999 V2000
   -6.7390  -17.2519   19.3135 C   0  0  0  0  0  0  0  0  0  0  0  0
   -7.8366  -16.6576   23.6494 C   0  0  0  0  0  0  0  0  0  0  0  0
   -8.9493  -16.6553   22.8147 C   0  0  0  0  0  0  0  0  0  0  0  0
   -8.8559  -16.7261   21.2887 C   0  0  0  0  0  0  0  0  0  0  0  0
   -7.0470  -15.8572   19.8663 C   0  0  1  0  0  0  0  0  0  0  0  0
   -9.5237  -16.5549   27.0664 C   0  0  0  0  0  0  0  0  0  0  0  0
   -9.3123  -16.5794   25.5519 C   0  0  0  0  0  0  0  0  0  0  0  0
  -10.2079  -16.6091   23.4056 C   0  0  0  0  0  0  0  0  0  0  0  0
   -8.2100  -14.3811   21.1515 C   0  0  0  0  0  0  0  0  0  0  0  0
   -6.3442  -14.7296   19.4589 C   0  0  2  0  0  0  0  0  0  0  0  0
   -5.2012  -14.5689   18.4534 C   0  0  0  0  0  0  0  0  0  0  0  0
   -3.8186  -14.6991   19.0967 C   0  0  0  0  0  0  0  0  0  0  0  0
   -8.0108  -16.6199   25.0344 N   0  0  0  0  0  0  0  0  0  0  0  0
   -8.0172  -15.6412   20.7589 N   0  0  0  0  0  0  0  0  0  0  0  0
  -10.3609  -16.5742   24.7163 N   0  0  0  0  0  0  0  0  0  0  0  0
   -6.7017  -16.6963   23.1738 O   0  0  0  0  0  0  0  0  0  0  0  0
   -1.7123  -14.6950   21.3701 O   0  5  0  0  0  0  0  0  0  0  0  0
    0.2439  -11.1549   19.3584 O   0  0  0  0  0  0  0  0  0  0  0  0
   -3.5055  -13.5675   19.9148 O   0  0  0  0  0  0  0  0  0  0  0  0
   -1.0003  -13.3892   19.3019 O   0  0  0  0  0  0  0  0  0  0  0  0
   -0.1373  -12.3506   17.0963 O   0  5  0  0  0  0  0  0  0  0  0  0
   -1.9264  -12.1192   21.3381 O   0  0  0  0  0  0  0  0  0  0  0  0
   -2.1096  -11.2913   18.3517 O   0  0  0  0  0  0  0  0  0  0  0  0
   -6.9974  -13.3990   20.3733 S   0  0  0  0  0  0  0  0  0  0  0  0
   -2.0336  -13.3580   20.5336 P   0  0  2  0  0  0  0  0  0  0  0  0
   -0.7048  -12.0691   18.4339 P   0  0  2  0  0  0  0  0  0  0  0  0
  2 16  2  0  0  0  0
  2  3  1  0  0  0  0
  2 13  1  0  0  0  0
  3  8  2  0  0  0  0
  3  4  1  0  0  0  0
  4 14  1  0  0  0  0
  5  1  1  6  0  0  0
  5 14  1  0  0  0  0
  5 10  1  0  0  0  0
  6  7  1  0  0  0  0
  7 13  1  0  0  0  0
  7 15  2  0  0  0  0
  8 15  1  0  0  0  0
  9 14  1  0  0  0  0
  9 24  1  0  0  0  0
 10 24  1  0  0  0  0
 10 11  1  1  0  0  0
 11 12  1  0  0  0  0
 12 19  1  0  0  0  0
 17 25  1  0  0  0  0
 19 25  1  0  0  0  0
 20 26  1  0  0  0  0
 21 26  1  0  0  0  0
 22 25  2  0  0  0  0
 23 26  2  0  0  0  0
 25 20  1  6  0  0  0
 26 18  1  1  0  0  0
M  CHG  2  17  -1  21  -1
M  END
>  <CHROM.1>
-55.92783739,-90.76773224,-71.35501722,131.80234202,-171.15012349,-163.70639015
-55.93005682,75.36322181,-5.09009702,-14.46191150,20.94291609,2.60087037
0.42283941,1.67215606

>  <Name>
ligand

>  <RI>
0

>  <Rbt.Current_Directory>
/home/itssahil/PROJECTS/Mol_Feturizer/New_Systems/rnas/3D2X

>  <Rbt.Executable>
rbdock ($Id: //depot/dev/client3/rdock/2013.1/src/exe/rbdock.cxx#4 $)

>  <Rbt.Library>
libRbt.so (2013.1, Build901 2013/11/27)

>  <Rbt.Parameter_File>
/export/apps/rDock/src/rDock_2013.1_src/data/scripts/dock_solv.prm

>  <Rbt.Receptor>
prm/pocket_docking_4.prm

>  <SCORE>
-15.534

>  <SCORE.INTER>
-13.587

>  <SCORE.INTER.CONST>
1

>  <SCORE.INTER.POLAR>
0

>  <SCORE.INTER.ROT>
8

>  <SCORE.INTER.SOLV>
14.6787

>  <SCORE.INTER.VDW>
-22.8842

>  <SCORE.INTER.norm>
-0.522576

>  <SCORE.INTRA>
-1.947

>  <SCORE.INTRA.DIHEDRAL>
-0.992549

>  <SCORE.INTRA.DIHEDRAL.0>
7.88077

>  <SCORE.INTRA.POLAR>
0

>  <SCORE.INTRA.POLAR.0>
0

>  <SCORE.INTRA.REPUL>
0

>  <SCORE.INTRA.REPUL.0>
0

>  <SCORE.INTRA.SOLV>
-0.743934

>  <SCORE.INTRA.SOLV.lig_0>
-63.2542

>  <SCORE.INTRA.VDW>
-1.07875

>  <SCORE.INTRA.VDW.0>
-3.15072

>  <SCORE.INTRA.norm>
-0.0748845

>  <SCORE.RESTR>
0

>  <SCORE.RESTR.CAVITY>
0

>  <SCORE.RESTR.norm>
0

>  <SCORE.SYSTEM>
0

>  <SCORE.SYSTEM.CONST>
0

>  <SCORE.SYSTEM.DIHEDRAL>
0

>  <SCORE.SYSTEM.SOLV>
0

>  <SCORE.SYSTEM.norm>
0

>  <SCORE.heavy>
26

>  <SCORE.norm>
-0.597461

>  <RMSD>
3.079

$$$$
ligand
 OpenBabel11021811473D
libRbt.so/2013.1/901 2013/11/27
 26 27  0  0  0  0  0  0  0  0999 V2000
   -6.7010  -17.2637   19.2960 C   0  0  0  0  0  0  0  0  0  0  0  0
   -7.8341  -16.7922   23.5097 C   0  0  0  0  0  0  0  0  0  0  0  0
   -8.9592  -16.6746   22.7004 C   0  0  0  0  0  0  0  0  0  0  0  0
   -8.9062  -16.7378   21.1721 C   0  0  0  0  0  0  0  0  0  0  0  0
   -7.0804  -15.8600   19.7770 C   0  0  1  0  0  0  0  0  0  0  0  0
   -9.4292  -16.5646   26.9647 C   0  0  0  0  0  0  0  0  0  0  0  0
   -9.2540  -16.5931   25.4456 C   0  0  0  0  0  0  0  0  0  0  0  0
  -10.1945  -16.5142   23.3199 C   0  0  0  0  0  0  0  0  0  0  0  0
   -8.3433  -14.3774   20.9560 C   0  0  0  0  0  0  0  0  0  0  0  0
   -6.4057  -14.7242   19.3457 C   0  0  2  0  0  0  0  0  0  0  0  0
   -5.2337  -14.5617   18.3744 C   0  0  0  0  0  0  0  0  0  0  0  0
   -3.8969  -14.3380   19.0853 C   0  0  0  0  0  0  0  0  0  0  0  0
   -7.9739  -16.7527   24.8985 N   0  0  0  0  0  0  0  0  0  0  0  0
   -8.0897  -15.6444   20.6253 N   0  0  0  0  0  0  0  0  0  0  0  0
  -10.3151  -16.4787   24.6340 N   0  0  0  0  0  0  0  0  0  0  0  0
   -6.7187  -16.9345   23.0083 O   0  0  0  0  0  0  0  0  0  0  0  0
   -1.5138  -12.2497   19.6266 O   0  5  0  0  0  0  0  0  0  0  0  0
   -5.1017  -10.7566   20.0892 O   0  0  0  0  0  0  0  0  0  0  0  0
   -3.9096  -13.1454   19.8760 O   0  0  0  0  0  0  0  0  0  0  0  0
   -3.0128  -11.3085   21.4586 O   0  0  0  0  0  0  0  0  0  0  0  0
   -3.9573   -8.9010   21.4818 O   0  5  0  0  0  0  0  0  0  0  0  0
   -2.1440  -13.7216   21.6559 O   0  0  0  0  0  0  0  0  0  0  0  0
   -2.8178   -9.8340   19.3796 O   0  0  0  0  0  0  0  0  0  0  0  0
   -7.1405  -13.3827   20.1785 S   0  0  0  0  0  0  0  0  0  0  0  0
   -2.6175  -12.6792   20.7164 P   0  0  2  0  0  0  0  0  0  0  0  0
   -3.7419  -10.1161   20.6648 P   0  0  2  0  0  0  0  0  0  0  0  0
  2 16  2  0  0  0  0
  2  3  1  0  0  0  0
  2 13  1  0  0  0  0
  3  8  2  0  0  0  0
  3  4  1  0  0  0  0
  4 14  1  0  0  0  0
  5  1  1  6  0  0  0
  5 14  1  0  0  0  0
  5 10  1  0  0  0  0
  6  7  1  0  0  0  0
  7 13  1  0  0  0  0
  7 15  2  0  0  0  0
  8 15  1  0  0  0  0
  9 14  1  0  0  0  0
  9 24  1  0  0  0  0
 10 24  1  0  0  0  0
 10 11  1  1  0  0  0
 11 12  1  0  0  0  0
 12 19  1  0  0  0  0
 17 25  1  0  0  0  0
 19 25  1  0  0  0  0
 20 26  1  0  0  0  0
 21 26  1  0  0  0  0
 22 25  2  0  0  0  0
 23 26  2  0  0  0  0
 25 20  1  1  0  0  0
 26 18  1  6  0  0  0
M  CHG  2  17  -1  21  -1
M  END
>  <CHROM.1>
-61.85820588,-101.95576243,-61.10536060,126.99517170,-179.55430995,64.84828902
68.45511671,58.38328454,-5.84216675,-13.93851880,21.31290276,3.08223134,0.83051289
1.08952532

>  <Name>
ligand

>  <RI>
0

>  <Rbt.Current_Directory>
/home/itssahil/PROJECTS/Mol_Feturizer/New_Systems/rnas/3D2X

>  <Rbt.Executable>
rbdock ($Id: //depot/dev/client3/rdock/2013.1/src/exe/rbdock.cxx#4 $)

>  <Rbt.Library>
libRbt.so (2013.1, Build901 2013/11/27)

>  <Rbt.Parameter_File>
/export/apps/rDock/src/rDock_2013.1_src/data/scripts/dock_solv.prm

>  <Rbt.Receptor>
prm/pocket_docking_4.prm

>  <SCORE>
-14.5272

>  <SCORE.INTER>
-10.9958

>  <SCORE.INTER.CONST>
1

>  <SCORE.INTER.POLAR>
0

>  <SCORE.INTER.ROT>
8

>  <SCORE.INTER.SOLV>
6.75379

>  <SCORE.INTER.VDW>
-18.5151

>  <SCORE.INTER.norm>
-0.422914

>  <SCORE.INTRA>
-3.53143

>  <SCORE.INTRA.DIHEDRAL>
-2.67012

>  <SCORE.INTRA.DIHEDRAL.0>
7.88077

>  <SCORE.INTRA.POLAR>
0

>  <SCORE.INTRA.POLAR.0>
0

>  <SCORE.INTRA.REPUL>
0

>  <SCORE.INTRA.REPUL.0>
0

>  <SCORE.INTRA.SOLV>
-1.4032

>  <SCORE.INTRA.SOLV.lig_0>
-63.2542

>  <SCORE.INTRA.VDW>
-1.49478

>  <SCORE.INTRA.VDW.0>
-3.15072

>  <SCORE.INTRA.norm>
-0.135824

>  <SCORE.RESTR>
0

>  <SCORE.RESTR.CAVITY>
0

>  <SCORE.RESTR.norm>
0

>  <SCORE.SYSTEM>
0

>  <SCORE.SYSTEM.CONST>
0

>  <SCORE.SYSTEM.DIHEDRAL>
0

>  <SCORE.SYSTEM.SOLV>
0

>  <SCORE.SYSTEM.norm>
0

>  <SCORE.heavy>
26

>  <SCORE.norm>
-0.558738

>  <RMSD>
3.089

$$$$
ligand
 OpenBabel11021811473D
libRbt.so/2013.1/901 2013/11/27
 26 27  0  0  0  0  0  0  0  0999 V2000
   -8.3617  -14.4709   22.7145 C   0  0  0  0  0  0  0  0  0  0  0  0
   -9.7752  -16.9214   26.4749 C   0  0  0  0  0  0  0  0  0  0  0  0
   -9.3084  -16.8057   25.1698 C   0  0  0  0  0  0  0  0  0  0  0  0
   -7.8581  -16.4609   24.8228 C   0  0  0  0  0  0  0  0  0  0  0  0
   -7.8032  -14.1121   24.0947 C   0  0  1  0  0  0  0  0  0  0  0  0
  -13.4068  -17.8897   25.8370 C   0  0  0  0  0  0  0  0  0  0  0  0
  -11.9482  -17.4921   25.6055 C   0  0  0  0  0  0  0  0  0  0  0  0
  -10.2059  -17.0391   24.1328 C   0  0  0  0  0  0  0  0  0  0  0  0
   -7.1208  -14.5998   26.2112 C   0  0  0  0  0  0  0  0  0  0  0  0
   -7.5022  -12.8032   24.4520 C   0  0  2  0  0  0  0  0  0  0  0  0
   -7.6333  -11.4942   23.6693 C   0  0  0  0  0  0  0  0  0  0  0  0
   -6.7188  -11.4384   22.4434 C   0  0  0  0  0  0  0  0  0  0  0  0
  -11.1082  -17.2685   26.7045 N   0  0  0  0  0  0  0  0  0  0  0  0
   -7.5877  -15.0322   25.0390 N   0  0  0  0  0  0  0  0  0  0  0  0
  -11.4640  -17.3672   24.3615 N   0  0  0  0  0  0  0  0  0  0  0  0
   -9.0193  -16.7232   27.4263 O   0  0  0  0  0  0  0  0  0  0  0  0
   -3.9494  -10.2479   21.2785 O   0  5  0  0  0  0  0  0  0  0  0  0
   -1.6972  -13.0565   20.2565 O   0  0  0  0  0  0  0  0  0  0  0  0
   -5.3695  -11.7831   22.7722 O   0  0  0  0  0  0  0  0  0  0  0  0
   -2.8573  -12.2614   22.3932 O   0  0  0  0  0  0  0  0  0  0  0  0
   -0.8941  -10.8890   21.4180 O   0  5  0  0  0  0  0  0  0  0  0  0
   -4.5459  -12.6360   20.4893 O   0  0  0  0  0  0  0  0  0  0  0  0
   -0.4727  -13.1755   22.5054 O   0  0  0  0  0  0  0  0  0  0  0  0
   -6.8609  -12.8813   26.0694 S   0  0  0  0  0  0  0  0  0  0  0  0
   -4.2074  -11.7907   21.6573 P   0  0  2  0  0  0  0  0  0  0  0  0
   -1.4457  -12.2467   21.6246 P   0  0  2  0  0  0  0  0  0  0  0  0
  2 16  2  0  0  0  0
  2  3  1  0  0  0  0
  2 13  1  0  0  0  0
  3  8  2  0  0  0  0
  3  4  1  0  0  0  0
  4 14  1  0  0  0  0
  5  1  1  1  0  0  0
  5 14  1  0  0  0  0
  5 10  1  0  0  0  0
  6  7  1  0  0  0  0
  7 13  1  0  0  0  0
  7 15  2  0  0  0  0
  8 15  1  0  0  0  0
  9 14  1  0  0  0  0
  9 24  1  0  0  0  0
 10 24  1  0  0  0  0
 10 11  1  6  0  0  0
 11 12  1  0  0  0  0
 12 19  1  0  0  0  0
 17 25  1  0  0  0  0
 19 25  1  0  0  0  0
 20 26  1  0  0  0  0
 21 26  1  0  0  0  0
 22 25  2  0  0  0  0
 23 26  2  0  0  0  0
 25 20  1  1  0  0  0
 26 18  1  6  0  0  0
M  CHG  2  17  -1  21  -1
M  END
>  <CHROM.1>
-75.65119682,-64.68307285,-50.10836498,-87.79666188,-179.60005462,-61.69380500
70.25286973,-51.93052620,-6.38154835,-13.85622126,23.65134543,2.47192718
-0.02691061,2.46976589

>  <Name>
ligand

>  <RI>
0

>  <Rbt.Current_Directory>
/home/itssahil/PROJECTS/Mol_Feturizer/New_Systems/rnas/3D2X

>  <Rbt.Executable>
rbdock ($Id: //depot/dev/client3/rdock/2013.1/src/exe/rbdock.cxx#4 $)

>  <Rbt.Library>
libRbt.so (2013.1, Build901 2013/11/27)

>  <Rbt.Parameter_File>
/export/apps/rDock/src/rDock_2013.1_src/data/scripts/dock_solv.prm

>  <Rbt.Receptor>
prm/pocket_docking_4.prm

>  <SCORE>
-19.2203

>  <SCORE.INTER>
-16.3142

>  <SCORE.INTER.CONST>
1

>  <SCORE.INTER.POLAR>
0

>  <SCORE.INTER.ROT>
8

>  <SCORE.INTER.SOLV>
7.68011

>  <SCORE.INTER.VDW>
-22.3695

>  <SCORE.INTER.norm>
-0.627469

>  <SCORE.INTRA>
-2.90612

>  <SCORE.INTRA.DIHEDRAL>
-2.57962

>  <SCORE.INTRA.DIHEDRAL.0>
7.88077

>  <SCORE.INTRA.POLAR>
0

>  <SCORE.INTRA.POLAR.0>
0

>  <SCORE.INTRA.REPUL>
0

>  <SCORE.INTRA.REPUL.0>
0

>  <SCORE.INTRA.SOLV>
-1.25382

>  <SCORE.INTRA.SOLV.lig_0>
-63.2542

>  <SCORE.INTRA.VDW>
-0.989398

>  <SCORE.INTRA.VDW.0>
-3.15072

>  <SCORE.INTRA.norm>
-0.111774

>  <SCORE.RESTR>
0

>  <SCORE.RESTR.CAVITY>
0

>  <SCORE.RESTR.norm>
0

>  <SCORE.SYSTEM>
0

>  <SCORE.SYSTEM.CONST>
0

>  <SCORE.SYSTEM.DIHEDRAL>
0

>  <SCORE.SYSTEM.SOLV>
0

>  <SCORE.SYSTEM.norm>
0

>  <SCORE.heavy>
26

>  <SCORE.norm>
-0.739243

>  <RMSD>
3.096

$$$$
ligand
 OpenBabel11021811473D
libRbt.so/2013.1/901 2013/11/27
 26 27  0  0  0  0  0  0  0  0999 V2000
   -5.9829  -15.3123   23.5881 C   0  0  0  0  0  0  0  0  0  0  0  0
  -10.3732  -16.6228   26.1621 C   0  0  0  0  0  0  0  0  0  0  0  0
   -9.8280  -17.0164   24.9446 C   0  0  0  0  0  0  0  0  0  0  0  0
   -8.3805  -16.7289   24.5389 C   0  0  0  0  0  0  0  0  0  0  0  0
   -7.2376  -15.5115   22.7327 C   0  0  1  0  0  0  0  0  0  0  0  0
  -13.8914  -18.0574   25.8513 C   0  0  0  0  0  0  0  0  0  0  0  0
  -12.4464  -17.6737   25.5291 C   0  0  0  0  0  0  0  0  0  0  0  0
  -10.6394  -17.7270   24.0658 C   0  0  0  0  0  0  0  0  0  0  0  0
   -9.3388  -16.2958   22.3414 C   0  0  0  0  0  0  0  0  0  0  0  0
   -7.3252  -15.0388   21.4288 C   0  0  2  0  0  0  0  0  0  0  0  0
   -6.3128  -14.2806   20.5665 C   0  0  0  0  0  0  0  0  0  0  0  0
   -6.9526  -13.6046   19.3515 C   0  0  0  0  0  0  0  0  0  0  0  0
  -11.6959  -16.9512   26.4662 N   0  0  0  0  0  0  0  0  0  0  0  0
   -8.3131  -16.1633   23.1837 N   0  0  0  0  0  0  0  0  0  0  0  0
  -11.8885  -18.0325   24.3639 N   0  0  0  0  0  0  0  0  0  0  0  0
   -9.6952  -15.9908   26.9725 O   0  0  0  0  0  0  0  0  0  0  0  0
   -5.1064  -11.1372   16.9119 O   0  5  0  0  0  0  0  0  0  0  0  0
   -4.8866  -12.5920   14.3886 O   0  0  0  0  0  0  0  0  0  0  0  0
   -5.9886  -12.8861   18.5755 O   0  0  0  0  0  0  0  0  0  0  0  0
   -6.7559  -12.9038   16.1068 O   0  0  0  0  0  0  0  0  0  0  0  0
   -4.6350  -14.3774   16.2436 O   0  5  0  0  0  0  0  0  0  0  0  0
   -7.5671  -11.0537   17.6992 O   0  0  0  0  0  0  0  0  0  0  0  0
   -6.3321  -14.7085   14.3467 O   0  0  0  0  0  0  0  0  0  0  0  0
   -8.9249  -15.4479   20.8750 S   0  0  0  0  0  0  0  0  0  0  0  0
   -6.4314  -11.9383   17.3512 P   0  0  2  0  0  0  0  0  0  0  0  0
   -5.5825  -13.6891   15.3387 P   0  0  2  0  0  0  0  0  0  0  0  0
  2 16  2  0  0  0  0
  2  3  1  0  0  0  0
  2 13  1  0  0  0  0
  3  8  2  0  0  0  0
  3  4  1  0  0  0  0
  4 14  1  0  0  0  0
  5  1  1  6  0  0  0
  5 14  1  0  0  0  0
  5 10  1  0  0  0  0
  6  7  1  0  0  0  0
  7 13  1  0  0  0  0
  7 15  2  0  0  0  0
  8 15  1  0  0  0  0
  9 14  1  0  0  0  0
  9 24  1  0  0  0  0
 10 24  1  0  0  0  0
 10 11  1  1  0  0  0
 11 12  1  0  0  0  0
 12 19  1  0  0  0  0
 17 25  1  0  0  0  0
 19 25  1  0  0  0  0
 20 26  1  0  0  0  0
 21 26  1  0  0  0  0
 22 25  2  0  0  0  0
 23 26  2  0  0  0  0
 25 20  1  6  0  0  0
 26 18  1  6  0  0  0
M  CHG  2  17  -1  21  -1
M  END
>  <CHROM.1>
-131.67524098,-163.24190495,179.07098347,162.09771474,-172.29889516,41.66091270
170.75472028,-77.68765154,-7.92360413,-14.78922103,20.54498462,-2.13555373
-0.58522372,-1.47792017

>  <Name>
ligand

>  <RI>
0

>  <Rbt.Current_Directory>
/home/itssahil/PROJECTS/Mol_Feturizer/New_Systems/rnas/3D2X

>  <Rbt.Executable>
rbdock ($Id: //depot/dev/client3/rdock/2013.1/src/exe/rbdock.cxx#4 $)

>  <Rbt.Library>
libRbt.so (2013.1, Build901 2013/11/27)

>  <Rbt.Parameter_File>
/export/apps/rDock/src/rDock_2013.1_src/data/scripts/dock_solv.prm

>  <Rbt.Receptor>
prm/pocket_docking_7.prm

>  <SCORE>
-22.4926

>  <SCORE.INTER>
-23.5506

>  <SCORE.INTER.CONST>
1

>  <SCORE.INTER.POLAR>
0

>  <SCORE.INTER.ROT>
8

>  <SCORE.INTER.SOLV>
15.7714

>  <SCORE.INTER.VDW>
-29.8909

>  <SCORE.INTER.norm>
-0.905793

>  <SCORE.INTRA>
1.05798

>  <SCORE.INTRA.DIHEDRAL>
-1.97992

>  <SCORE.INTRA.DIHEDRAL.0>
7.88077

>  <SCORE.INTRA.POLAR>
0

>  <SCORE.INTRA.POLAR.0>
0

>  <SCORE.INTRA.REPUL>
0

>  <SCORE.INTRA.REPUL.0>
0

>  <SCORE.INTRA.SOLV>
-1.34437

>  <SCORE.INTRA.SOLV.lig_0>
-63.2542

>  <SCORE.INTRA.VDW>
2.72012

>  <SCORE.INTRA.VDW.0>
-3.15072

>  <SCORE.INTRA.norm>
0.0406914

>  <SCORE.RESTR>
0

>  <SCORE.RESTR.CAVITY>
0

>  <SCORE.RESTR.norm>
0

>  <SCORE.SYSTEM>
0

>  <SCORE.SYSTEM.CONST>
0

>  <SCORE.SYSTEM.DIHEDRAL>
0

>  <SCORE.SYSTEM.SOLV>
0

>  <SCORE.SYSTEM.norm>
0

>  <SCORE.heavy>
26

>  <SCORE.norm>
-0.865102

>  <RMSD>
3.107

$$$$
ligand
 OpenBabel11021811473D
libRbt.so/2013.1/901 2013/11/27
 26 27  0  0  0  0  0  0  0  0999 V2000
   -7.5095  -13.8815   20.4492 C   0  0  0  0  0  0  0  0  0  0  0  0
   -9.8386  -16.2561   23.2658 C   0  0  0  0  0  0  0  0  0  0  0  0
   -8.7711  -16.3525   22.3793 C   0  0  0  0  0  0  0  0  0  0  0  0
   -8.9429  -16.4184   20.8599 C   0  0  0  0  0  0  0  0  0  0  0  0
   -6.9754  -15.2365   19.9754 C   0  0  1  0  0  0  0  0  0  0  0  0
   -7.9772  -16.0778   26.5878 C   0  0  0  0  0  0  0  0  0  0  0  0
   -8.2668  -16.1868   25.0900 C   0  0  0  0  0  0  0  0  0  0  0  0
   -7.4840  -16.3662   22.9073 C   0  0  0  0  0  0  0  0  0  0  0  0
   -7.0675  -17.4993   19.7420 C   0  0  0  0  0  0  0  0  0  0  0  0
   -5.7565  -15.3614   19.3196 C   0  0  2  0  0  0  0  0  0  0  0  0
   -4.7126  -14.3103   18.9336 C   0  0  0  0  0  0  0  0  0  0  0  0
   -4.3329  -14.3634   17.4520 C   0  0  0  0  0  0  0  0  0  0  0  0
   -9.5930  -16.1714   24.6378 N   0  0  0  0  0  0  0  0  0  0  0  0
   -7.6412  -16.3768   20.1779 N   0  0  0  0  0  0  0  0  0  0  0  0
   -7.2634  -16.2851   24.2062 N   0  0  0  0  0  0  0  0  0  0  0  0
  -10.9962  -16.2415   22.8468 O   0  0  0  0  0  0  0  0  0  0  0  0
   -1.5324  -11.7146   16.7638 O   0  5  0  0  0  0  0  0  0  0  0  0
   -4.9722  -11.2100   18.2538 O   0  0  0  0  0  0  0  0  0  0  0  0
   -3.6147  -13.1941   17.0462 O   0  0  0  0  0  0  0  0  0  0  0  0
   -2.6383  -11.8877   19.0521 O   0  0  0  0  0  0  0  0  0  0  0  0
   -3.8649   -9.9257   20.2074 O   0  5  0  0  0  0  0  0  0  0  0  0
   -1.3841  -13.9220   18.1007 O   0  0  0  0  0  0  0  0  0  0  0  0
   -2.9669   -9.6743   17.8161 O   0  0  0  0  0  0  0  0  0  0  0  0
   -5.5879  -17.0516   18.9350 S   0  0  0  0  0  0  0  0  0  0  0  0
   -2.2388  -12.7609   17.7622 P   0  0  2  0  0  0  0  0  0  0  0  0
   -3.6303  -10.6292   18.9266 P   0  0  2  0  0  0  0  0  0  0  0  0
  2 16  2  0  0  0  0
  2  3  1  0  0  0  0
  2 13  1  0  0  0  0
  3  8  2  0  0  0  0
  3  4  1  0  0  0  0
  4 14  1  0  0  0  0
  5  1  1  1  0  0  0
  5 14  1  0  0  0  0
  5 10  1  0  0  0  0
  6  7  1  0  0  0  0
  7 13  1  0  0  0  0
  7 15  2  0  0  0  0
  8 15  1  0  0  0  0
  9 14  1  0  0  0  0
  9 24  1  0  0  0  0
 10 24  1  0  0  0  0
 10 11  1  6  0  0  0
 11 12  1  0  0  0  0
 12 19  1  0  0  0  0
 17 25  1  0  0  0  0
 19 25  1  0  0  0  0
 20 26  1  0  0  0  0
 21 26  1  0  0  0  0
 22 25  2  0  0  0  0
 23 26  2  0  0  0  0
 25 20  1  1  0  0  0
 26 18  1  6  0  0  0
M  CHG  2  17  -1  21  -1
M  END
>  <CHROM.1>
174.17565474,-127.37252437,166.11083739,-80.13238743,57.84040667,59.75986948
162.99900171,56.11150420,-5.59484769,-14.18841994,20.12020567,3.07099024
-0.86852833,-2.52104542

>  <Name>
ligand

>  <RI>
0

>  <Rbt.Current_Directory>
/home/itssahil/PROJECTS/Mol_Feturizer/New_Systems/rnas/3D2X

>  <Rbt.Executable>
rbdock ($Id: //depot/dev/client3/rdock/2013.1/src/exe/rbdock.cxx#4 $)

>  <Rbt.Library>
libRbt.so (2013.1, Build901 2013/11/27)

>  <Rbt.Parameter_File>
/export/apps/rDock/src/rDock_2013.1_src/data/scripts/dock_solv.prm

>  <Rbt.Receptor>
prm/pocket_docking_3.prm

>  <SCORE>
-10.7262

>  <SCORE.INTER>
-9.52562

>  <SCORE.INTER.CONST>
1

>  <SCORE.INTER.POLAR>
0

>  <SCORE.INTER.ROT>
8

>  <SCORE.INTER.SOLV>
10.7151

>  <SCORE.INTER.VDW>
-18.8554

>  <SCORE.INTER.norm>
-0.36637

>  <SCORE.INTRA>
-1.20445

>  <SCORE.INTRA.DIHEDRAL>
-1.25115

>  <SCORE.INTRA.DIHEDRAL.0>
7.88077

>  <SCORE.INTRA.POLAR>
0

>  <SCORE.INTRA.POLAR.0>
0

>  <SCORE.INTRA.REPUL>
0

>  <SCORE.INTRA.REPUL.0>
0

>  <SCORE.INTRA.SOLV>
-0.619978

>  <SCORE.INTRA.SOLV.lig_0>
-63.2542

>  <SCORE.INTRA.VDW>
-0.268883

>  <SCORE.INTRA.VDW.0>
-3.15072

>  <SCORE.INTRA.norm>
-0.0463248

>  <SCORE.RESTR>
0.0038584

>  <SCORE.RESTR.CAVITY>
0.0038584

>  <SCORE.RESTR.norm>
0.0001484

>  <SCORE.SYSTEM>
0

>  <SCORE.SYSTEM.CONST>
0

>  <SCORE.SYSTEM.DIHEDRAL>
0

>  <SCORE.SYSTEM.SOLV>
0

>  <SCORE.SYSTEM.norm>
0

>  <SCORE.heavy>
26

>  <SCORE.norm>
-0.412546

>  <RMSD>
3.113

$$$$
ligand
 OpenBabel11021811473D
libRbt.so/2013.1/901 2013/11/27
 26 27  0  0  0  0  0  0  0  0999 V2000
   -8.6464  -17.4587   20.1993 C   0  0  0  0  0  0  0  0  0  0  0  0
  -10.4524  -16.9178   24.4403 C   0  0  0  0  0  0  0  0  0  0  0  0
   -9.7329  -16.0451   23.6308 C   0  0  0  0  0  0  0  0  0  0  0  0
  -10.0711  -15.7900   22.1600 C   0  0  0  0  0  0  0  0  0  0  0  0
   -8.2362  -16.0227   20.5386 C   0  0  1  0  0  0  0  0  0  0  0  0
   -8.6151  -16.4784   27.7515 C   0  0  0  0  0  0  0  0  0  0  0  0
   -9.0111  -16.3368   26.2810 C   0  0  0  0  0  0  0  0  0  0  0  0
   -8.6671  -15.3558   24.2004 C   0  0  0  0  0  0  0  0  0  0  0  0
   -8.4671  -14.0358   21.6259 C   0  0  0  0  0  0  0  0  0  0  0  0
   -7.1547  -15.3996   19.9273 C   0  0  2  0  0  0  0  0  0  0  0  0
   -6.1804  -15.9016   18.8586 C   0  0  0  0  0  0  0  0  0  0  0  0
   -4.9053  -15.0596   18.7717 C   0  0  0  0  0  0  0  0  0  0  0  0
  -10.0949  -17.0711   25.7814 N   0  0  0  0  0  0  0  0  0  0  0  0
   -8.9017  -15.2813   21.4287 N   0  0  0  0  0  0  0  0  0  0  0  0
   -8.3382  -15.5081   25.4698 N   0  0  0  0  0  0  0  0  0  0  0  0
  -11.4032  -17.5514   23.9817 O   0  0  0  0  0  0  0  0  0  0  0  0
   -3.5371  -12.7836   16.7344 O   0  5  0  0  0  0  0  0  0  0  0  0
   -6.1900   -9.2126   17.5605 O   0  0  0  0  0  0  0  0  0  0  0  0
   -5.1937  -13.6891   18.4779 O   0  0  0  0  0  0  0  0  0  0  0  0
   -4.7046  -11.1562   18.3085 O   0  0  0  0  0  0  0  0  0  0  0  0
   -5.7035  -11.1553   15.9229 O   0  5  0  0  0  0  0  0  0  0  0  0
   -2.9221  -12.7570   19.2449 O   0  0  0  0  0  0  0  0  0  0  0  0
   -7.2104  -11.5288   17.9669 O   0  0  0  0  0  0  0  0  0  0  0  0
   -7.0392  -13.8187   20.6488 S   0  0  0  0  0  0  0  0  0  0  0  0
   -4.0186  -12.6098   18.2603 P   0  0  2  0  0  0  0  0  0  0  0  0
   -5.9310  -10.7855   17.3378 P   0  0  2  0  0  0  0  0  0  0  0  0
  2 16  2  0  0  0  0
  2  3  1  0  0  0  0
  2 13  1  0  0  0  0
  3  8  2  0  0  0  0
  3  4  1  0  0  0  0
  4 14  1  0  0  0  0
  5  1  1  6  0  0  0
  5 14  1  0  0  0  0
  5 10  1  0  0  0  0
  6  7  1  0  0  0  0
  7 13  1  0  0  0  0
  7 15  2  0  0  0  0
  8 15  1  0  0  0  0
  9 14  1  0  0  0  0
  9 24  1  0  0  0  0
 10 24  1  0  0  0  0
 10 11  1  1  0  0  0
 11 12  1  0  0  0  0
 12 19  1  0  0  0  0
 17 25  1  0  0  0  0
 19 25  1  0  0  0  0
 20 26  1  0  0  0  0
 21 26  1  0  0  0  0
 22 25  2  0  0  0  0
 23 26  2  0  0  0  0
 25 20  1  1  0  0  0
 26 18  1  1  0  0  0
M  CHG  2  17  -1  21  -1
M  END
>  <CHROM.1>
-157.53794572,-162.82804015,-58.77887925,108.10468593,-176.86856238,57.09033771
82.12894862,-172.81378285,-7.05329557,-14.09614220,20.56580652,2.53982649
0.96158248,1.28764469

>  <Name>
ligand

>  <RI>
0

>  <Rbt.Current_Directory>
/home/itssahil/PROJECTS/Mol_Feturizer/New_Systems/rnas/3D2X

>  <Rbt.Executable>
rbdock ($Id: //depot/dev/client3/rdock/2013.1/src/exe/rbdock.cxx#4 $)

>  <Rbt.Library>
libRbt.so (2013.1, Build901 2013/11/27)

>  <Rbt.Parameter_File>
/export/apps/rDock/src/rDock_2013.1_src/data/scripts/dock_solv.prm

>  <Rbt.Receptor>
prm/pocket_docking_5.prm

>  <SCORE>
-17.7445

>  <SCORE.INTER>
-16.6334

>  <SCORE.INTER.CONST>
1

>  <SCORE.INTER.POLAR>
0

>  <SCORE.INTER.ROT>
8

>  <SCORE.INTER.SOLV>
11.174

>  <SCORE.INTER.VDW>
-23.7469

>  <SCORE.INTER.norm>
-0.639747

>  <SCORE.INTRA>
-1.11108

>  <SCORE.INTRA.DIHEDRAL>
-2.3949

>  <SCORE.INTRA.DIHEDRAL.0>
7.88077

>  <SCORE.INTRA.POLAR>
0

>  <SCORE.INTRA.POLAR.0>
0

>  <SCORE.INTRA.REPUL>
0

>  <SCORE.INTRA.REPUL.0>
0

>  <SCORE.INTRA.SOLV>
-0.0630012

>  <SCORE.INTRA.SOLV.lig_0>
-63.2542

>  <SCORE.INTRA.VDW>
0.117867

>  <SCORE.INTRA.VDW.0>
-3.15072

>  <SCORE.INTRA.norm>
-0.0427339

>  <SCORE.RESTR>
0

>  <SCORE.RESTR.CAVITY>
0

>  <SCORE.RESTR.norm>
0

>  <SCORE.SYSTEM>
0

>  <SCORE.SYSTEM.CONST>
0

>  <SCORE.SYSTEM.DIHEDRAL>
0

>  <SCORE.SYSTEM.SOLV>
0

>  <SCORE.SYSTEM.norm>
0

>  <SCORE.heavy>
26

>  <SCORE.norm>
-0.682481

>  <RMSD>
3.137

$$$$
ligand
 OpenBabel11021811473D
libRbt.so/2013.1/901 2013/11/27
 26 27  0  0  0  0  0  0  0  0999 V2000
   -8.4290  -14.3769   23.0160 C   0  0  0  0  0  0  0  0  0  0  0  0
   -9.7916  -16.6185   26.5980 C   0  0  0  0  0  0  0  0  0  0  0  0
   -9.1506  -16.6573   25.3642 C   0  0  0  0  0  0  0  0  0  0  0  0
   -7.6893  -16.2490   25.1624 C   0  0  0  0  0  0  0  0  0  0  0  0
   -7.8423  -13.9295   24.3581 C   0  0  1  0  0  0  0  0  0  0  0  0
  -13.2283  -17.9650   25.6450 C   0  0  0  0  0  0  0  0  0  0  0  0
  -11.7787  -17.4870   25.5491 C   0  0  0  0  0  0  0  0  0  0  0  0
   -9.8745  -17.1131   24.2670 C   0  0  0  0  0  0  0  0  0  0  0  0
   -7.0376  -14.2908   26.4569 C   0  0  0  0  0  0  0  0  0  0  0  0
   -7.6264  -12.5903   24.6599 C   0  0  2  0  0  0  0  0  0  0  0  0
   -7.8885  -11.3227   23.8425 C   0  0  0  0  0  0  0  0  0  0  0  0
   -7.0174  -11.2321   22.5874 C   0  0  0  0  0  0  0  0  0  0  0  0
  -11.1199  -17.0366   26.7008 N   0  0  0  0  0  0  0  0  0  0  0  0
   -7.5188  -14.7975   25.3208 N   0  0  0  0  0  0  0  0  0  0  0  0
  -11.1298  -17.5064   24.3759 N   0  0  0  0  0  0  0  0  0  0  0  0
   -9.1932  -16.2217   27.5982 O   0  0  0  0  0  0  0  0  0  0  0  0
   -4.8078   -9.6922   20.9843 O   0  5  0  0  0  0  0  0  0  0  0  0
   -1.6358  -11.3976   20.5010 O   0  0  0  0  0  0  0  0  0  0  0  0
   -5.6243  -11.1842   22.9109 O   0  0  0  0  0  0  0  0  0  0  0  0
   -3.0987  -10.8017   22.5130 O   0  0  0  0  0  0  0  0  0  0  0  0
   -1.8620   -8.9263   21.2316 O   0  5  0  0  0  0  0  0  0  0  0  0
   -4.4592  -12.2514   20.8809 O   0  0  0  0  0  0  0  0  0  0  0  0
   -0.5566  -10.5933   22.6826 O   0  0  0  0  0  0  0  0  0  0  0  0
   -6.9143  -12.5639   26.2491 S   0  0  0  0  0  0  0  0  0  0  0  0
   -4.4982  -11.0646   21.7660 P   0  0  2  0  0  0  0  0  0  0  0  0
   -1.7978  -10.3304   21.6950 P   0  0  2  0  0  0  0  0  0  0  0  0
  2 16  2  0  0  0  0
  2  3  1  0  0  0  0
  2 13  1  0  0  0  0
  3  8  2  0  0  0  0
  3  4  1  0  0  0  0
  4 14  1  0  0  0  0
  5  1  1  1  0  0  0
  5 14  1  0  0  0  0
  5 10  1  0  0  0  0
  6  7  1  0  0  0  0
  7 13  1  0  0  0  0
  7 15  2  0  0  0  0
  8 15  1  0  0  0  0
  9 14  1  0  0  0  0
  9 24  1  0  0  0  0
 10 24  1  0  0  0  0
 10 11  1  6  0  0  0
 11 12  1  0  0  0  0
 12 19  1  0  0  0  0
 17 25  1  0  0  0  0
 19 25  1  0  0  0  0
 20 26  1  0  0  0  0
 21 26  1  0  0  0  0
 22 25  2  0  0  0  0
 23 26  2  0  0  0  0
 25 20  1  1  0  0  0
 26 18  1  6  0  0  0
M  CHG  2  17  -1  21  -1
M  END
>  <CHROM.1>
-69.93544693,-65.55115873,-61.81594345,-78.60496315,-179.07159858,-55.24852952
59.85535686,-52.58477600,-6.50538363,-13.20547350,23.77468609,2.64069053
0.61477075,1.74363687

>  <Name>
ligand

>  <RI>
0

>  <Rbt.Current_Directory>
/home/itssahil/PROJECTS/Mol_Feturizer/New_Systems/rnas/3D2X

>  <Rbt.Executable>
rbdock ($Id: //depot/dev/client3/rdock/2013.1/src/exe/rbdock.cxx#4 $)

>  <Rbt.Library>
libRbt.so (2013.1, Build901 2013/11/27)

>  <Rbt.Parameter_File>
/export/apps/rDock/src/rDock_2013.1_src/data/scripts/dock_solv.prm

>  <Rbt.Receptor>
prm/pocket_docking_8.prm

>  <SCORE>
-19.1026

>  <SCORE.INTER>
-16.1243

>  <SCORE.INTER.CONST>
1

>  <SCORE.INTER.POLAR>
0

>  <SCORE.INTER.ROT>
8

>  <SCORE.INTER.SOLV>
7.20827

>  <SCORE.INTER.VDW>
-22.0857

>  <SCORE.INTER.norm>
-0.620167

>  <SCORE.INTRA>
-2.97827

>  <SCORE.INTRA.DIHEDRAL>
-2.86728

>  <SCORE.INTRA.DIHEDRAL.0>
7.88077

>  <SCORE.INTRA.POLAR>
0

>  <SCORE.INTRA.POLAR.0>
0

>  <SCORE.INTRA.REPUL>
0

>  <SCORE.INTRA.REPUL.0>
0

>  <SCORE.INTRA.SOLV>
-1.25604

>  <SCORE.INTRA.SOLV.lig_0>
-63.2542

>  <SCORE.INTRA.VDW>
-0.916613

>  <SCORE.INTRA.VDW.0>
-3.15072

>  <SCORE.INTRA.norm>
-0.114549

>  <SCORE.RESTR>
0

>  <SCORE.RESTR.CAVITY>
0

>  <SCORE.RESTR.norm>
0

>  <SCORE.SYSTEM>
0

>  <SCORE.SYSTEM.CONST>
0

>  <SCORE.SYSTEM.DIHEDRAL>
0

>  <SCORE.SYSTEM.SOLV>
0

>  <SCORE.SYSTEM.norm>
0

>  <SCORE.heavy>
26

>  <SCORE.norm>
-0.734716

>  <RMSD>
3.158

$$$$
ligand
 OpenBabel11021811473D
libRbt.so/2013.1/901 2013/11/27
 26 27  0  0  0  0  0  0  0  0999 V2000
   -6.1364  -16.8979   19.9154 C   0  0  0  0  0  0  0  0  0  0  0  0
   -9.5092  -16.8334   24.2462 C   0  0  0  0  0  0  0  0  0  0  0  0
   -8.2889  -16.6736   23.5981 C   0  0  0  0  0  0  0  0  0  0  0  0
   -8.1264  -16.7573   22.0784 C   0  0  0  0  0  0  0  0  0  0  0  0
   -6.5772  -15.5852   20.5697 C   0  0  1  0  0  0  0  0  0  0  0  0
   -8.4569  -16.2798   27.8682 C   0  0  0  0  0  0  0  0  0  0  0  0
   -8.4013  -16.4325   26.3474 C   0  0  0  0  0  0  0  0  0  0  0  0
   -7.1679  -16.4016   24.3758 C   0  0  0  0  0  0  0  0  0  0  0  0
   -7.8101  -14.3424   22.0252 C   0  0  0  0  0  0  0  0  0  0  0  0
   -6.0671  -14.3547   20.1733 C   0  0  2  0  0  0  0  0  0  0  0  0
   -5.0460  -13.9934   19.0915 C   0  0  0  0  0  0  0  0  0  0  0  0
   -5.6374  -13.1224   17.9807 C   0  0  0  0  0  0  0  0  0  0  0  0
   -9.5754  -16.7127   25.6357 N   0  0  0  0  0  0  0  0  0  0  0  0
   -7.4871  -15.5449   21.5471 N   0  0  0  0  0  0  0  0  0  0  0  0
   -7.2422  -16.2891   25.6889 N   0  0  0  0  0  0  0  0  0  0  0  0
  -10.5294  -17.0766   23.6013 O   0  0  0  0  0  0  0  0  0  0  0  0
   -5.2884   -9.4740   19.3870 O   0  5  0  0  0  0  0  0  0  0  0  0
   -1.5182  -11.1202   18.0608 O   0  0  0  0  0  0  0  0  0  0  0  0
   -5.8770  -11.7840   18.4269 O   0  0  0  0  0  0  0  0  0  0  0  0
   -3.5858  -11.3620   19.5474 O   0  0  0  0  0  0  0  0  0  0  0  0
   -1.9132   -9.4390   19.9869 O   0  5  0  0  0  0  0  0  0  0  0  0
   -4.1111  -10.3296   17.2508 O   0  0  0  0  0  0  0  0  0  0  0  0
   -1.2684  -11.8700   20.4994 O   0  0  0  0  0  0  0  0  0  0  0  0
   -6.8092  -13.1692   21.2111 S   0  0  0  0  0  0  0  0  0  0  0  0
   -4.6801  -10.7153   18.5626 P   0  0  2  0  0  0  0  0  0  0  0  0
   -2.0639  -10.8449   19.5498 P   0  0  2  0  0  0  0  0  0  0  0  0
  2 16  2  0  0  0  0
  2  3  1  0  0  0  0
  2 13  1  0  0  0  0
  3  8  2  0  0  0  0
  3  4  1  0  0  0  0
  4 14  1  0  0  0  0
  5  1  1  6  0  0  0
  5 14  1  0  0  0  0
  5 10  1  0  0  0  0
  6  7  1  0  0  0  0
  7 13  1  0  0  0  0
  7 15  2  0  0  0  0
  8 15  1  0  0  0  0
  9 14  1  0  0  0  0
  9 24  1  0  0  0  0
 10 24  1  0  0  0  0
 10 11  1  1  0  0  0
 11 12  1  0  0  0  0
 12 19  1  0  0  0  0
 17 25  1  0  0  0  0
 19 25  1  0  0  0  0
 20 26  1  0  0  0  0
 21 26  1  0  0  0  0
 22 25  2  0  0  0  0
 23 26  2  0  0  0  0
 25 20  1  1  0  0  0
 26 18  1  6  0  0  0
M  CHG  2  17  -1  21  -1
M  END
>  <CHROM.1>
124.98635387,116.82084045,72.61024276,140.45580843,78.02345925,-88.48652033
-167.68072889,-60.75596390,-5.81262918,-13.54462599,21.11883220,2.36865492
0.68744827,1.77655930

>  <Name>
ligand

>  <RI>
0

>  <Rbt.Current_Directory>
/home/itssahil/PROJECTS/Mol_Feturizer/New_Systems/rnas/3D2X

>  <Rbt.Executable>
rbdock ($Id: //depot/dev/client3/rdock/2013.1/src/exe/rbdock.cxx#4 $)

>  <Rbt.Library>
libRbt.so (2013.1, Build901 2013/11/27)

>  <Rbt.Parameter_File>
/export/apps/rDock/src/rDock_2013.1_src/data/scripts/dock_solv.prm

>  <Rbt.Receptor>
prm/pocket_docking_2.prm

>  <SCORE>
-9.40336

>  <SCORE.INTER>
-9.06049

>  <SCORE.INTER.CONST>
1

>  <SCORE.INTER.POLAR>
0

>  <SCORE.INTER.ROT>
8

>  <SCORE.INTER.SOLV>
7.55924

>  <SCORE.INTER.VDW>
-17.4934

>  <SCORE.INTER.norm>
-0.34848

>  <SCORE.INTRA>
-0.979121

>  <SCORE.INTRA.DIHEDRAL>
0.386205

>  <SCORE.INTRA.DIHEDRAL.0>
7.88077

>  <SCORE.INTRA.POLAR>
0

>  <SCORE.INTRA.POLAR.0>
0

>  <SCORE.INTRA.REPUL>
0

>  <SCORE.INTRA.REPUL.0>
0

>  <SCORE.INTRA.SOLV>
-0.932977

>  <SCORE.INTRA.SOLV.lig_0>
-63.2542

>  <SCORE.INTRA.VDW>
-0.705734

>  <SCORE.INTRA.VDW.0>
-3.15072

>  <SCORE.INTRA.norm>
-0.0376585

>  <SCORE.RESTR>
0.636249

>  <SCORE.RESTR.CAVITY>
0.636249

>  <SCORE.RESTR.norm>
0.0244711

>  <SCORE.SYSTEM>
0

>  <SCORE.SYSTEM.CONST>
0

>  <SCORE.SYSTEM.DIHEDRAL>
0

>  <SCORE.SYSTEM.SOLV>
0

>  <SCORE.SYSTEM.norm>
0

>  <SCORE.heavy>
26

>  <SCORE.norm>
-0.361668

>  <RMSD>
3.163

$$$$
ligand
 OpenBabel11021811473D
libRbt.so/2013.1/901 2013/11/27
 26 27  0  0  0  0  0  0  0  0999 V2000
   -8.0235  -13.6780   23.6289 C   0  0  0  0  0  0  0  0  0  0  0  0
  -10.1565  -17.1019   26.6732 C   0  0  0  0  0  0  0  0  0  0  0  0
   -9.5856  -16.5668   25.5232 C   0  0  0  0  0  0  0  0  0  0  0  0
   -8.1834  -15.9542   25.4870 C   0  0  0  0  0  0  0  0  0  0  0  0
   -7.5003  -15.0776   23.2927 C   0  0  1  0  0  0  0  0  0  0  0  0
  -13.4986  -18.3146   25.2975 C   0  0  0  0  0  0  0  0  0  0  0  0
  -12.1085  -17.6829   25.3866 C   0  0  0  0  0  0  0  0  0  0  0  0
  -10.3240  -16.6152   24.3451 C   0  0  0  0  0  0  0  0  0  0  0  0
   -7.0684  -17.2633   23.7614 C   0  0  0  0  0  0  0  0  0  0  0  0
   -6.8975  -15.3677   22.0745 C   0  0  2  0  0  0  0  0  0  0  0  0
   -6.6067  -14.4793   20.8623 C   0  0  0  0  0  0  0  0  0  0  0  0
   -7.5241  -14.7743   19.6733 C   0  0  0  0  0  0  0  0  0  0  0  0
  -11.4312  -17.6686   26.6132 N   0  0  0  0  0  0  0  0  0  0  0  0
   -7.5785  -16.0953   24.1547 N   0  0  0  0  0  0  0  0  0  0  0  0
  -11.5283  -17.1539   24.2998 N   0  0  0  0  0  0  0  0  0  0  0  0
   -9.5428  -17.0814   27.7403 O   0  0  0  0  0  0  0  0  0  0  0  0
   -6.2770  -18.0238   17.8630 O   0  5  0  0  0  0  0  0  0  0  0  0
   -3.0592  -16.2160   17.4715 O   0  0  0  0  0  0  0  0  0  0  0  0
   -7.3616  -16.1141   19.1976 O   0  0  0  0  0  0  0  0  0  0  0  0
   -5.5471  -15.6232   17.4227 O   0  0  0  0  0  0  0  0  0  0  0  0
   -4.5265  -17.0143   15.4961 O   0  5  0  0  0  0  0  0  0  0  0  0
   -4.9091  -16.7473   19.6466 O   0  0  0  0  0  0  0  0  0  0  0  0
   -3.9458  -14.5278   15.7583 O   0  0  0  0  0  0  0  0  0  0  0  0
   -6.5115  -17.0654   22.1208 S   0  0  0  0  0  0  0  0  0  0  0  0
   -5.9565  -16.6324   18.6058 P   0  0  2  0  0  0  0  0  0  0  0  0
   -4.2874  -15.9275   16.4720 P   0  0  2  0  0  0  0  0  0  0  0  0
  2 16  2  0  0  0  0
  2  3  1  0  0  0  0
  2 13  1  0  0  0  0
  3  8  2  0  0  0  0
  3  4  1  0  0  0  0
  4 14  1  0  0  0  0
  5  1  1  1  0  0  0
  5 14  1  0  0  0  0
  5 10  1  0  0  0  0
  6  7  1  0  0  0  0
  7 13  1  0  0  0  0
  7 15  2  0  0  0  0
  8 15  1  0  0  0  0
  9 14  1  0  0  0  0
  9 24  1  0  0  0  0
 10 24  1  0  0  0  0
 10 11  1  6  0  0  0
 11 12  1  0  0  0  0
 12 19  1  0  0  0  0
 17 25  1  0  0  0  0
 19 25  1  0  0  0  0
 20 26  1  0  0  0  0
 21 26  1  0  0  0  0
 22 25  2  0  0  0  0
 23 26  2  0  0  0  0
 25 20  1  6  0  0  0
 26 18  1  1  0  0  0
M  CHG  2  17  -1  21  -1
M  END
>  <CHROM.1>
151.26436200,-107.22588057,-61.89524358,103.28059057,-62.21103685,-60.22688903
-166.40541568,-51.72990242,-7.32284665,-16.35883702,21.35115491,-2.26097212
-0.51880483,-1.85123263

>  <Name>
ligand

>  <RI>
0

>  <Rbt.Current_Directory>
/home/itssahil/PROJECTS/Mol_Feturizer/New_Systems/rnas/3D2X

>  <Rbt.Executable>
rbdock ($Id: //depot/dev/client3/rdock/2013.1/src/exe/rbdock.cxx#4 $)

>  <Rbt.Library>
libRbt.so (2013.1, Build901 2013/11/27)

>  <Rbt.Parameter_File>
/export/apps/rDock/src/rDock_2013.1_src/data/scripts/dock_solv.prm

>  <Rbt.Receptor>
prm/pocket_docking_5.prm

>  <SCORE>
-25.4594

>  <SCORE.INTER>
-23.4196

>  <SCORE.INTER.CONST>
1

>  <SCORE.INTER.POLAR>
0

>  <SCORE.INTER.ROT>
8

>  <SCORE.INTER.SOLV>
17.2277

>  <SCORE.INTER.VDW>
-30.289

>  <SCORE.INTER.norm>
-0.900754

>  <SCORE.INTRA>
-2.03982

>  <SCORE.INTRA.DIHEDRAL>
-2.24913

>  <SCORE.INTRA.DIHEDRAL.0>
7.88077

>  <SCORE.INTRA.POLAR>
0

>  <SCORE.INTRA.POLAR.0>
0

>  <SCORE.INTRA.REPUL>
0

>  <SCORE.INTRA.REPUL.0>
0

>  <SCORE.INTRA.SOLV>
-0.049446

>  <SCORE.INTRA.SOLV.lig_0>
-63.2542

>  <SCORE.INTRA.VDW>
-0.890528

>  <SCORE.INTRA.VDW.0>
-3.15072

>  <SCORE.INTRA.norm>
-0.0784545

>  <SCORE.RESTR>
0

>  <SCORE.RESTR.CAVITY>
0

>  <SCORE.RESTR.norm>
0

>  <SCORE.SYSTEM>
0

>  <SCORE.SYSTEM.CONST>
0

>  <SCORE.SYSTEM.DIHEDRAL>
0

>  <SCORE.SYSTEM.SOLV>
0

>  <SCORE.SYSTEM.norm>
0

>  <SCORE.heavy>
26

>  <SCORE.norm>
-0.979209

>  <RMSD>
3.169

$$$$
ligand
 OpenBabel11021811473D
libRbt.so/2013.1/901 2013/11/27
 26 27  0  0  0  0  0  0  0  0999 V2000
   -6.3916  -13.6888   19.6307 C   0  0  0  0  0  0  0  0  0  0  0  0
  -10.3996  -15.8226   22.6089 C   0  0  0  0  0  0  0  0  0  0  0  0
   -9.1094  -15.3175   22.7308 C   0  0  0  0  0  0  0  0  0  0  0  0
   -8.3862  -14.5767   21.6035 C   0  0  0  0  0  0  0  0  0  0  0  0
   -6.8681  -15.1393   19.7517 C   0  0  1  0  0  0  0  0  0  0  0  0
  -10.9230  -17.2588   26.1012 C   0  0  0  0  0  0  0  0  0  0  0  0
  -10.2778  -16.5780   24.8931 C   0  0  0  0  0  0  0  0  0  0  0  0
   -8.4586  -15.4778   23.9500 C   0  0  0  0  0  0  0  0  0  0  0  0
   -8.0927  -16.8149   20.6875 C   0  0  0  0  0  0  0  0  0  0  0  0
   -6.3760  -16.1489   18.9333 C   0  0  2  0  0  0  0  0  0  0  0  0
   -5.3334  -16.1136   17.8130 C   0  0  0  0  0  0  0  0  0  0  0  0
   -3.8962  -16.0708   18.3374 C   0  0  0  0  0  0  0  0  0  0  0  0
  -10.9982  -16.4609   23.6970 N   0  0  0  0  0  0  0  0  0  0  0  0
   -7.7711  -15.5208   20.6594 N   0  0  0  0  0  0  0  0  0  0  0  0
   -9.0344  -16.0825   24.9723 N   0  0  0  0  0  0  0  0  0  0  0  0
  -11.0160  -15.7065   21.5495 O   0  0  0  0  0  0  0  0  0  0  0  0
   -1.2372  -14.4710   17.9989 O   0  5  0  0  0  0  0  0  0  0  0  0
    0.2970  -12.7736   20.6314 O   0  0  0  0  0  0  0  0  0  0  0  0
   -3.5956  -14.8176   18.9593 O   0  0  0  0  0  0  0  0  0  0  0  0
   -2.1105  -12.8636   19.7717 O   0  0  0  0  0  0  0  0  0  0  0  0
   -0.2919  -11.6866   18.3590 O   0  5  0  0  0  0  0  0  0  0  0  0
   -1.5400  -15.2827   20.4343 O   0  0  0  0  0  0  0  0  0  0  0  0
   -1.1206  -10.6393   20.5509 O   0  0  0  0  0  0  0  0  0  0  0  0
   -7.2261  -17.5979   19.3926 S   0  0  0  0  0  0  0  0  0  0  0  0
   -2.0887  -14.4189   19.3637 P   0  0  2  0  0  0  0  0  0  0  0  0
   -0.7710  -11.9763   19.7290 P   0  0  2  0  0  0  0  0  0  0  0  0
  2 16  2  0  0  0  0
  2  3  1  0  0  0  0
  2 13  1  0  0  0  0
  3  8  2  0  0  0  0
  3  4  1  0  0  0  0
  4 14  1  0  0  0  0
  5  1  1  1  0  0  0
  5 14  1  0  0  0  0
  5 10  1  0  0  0  0
  6  7  1  0  0  0  0
  7 13  1  0  0  0  0
  7 15  2  0  0  0  0
  8 15  1  0  0  0  0
  9 14  1  0  0  0  0
  9 24  1  0  0  0  0
 10 24  1  0  0  0  0
 10 11  1  6  0  0  0
 11 12  1  0  0  0  0
 12 19  1  0  0  0  0
 17 25  1  0  0  0  0
 19 25  1  0  0  0  0
 20 26  1  0  0  0  0
 21 26  1  0  0  0  0
 22 25  2  0  0  0  0
 23 26  2  0  0  0  0
 25 20  1  1  0  0  0
 26 18  1  1  0  0  0
M  CHG  2  17  -1  21  -1
M  END
>  <CHROM.1>
-82.68550977,77.98088507,-69.53274386,-166.23513527,-169.25898850,-45.92393552
58.45510083,-54.27546482,-5.38382246,-14.85964453,20.64878084,2.97928335
0.50011733,1.05596509

>  <Name>
ligand

>  <RI>
0

>  <Rbt.Current_Directory>
/home/itssahil/PROJECTS/Mol_Feturizer/New_Systems/rnas/3D2X

>  <Rbt.Executable>
rbdock ($Id: //depot/dev/client3/rdock/2013.1/src/exe/rbdock.cxx#4 $)

>  <Rbt.Library>
libRbt.so (2013.1, Build901 2013/11/27)

>  <Rbt.Parameter_File>
/export/apps/rDock/src/rDock_2013.1_src/data/scripts/dock_solv.prm

>  <Rbt.Receptor>
prm/pocket_docking_7.prm

>  <SCORE>
-15.6629

>  <SCORE.INTER>
-14.3549

>  <SCORE.INTER.CONST>
1

>  <SCORE.INTER.POLAR>
0

>  <SCORE.INTER.ROT>
8

>  <SCORE.INTER.SOLV>
14.6807

>  <SCORE.INTER.VDW>
-23.3969

>  <SCORE.INTER.norm>
-0.552112

>  <SCORE.INTRA>
-1.30794

>  <SCORE.INTRA.DIHEDRAL>
-1.43085

>  <SCORE.INTRA.DIHEDRAL.0>
7.88077

>  <SCORE.INTRA.POLAR>
0

>  <SCORE.INTRA.POLAR.0>
0

>  <SCORE.INTRA.REPUL>
0

>  <SCORE.INTRA.REPUL.0>
0

>  <SCORE.INTRA.SOLV>
-1.10618

>  <SCORE.INTRA.SOLV.lig_0>
-63.2542

>  <SCORE.INTRA.VDW>
-0.0394242

>  <SCORE.INTRA.VDW.0>
-3.15072

>  <SCORE.INTRA.norm>
-0.0503053

>  <SCORE.RESTR>
0

>  <SCORE.RESTR.CAVITY>
0

>  <SCORE.RESTR.norm>
0

>  <SCORE.SYSTEM>
0

>  <SCORE.SYSTEM.CONST>
0

>  <SCORE.SYSTEM.DIHEDRAL>
0

>  <SCORE.SYSTEM.SOLV>
0

>  <SCORE.SYSTEM.norm>
0

>  <SCORE.heavy>
26

>  <SCORE.norm>
-0.602417

>  <RMSD>
3.187

$$$$
ligand
 OpenBabel11021811473D
libRbt.so/2013.1/901 2013/11/27
 26 27  0  0  0  0  0  0  0  0999 V2000
   -5.6659  -14.2615   26.1951 C   0  0  0  0  0  0  0  0  0  0  0  0
   -9.8296  -16.7949   26.6702 C   0  0  0  0  0  0  0  0  0  0  0  0
   -9.1831  -16.6245   25.4505 C   0  0  0  0  0  0  0  0  0  0  0  0
   -7.7250  -16.1759   25.3268 C   0  0  0  0  0  0  0  0  0  0  0  0
   -6.7104  -13.9447   25.1208 C   0  0  1  0  0  0  0  0  0  0  0  0
  -13.2494  -17.9959   25.4893 C   0  0  0  0  0  0  0  0  0  0  0  0
  -11.8040  -17.4961   25.4815 C   0  0  0  0  0  0  0  0  0  0  0  0
   -9.8981  -16.8998   24.2892 C   0  0  0  0  0  0  0  0  0  0  0  0
   -8.4765  -14.4530   23.7770 C   0  0  0  0  0  0  0  0  0  0  0  0
   -6.7498  -12.7184   24.4680 C   0  0  2  0  0  0  0  0  0  0  0  0
   -5.8628  -11.4786   24.6077 C   0  0  0  0  0  0  0  0  0  0  0  0
   -4.5647  -11.5806   23.8035 C   0  0  0  0  0  0  0  0  0  0  0  0
  -11.1543  -17.2356   26.6954 N   0  0  0  0  0  0  0  0  0  0  0  0
   -7.6330  -14.8319   24.7382 N   0  0  0  0  0  0  0  0  0  0  0  0
  -11.1502  -17.3165   24.3248 N   0  0  0  0  0  0  0  0  0  0  0  0
   -9.2391  -16.5628   27.7254 O   0  0  0  0  0  0  0  0  0  0  0  0
   -1.4193  -11.2861   23.5455 O   0  5  0  0  0  0  0  0  0  0  0  0
   -1.0796   -9.1995   20.2621 O   0  0  0  0  0  0  0  0  0  0  0  0
   -3.7989  -10.3741   23.8770 O   0  0  0  0  0  0  0  0  0  0  0  0
   -2.7980  -10.6281   21.5070 O   0  0  0  0  0  0  0  0  0  0  0  0
   -0.6103  -11.7129   20.6552 O   0  5  0  0  0  0  0  0  0  0  0  0
   -1.9291   -8.7938   23.0872 O   0  0  0  0  0  0  0  0  0  0  0  0
   -2.4300  -10.9766   19.0015 O   0  0  0  0  0  0  0  0  0  0  0  0
   -8.1099  -12.7944   23.3829 S   0  0  0  0  0  0  0  0  0  0  0  0
   -2.4553  -10.1761   23.0117 P   0  0  2  0  0  0  0  0  0  0  0  0
   -1.6528  -10.6988   20.3813 P   0  0  2  0  0  0  0  0  0  0  0  0
  2 16  2  0  0  0  0
  2  3  1  0  0  0  0
  2 13  1  0  0  0  0
  3  8  2  0  0  0  0
  3  4  1  0  0  0  0
  4 14  1  0  0  0  0
  5  1  1  6  0  0  0
  5 14  1  0  0  0  0
  5 10  1  0  0  0  0
  6  7  1  0  0  0  0
  7 13  1  0  0  0  0
  7 15  2  0  0  0  0
  8 15  1  0  0  0  0
  9 14  1  0  0  0  0
  9 24  1  0  0  0  0
 10 24  1  0  0  0  0
 10 11  1  1  0  0  0
 11 12  1  0  0  0  0
 12 19  1  0  0  0  0
 17 25  1  0  0  0  0
 19 25  1  0  0  0  0
 20 26  1  0  0  0  0
 21 26  1  0  0  0  0
 22 25  2  0  0  0  0
 23 26  2  0  0  0  0
 25 20  1  6  0  0  0
 26 18  1  6  0  0  0
M  CHG  2  17  -1  21  -1
M  END
>  <CHROM.1>
-112.18628911,82.45740209,175.96517816,143.90721080,-174.45080087,-62.11651170
-63.70589556,-60.65095274,-5.87968399,-13.14610523,23.66610679,-2.78777347
-0.65255231,-1.59953115

>  <Name>
ligand

>  <RI>
0

>  <Rbt.Current_Directory>
/home/itssahil/PROJECTS/Mol_Feturizer/New_Systems/rnas/3D2X

>  <Rbt.Executable>
rbdock ($Id: //depot/dev/client3/rdock/2013.1/src/exe/rbdock.cxx#4 $)

>  <Rbt.Library>
libRbt.so (2013.1, Build901 2013/11/27)

>  <Rbt.Parameter_File>
/export/apps/rDock/src/rDock_2013.1_src/data/scripts/dock_solv.prm

>  <Rbt.Receptor>
prm/pocket_docking_5.prm

>  <SCORE>
-19.6183

>  <SCORE.INTER>
-17.8567

>  <SCORE.INTER.CONST>
1

>  <SCORE.INTER.POLAR>
0

>  <SCORE.INTER.ROT>
8

>  <SCORE.INTER.SOLV>
8.28913

>  <SCORE.INTER.VDW>
-23.6009

>  <SCORE.INTER.norm>
-0.686798

>  <SCORE.INTRA>
-1.76156

>  <SCORE.INTRA.DIHEDRAL>
-2.6714

>  <SCORE.INTRA.DIHEDRAL.0>
7.88077

>  <SCORE.INTRA.POLAR>
0

>  <SCORE.INTRA.POLAR.0>
0

>  <SCORE.INTRA.REPUL>
0

>  <SCORE.INTRA.REPUL.0>
0

>  <SCORE.INTRA.SOLV>
-1.47395

>  <SCORE.INTRA.SOLV.lig_0>
-63.2542

>  <SCORE.INTRA.VDW>
0.311106

>  <SCORE.INTRA.VDW.0>
-3.15072

>  <SCORE.INTRA.norm>
-0.0677525

>  <SCORE.RESTR>
0

>  <SCORE.RESTR.CAVITY>
0

>  <SCORE.RESTR.norm>
0

>  <SCORE.SYSTEM>
0

>  <SCORE.SYSTEM.CONST>
0

>  <SCORE.SYSTEM.DIHEDRAL>
0

>  <SCORE.SYSTEM.SOLV>
0

>  <SCORE.SYSTEM.norm>
0

>  <SCORE.heavy>
26

>  <SCORE.norm>
-0.75455

>  <RMSD>
3.196

$$$$
ligand
 OpenBabel11021811473D
libRbt.so/2013.1/901 2013/11/27
 26 27  0  0  0  0  0  0  0  0999 V2000
   -8.4966  -14.0527   23.3666 C   0  0  0  0  0  0  0  0  0  0  0  0
   -9.8131  -16.7419   26.4693 C   0  0  0  0  0  0  0  0  0  0  0  0
   -9.2710  -16.8219   25.1909 C   0  0  0  0  0  0  0  0  0  0  0  0
   -7.8119  -16.4857   24.8735 C   0  0  0  0  0  0  0  0  0  0  0  0
   -7.9013  -15.3056   22.7173 C   0  0  1  0  0  0  0  0  0  0  0  0
  -13.3723  -17.9307   25.7971 C   0  0  0  0  0  0  0  0  0  0  0  0
  -11.9133  -17.5234   25.5853 C   0  0  0  0  0  0  0  0  0  0  0  0
  -10.0974  -17.2521   24.1577 C   0  0  0  0  0  0  0  0  0  0  0  0
   -7.0581  -17.4200   22.7537 C   0  0  0  0  0  0  0  0  0  0  0  0
   -7.6316  -15.3745   21.3557 C   0  0  2  0  0  0  0  0  0  0  0  0
   -7.8190  -14.3407   20.2423 C   0  0  0  0  0  0  0  0  0  0  0  0
   -6.6728  -13.3291   20.1690 C   0  0  0  0  0  0  0  0  0  0  0  0
  -11.1479  -17.0950   26.6780 N   0  0  0  0  0  0  0  0  0  0  0  0
   -7.5929  -16.3975   23.4226 N   0  0  0  0  0  0  0  0  0  0  0  0
  -11.3579  -17.5840   24.3665 N   0  0  0  0  0  0  0  0  0  0  0  0
   -9.1220  -16.3654   27.4161 O   0  0  0  0  0  0  0  0  0  0  0  0
   -6.3408  -10.0574   20.9000 O   0  5  0  0  0  0  0  0  0  0  0  0
   -3.1304  -12.1557   23.4632 O   0  0  0  0  0  0  0  0  0  0  0  0
   -6.5542  -12.5733   21.3783 O   0  0  0  0  0  0  0  0  0  0  0  0
   -5.3779  -11.0022   23.0610 O   0  0  0  0  0  0  0  0  0  0  0  0
   -4.6798  -11.6370   25.4689 O   0  5  0  0  0  0  0  0  0  0  0  0
   -4.2498  -11.5750   20.8214 O   0  0  0  0  0  0  0  0  0  0  0  0
   -5.3174  -13.4562   23.7742 O   0  0  0  0  0  0  0  0  0  0  0  0
   -7.0179  -16.9786   21.0672 S   0  0  0  0  0  0  0  0  0  0  0  0
   -5.5450  -11.3239   21.4943 P   0  0  2  0  0  0  0  0  0  0  0  0
   -4.6267  -12.0293   24.0428 P   0  0  2  0  0  0  0  0  0  0  0  0
  2 16  2  0  0  0  0
  2  3  1  0  0  0  0
  2 13  1  0  0  0  0
  3  8  2  0  0  0  0
  3  4  1  0  0  0  0
  4 14  1  0  0  0  0
  5  1  1  1  0  0  0
  5 14  1  0  0  0  0
  5 10  1  0  0  0  0
  6  7  1  0  0  0  0
  7 13  1  0  0  0  0
  7 15  2  0  0  0  0
  8 15  1  0  0  0  0
  9 14  1  0  0  0  0
  9 24  1  0  0  0  0
 10 24  1  0  0  0  0
 10 11  1  6  0  0  0
 11 12  1  0  0  0  0
 12 19  1  0  0  0  0
 17 25  1  0  0  0  0
 19 25  1  0  0  0  0
 20 26  1  0  0  0  0
 21 26  1  0  0  0  0
 22 25  2  0  0  0  0
 23 26  2  0  0  0  0
 25 20  1  1  0  0  0
 26 18  1  6  0  0  0
M  CHG  2  17  -1  21  -1
M  END
>  <CHROM.1>
-168.56396767,82.08723650,-61.16966295,80.95003969,-172.47529705,179.94025137
84.35803225,60.52500033,-7.33975728,-14.42701261,23.28338894,-2.89563684
-0.82980637,-1.74527181

>  <Name>
ligand

>  <RI>
0

>  <Rbt.Current_Directory>
/home/itssahil/PROJECTS/Mol_Feturizer/New_Systems/rnas/3D2X

>  <Rbt.Executable>
rbdock ($Id: //depot/dev/client3/rdock/2013.1/src/exe/rbdock.cxx#4 $)

>  <Rbt.Library>
libRbt.so (2013.1, Build901 2013/11/27)

>  <Rbt.Parameter_File>
/export/apps/rDock/src/rDock_2013.1_src/data/scripts/dock_solv.prm

>  <Rbt.Receptor>
prm/pocket_docking_5.prm

>  <SCORE>
-22.8125

>  <SCORE.INTER>
-20.358

>  <SCORE.INTER.CONST>
1

>  <SCORE.INTER.POLAR>
0

>  <SCORE.INTER.ROT>
8

>  <SCORE.INTER.SOLV>
8.96543

>  <SCORE.INTER.VDW>
-25.4938

>  <SCORE.INTER.norm>
-0.783

>  <SCORE.INTRA>
-2.45453

>  <SCORE.INTRA.DIHEDRAL>
-2.10854

>  <SCORE.INTRA.DIHEDRAL.0>
7.88077

>  <SCORE.INTRA.POLAR>
0

>  <SCORE.INTRA.POLAR.0>
0

>  <SCORE.INTRA.REPUL>
0

>  <SCORE.INTRA.REPUL.0>
0

>  <SCORE.INTRA.SOLV>
0.282636

>  <SCORE.INTRA.SOLV.lig_0>
-63.2542

>  <SCORE.INTRA.VDW>
-1.54158

>  <SCORE.INTRA.VDW.0>
-3.15072

>  <SCORE.INTRA.norm>
-0.094405

>  <SCORE.RESTR>
0

>  <SCORE.RESTR.CAVITY>
0

>  <SCORE.RESTR.norm>
0

>  <SCORE.SYSTEM>
0

>  <SCORE.SYSTEM.CONST>
0

>  <SCORE.SYSTEM.DIHEDRAL>
0

>  <SCORE.SYSTEM.SOLV>
0

>  <SCORE.SYSTEM.norm>
0

>  <SCORE.heavy>
26

>  <SCORE.norm>
-0.877405

>  <RMSD>
3.215

$$$$
ligand
 OpenBabel11021811473D
libRbt.so/2013.1/901 2013/11/27
 26 27  0  0  0  0  0  0  0  0999 V2000
   -7.3145  -13.4768   19.5370 C   0  0  0  0  0  0  0  0  0  0  0  0
   -8.6858  -14.7310   22.9342 C   0  0  0  0  0  0  0  0  0  0  0  0
   -9.0051  -15.7895   22.0902 C   0  0  0  0  0  0  0  0  0  0  0  0
   -8.9575  -15.6917   20.5635 C   0  0  0  0  0  0  0  0  0  0  0  0
   -6.8332  -14.9299   19.5851 C   0  0  1  0  0  0  0  0  0  0  0  0
   -9.1267  -16.3908   26.3376 C   0  0  0  0  0  0  0  0  0  0  0  0
   -9.0926  -16.1672   24.8250 C   0  0  0  0  0  0  0  0  0  0  0  0
   -9.3629  -17.0020   22.6710 C   0  0  0  0  0  0  0  0  0  0  0  0
   -7.0615  -17.1414   20.0752 C   0  0  0  0  0  0  0  0  0  0  0  0
   -5.5670  -15.3032   19.1505 C   0  0  2  0  0  0  0  0  0  0  0  0
   -4.4182  -14.4712   18.5748 C   0  0  0  0  0  0  0  0  0  0  0  0
   -3.9978  -13.3204   19.4919 C   0  0  0  0  0  0  0  0  0  0  0  0
   -8.7268  -14.9132   24.3180 N   0  0  0  0  0  0  0  0  0  0  0  0
   -7.5949  -15.9190   20.0609 N   0  0  0  0  0  0  0  0  0  0  0  0
   -9.3978  -17.1631   23.9808 N   0  0  0  0  0  0  0  0  0  0  0  0
   -8.3643  -13.6380   22.4676 O   0  0  0  0  0  0  0  0  0  0  0  0
   -1.6421  -15.3370   19.4760 O   0  5  0  0  0  0  0  0  0  0  0  0
   -2.3335  -11.0890   21.1314 O   0  0  0  0  0  0  0  0  0  0  0  0
   -3.3211  -13.7935   20.6606 O   0  0  0  0  0  0  0  0  0  0  0  0
   -0.9567  -12.9500   20.0431 O   0  0  0  0  0  0  0  0  0  0  0  0
   -0.0429  -11.7431   22.1400 O   0  5  0  0  0  0  0  0  0  0  0  0
   -1.2646  -14.6582   21.9414 O   0  0  0  0  0  0  0  0  0  0  0  0
   -0.1662  -10.5242   19.8845 O   0  0  0  0  0  0  0  0  0  0  0  0
   -5.4811  -17.0316   19.3466 S   0  0  0  0  0  0  0  0  0  0  0  0
   -1.7668  -14.2130   20.6213 P   0  0  2  0  0  0  0  0  0  0  0  0
   -0.8233  -11.5914   20.8916 P   0  0  2  0  0  0  0  0  0  0  0  0
  2 16  2  0  0  0  0
  2  3  1  0  0  0  0
  2 13  1  0  0  0  0
  3  8  2  0  0  0  0
  3  4  1  0  0  0  0
  4 14  1  0  0  0  0
  5  1  1  1  0  0  0
  5 14  1  0  0  0  0
  5 10  1  0  0  0  0
  6  7  1  0  0  0  0
  7 13  1  0  0  0  0
  7 15  2  0  0  0  0
  8 15  1  0  0  0  0
  9 14  1  0  0  0  0
  9 24  1  0  0  0  0
 10 24  1  0  0  0  0
 10 11  1  6  0  0  0
 11 12  1  0  0  0  0
 12 19  1  0  0  0  0
 17 25  1  0  0  0  0
 19 25  1  0  0  0  0
 20 26  1  0  0  0  0
 21 26  1  0  0  0  0
 22 25  2  0  0  0  0
 23 26  2  0  0  0  0
 25 20  1  6  0  0  0
 26 18  1  1  0  0  0
M  CHG  2  17  -1  21  -1
M  END
>  <CHROM.1>
83.70650647,55.47128292,71.15172735,-106.77857807,79.88298790,-179.61316687
-56.14103357,-59.63666179,-4.91240463,-14.44423880,21.12343092,3.07927440
0.49545640,1.13542257

>  <Name>
ligand

>  <RI>
0

>  <Rbt.Current_Directory>
/home/itssahil/PROJECTS/Mol_Feturizer/New_Systems/rnas/3D2X

>  <Rbt.Executable>
rbdock ($Id: //depot/dev/client3/rdock/2013.1/src/exe/rbdock.cxx#4 $)

>  <Rbt.Library>
libRbt.so (2013.1, Build901 2013/11/27)

>  <Rbt.Parameter_File>
/export/apps/rDock/src/rDock_2013.1_src/data/scripts/dock_solv.prm

>  <Rbt.Receptor>
prm/pocket_docking_4.prm

>  <SCORE>
-13.4705

>  <SCORE.INTER>
-11.3368

>  <SCORE.INTER.CONST>
1

>  <SCORE.INTER.POLAR>
0

>  <SCORE.INTER.ROT>
8

>  <SCORE.INTER.SOLV>
15.2384

>  <SCORE.INTER.VDW>
-21.5706

>  <SCORE.INTER.norm>
-0.436029

>  <SCORE.INTRA>
-2.13376

>  <SCORE.INTRA.DIHEDRAL>
-1.02246

>  <SCORE.INTRA.DIHEDRAL.0>
7.88077

>  <SCORE.INTRA.POLAR>
0

>  <SCORE.INTRA.POLAR.0>
0

>  <SCORE.INTRA.REPUL>
0

>  <SCORE.INTRA.REPUL.0>
0

>  <SCORE.INTRA.SOLV>
-1.37282

>  <SCORE.INTRA.SOLV.lig_0>
-63.2542

>  <SCORE.INTRA.VDW>
-0.936124

>  <SCORE.INTRA.VDW.0>
-3.15072

>  <SCORE.INTRA.norm>
-0.0820679

>  <SCORE.RESTR>
0

>  <SCORE.RESTR.CAVITY>
0

>  <SCORE.RESTR.norm>
0

>  <SCORE.SYSTEM>
0

>  <SCORE.SYSTEM.CONST>
0

>  <SCORE.SYSTEM.DIHEDRAL>
0

>  <SCORE.SYSTEM.SOLV>
0

>  <SCORE.SYSTEM.norm>
0

>  <SCORE.heavy>
26

>  <SCORE.norm>
-0.518097

>  <RMSD>
3.216

$$$$
ligand
 OpenBabel11021811473D
libRbt.so/2013.1/901 2013/11/27
 26 27  0  0  0  0  0  0  0  0999 V2000
   -7.0412  -13.6835   24.8339 C   0  0  0  0  0  0  0  0  0  0  0  0
  -10.1416  -16.6724   26.2670 C   0  0  0  0  0  0  0  0  0  0  0  0
   -9.6155  -16.7723   24.9833 C   0  0  0  0  0  0  0  0  0  0  0  0
   -8.1752  -16.3914   24.6327 C   0  0  0  0  0  0  0  0  0  0  0  0
   -7.6291  -14.2560   23.5407 C   0  0  1  0  0  0  0  0  0  0  0  0
  -13.6620  -18.0158   25.6883 C   0  0  0  0  0  0  0  0  0  0  0  0
  -12.2230  -17.5605   25.4410 C   0  0  0  0  0  0  0  0  0  0  0  0
  -10.4398  -17.2659   23.9771 C   0  0  0  0  0  0  0  0  0  0  0  0
   -8.5969  -15.8907   22.2861 C   0  0  0  0  0  0  0  0  0  0  0  0
   -7.6576  -13.5285   22.3570 C   0  0  2  0  0  0  0  0  0  0  0  0
   -7.1616  -12.1164   22.0351 C   0  0  0  0  0  0  0  0  0  0  0  0
   -5.6478  -12.0511   21.8194 C   0  0  0  0  0  0  0  0  0  0  0  0
  -11.4586  -17.0691   26.5076 N   0  0  0  0  0  0  0  0  0  0  0  0
   -8.1338  -15.4910   23.4713 N   0  0  0  0  0  0  0  0  0  0  0  0
  -11.6834  -17.6385   24.2160 N   0  0  0  0  0  0  0  0  0  0  0  0
   -9.4516  -16.2403   27.1906 O   0  0  0  0  0  0  0  0  0  0  0  0
   -4.7160   -8.4847   20.5317 O   0  5  0  0  0  0  0  0  0  0  0  0
   -6.2650   -8.8566   18.2111 O   0  0  0  0  0  0  0  0  0  0  0  0
   -5.2784  -10.9517   20.9812 O   0  0  0  0  0  0  0  0  0  0  0  0
   -7.1548   -9.2188   20.5818 O   0  0  0  0  0  0  0  0  0  0  0  0
   -7.3325  -11.1263   18.8445 O   0  5  0  0  0  0  0  0  0  0  0  0
   -5.8043   -9.1802   22.7708 O   0  0  0  0  0  0  0  0  0  0  0  0
   -8.7890   -9.0242   18.6258 O   0  0  0  0  0  0  0  0  0  0  0  0
   -8.4467  -14.5469   21.1851 S   0  0  0  0  0  0  0  0  0  0  0  0
   -5.7418   -9.4461   21.3152 P   0  0  2  0  0  0  0  0  0  0  0  0
   -7.3760   -9.6617   19.0526 P   0  0  2  0  0  0  0  0  0  0  0  0
  2 16  2  0  0  0  0
  2  3  1  0  0  0  0
  2 13  1  0  0  0  0
  3  8  2  0  0  0  0
  3  4  1  0  0  0  0
  4 14  1  0  0  0  0
  5  1  1  6  0  0  0
  5 14  1  0  0  0  0
  5 10  1  0  0  0  0
  6  7  1  0  0  0  0
  7 13  1  0  0  0  0
  7 15  2  0  0  0  0
  8 15  1  0  0  0  0
  9 14  1  0  0  0  0
  9 24  1  0  0  0  0
 10 24  1  0  0  0  0
 10 11  1  1  0  0  0
 11 12  1  0  0  0  0
 12 19  1  0  0  0  0
 17 25  1  0  0  0  0
 19 25  1  0  0  0  0
 20 26  1  0  0  0  0
 21 26  1  0  0  0  0
 22 25  2  0  0  0  0
 23 26  2  0  0  0  0
 25 20  1  6  0  0  0
 26 18  1  6  0  0  0
M  CHG  2  17  -1  21  -1
M  END
>  <CHROM.1>
-129.70698449,78.96744172,154.34768815,118.91073070,53.79758355,65.64979507
158.97429844,-58.31541011,-8.07566076,-13.04148939,22.36952412,-2.14086590
-0.65933213,-0.98611516

>  <Name>
ligand

>  <RI>
0

>  <Rbt.Current_Directory>
/home/itssahil/PROJECTS/Mol_Feturizer/New_Systems/rnas/3D2X

>  <Rbt.Executable>
rbdock ($Id: //depot/dev/client3/rdock/2013.1/src/exe/rbdock.cxx#4 $)

>  <Rbt.Library>
libRbt.so (2013.1, Build901 2013/11/27)

>  <Rbt.Parameter_File>
/export/apps/rDock/src/rDock_2013.1_src/data/scripts/dock_solv.prm

>  <Rbt.Receptor>
prm/pocket_docking_6.prm

>  <SCORE>
-23.1064

>  <SCORE.INTER>
-23.1095

>  <SCORE.INTER.CONST>
1

>  <SCORE.INTER.POLAR>
0

>  <SCORE.INTER.ROT>
8

>  <SCORE.INTER.SOLV>
18.8263

>  <SCORE.INTER.VDW>
-30.6151

>  <SCORE.INTER.norm>
-0.888826

>  <SCORE.INTRA>
0.00310626

>  <SCORE.INTRA.DIHEDRAL>
0.336035

>  <SCORE.INTRA.DIHEDRAL.0>
7.88077

>  <SCORE.INTRA.POLAR>
0

>  <SCORE.INTRA.POLAR.0>
0

>  <SCORE.INTRA.REPUL>
0

>  <SCORE.INTRA.REPUL.0>
0

>  <SCORE.INTRA.SOLV>
0.114824

>  <SCORE.INTRA.SOLV.lig_0>
-63.2542

>  <SCORE.INTRA.VDW>
-0.222324

>  <SCORE.INTRA.VDW.0>
-3.15072

>  <SCORE.INTRA.norm>
0.000119471

>  <SCORE.RESTR>
0

>  <SCORE.RESTR.CAVITY>
0

>  <SCORE.RESTR.norm>
0

>  <SCORE.SYSTEM>
0

>  <SCORE.SYSTEM.CONST>
0

>  <SCORE.SYSTEM.DIHEDRAL>
0

>  <SCORE.SYSTEM.SOLV>
0

>  <SCORE.SYSTEM.norm>
0

>  <SCORE.heavy>
26

>  <SCORE.norm>
-0.888706

>  <RMSD>
3.221

$$$$
ligand
 OpenBabel11021811473D
libRbt.so/2013.1/901 2013/11/27
 26 27  0  0  0  0  0  0  0  0999 V2000
   -8.2895  -13.8618   23.6476 C   0  0  0  0  0  0  0  0  0  0  0  0
  -10.0059  -16.7523   26.4723 C   0  0  0  0  0  0  0  0  0  0  0  0
   -9.3830  -16.8171   25.2303 C   0  0  0  0  0  0  0  0  0  0  0  0
   -7.9154  -16.4456   25.0050 C   0  0  0  0  0  0  0  0  0  0  0  0
   -7.7920  -15.1228   22.9349 C   0  0  1  0  0  0  0  0  0  0  0  0
  -13.4866  -18.0243   25.5779 C   0  0  0  0  0  0  0  0  0  0  0  0
  -12.0274  -17.5820   25.4581 C   0  0  0  0  0  0  0  0  0  0  0  0
  -10.1326  -17.2648   24.1471 C   0  0  0  0  0  0  0  0  0  0  0  0
   -7.1632  -17.3095   22.8549 C   0  0  0  0  0  0  0  0  0  0  0  0
   -7.4698  -15.1286   21.5831 C   0  0  2  0  0  0  0  0  0  0  0  0
   -7.5047  -14.0100   20.5386 C   0  0  0  0  0  0  0  0  0  0  0  0
   -6.7257  -14.3566   19.2677 C   0  0  0  0  0  0  0  0  0  0  0  0
  -11.3423  -17.1375   26.5968 N   0  0  0  0  0  0  0  0  0  0  0  0
   -7.6242  -16.2844   23.5731 N   0  0  0  0  0  0  0  0  0  0  0  0
  -11.3954  -17.6270   24.2765 N   0  0  0  0  0  0  0  0  0  0  0  0
   -9.3846  -16.3613   27.4606 O   0  0  0  0  0  0  0  0  0  0  0  0
   -2.9078  -15.1754   18.9752 O   0  5  0  0  0  0  0  0  0  0  0  0
   -3.1624  -17.6745   17.6122 O   0  0  0  0  0  0  0  0  0  0  0  0
   -5.3258  -14.5015   19.5265 O   0  0  0  0  0  0  0  0  0  0  0  0
   -4.7601  -15.7002   17.3070 O   0  0  0  0  0  0  0  0  0  0  0  0
   -5.3328  -17.5558   19.0150 O   0  5  0  0  0  0  0  0  0  0  0  0
   -4.0487  -13.2556   17.6735 O   0  0  0  0  0  0  0  0  0  0  0  0
   -5.4422  -18.0258   16.4941 O   0  0  0  0  0  0  0  0  0  0  0  0
   -7.0046  -16.7641   21.2062 S   0  0  0  0  0  0  0  0  0  0  0  0
   -4.2511  -14.5680   18.3291 P   0  0  2  0  0  0  0  0  0  0  0  0
   -4.7142  -17.2570   17.7041 P   0  0  2  0  0  0  0  0  0  0  0  0
  2 16  2  0  0  0  0
  2  3  1  0  0  0  0
  2 13  1  0  0  0  0
  3  8  2  0  0  0  0
  3  4  1  0  0  0  0
  4 14  1  0  0  0  0
  5  1  1  1  0  0  0
  5 14  1  0  0  0  0
  5 10  1  0  0  0  0
  6  7  1  0  0  0  0
  7 13  1  0  0  0  0
  7 15  2  0  0  0  0
  8 15  1  0  0  0  0
  9 14  1  0  0  0  0
  9 24  1  0  0  0  0
 10 24  1  0  0  0  0
 10 11  1  6  0  0  0
 11 12  1  0  0  0  0
 12 19  1  0  0  0  0
 17 25  1  0  0  0  0
 19 25  1  0  0  0  0
 20 26  1  0  0  0  0
 21 26  1  0  0  0  0
 22 25  2  0  0  0  0
 23 26  2  0  0  0  0
 25 20  1  6  0  0  0
 26 18  1  1  0  0  0
M  CHG  2  17  -1  21  -1
M  END
>  <CHROM.1>
-165.76419127,164.84500131,-64.80840287,87.67620788,-167.41774151,41.63272055
-162.97541984,-74.35341242,-7.09042473,-16.15973086,21.36549841,-2.77732624
-0.83782725,-2.52380274

>  <Name>
ligand

>  <RI>
0

>  <Rbt.Current_Directory>
/home/itssahil/PROJECTS/Mol_Feturizer/New_Systems/rnas/3D2X

>  <Rbt.Executable>
rbdock ($Id: //depot/dev/client3/rdock/2013.1/src/exe/rbdock.cxx#4 $)

>  <Rbt.Library>
libRbt.so (2013.1, Build901 2013/11/27)

>  <Rbt.Parameter_File>
/export/apps/rDock/src/rDock_2013.1_src/data/scripts/dock_solv.prm

>  <Rbt.Receptor>
prm/pocket_docking_5.prm

>  <SCORE>
-24.8624

>  <SCORE.INTER>
-23.1872

>  <SCORE.INTER.CONST>
1

>  <SCORE.INTER.POLAR>
0

>  <SCORE.INTER.ROT>
8

>  <SCORE.INTER.SOLV>
14.8757

>  <SCORE.INTER.VDW>
-29.35

>  <SCORE.INTER.norm>
-0.891813

>  <SCORE.INTRA>
-1.67526

>  <SCORE.INTRA.DIHEDRAL>
-1.67112

>  <SCORE.INTRA.DIHEDRAL.0>
7.88077

>  <SCORE.INTRA.POLAR>
0

>  <SCORE.INTRA.POLAR.0>
0

>  <SCORE.INTRA.REPUL>
0

>  <SCORE.INTRA.REPUL.0>
0

>  <SCORE.INTRA.SOLV>
-0.74

>  <SCORE.INTRA.SOLV.lig_0>
-63.2542

>  <SCORE.INTRA.VDW>
-0.469701

>  <SCORE.INTRA.VDW.0>
-3.15072

>  <SCORE.INTRA.norm>
-0.0644332

>  <SCORE.RESTR>
0

>  <SCORE.RESTR.CAVITY>
0

>  <SCORE.RESTR.norm>
0

>  <SCORE.SYSTEM>
0

>  <SCORE.SYSTEM.CONST>
0

>  <SCORE.SYSTEM.DIHEDRAL>
0

>  <SCORE.SYSTEM.SOLV>
0

>  <SCORE.SYSTEM.norm>
0

>  <SCORE.heavy>
26

>  <SCORE.norm>
-0.956247

>  <RMSD>
3.249

$$$$
ligand
 OpenBabel11021811473D
libRbt.so/2013.1/901 2013/11/27
 26 27  0  0  0  0  0  0  0  0999 V2000
   -7.0169  -14.0776   25.4993 C   0  0  0  0  0  0  0  0  0  0  0  0
  -10.5002  -17.7573   24.1187 C   0  0  0  0  0  0  0  0  0  0  0  0
   -9.7682  -17.0670   25.0791 C   0  0  0  0  0  0  0  0  0  0  0  0
   -8.3088  -16.6489   24.8843 C   0  0  0  0  0  0  0  0  0  0  0  0
   -7.6154  -14.4128   24.1300 C   0  0  1  0  0  0  0  0  0  0  0  0
  -13.8798  -18.0137   25.8638 C   0  0  0  0  0  0  0  0  0  0  0  0
  -12.4118  -17.6892   25.5831 C   0  0  0  0  0  0  0  0  0  0  0  0
  -10.4090  -16.7230   26.2651 C   0  0  0  0  0  0  0  0  0  0  0  0
   -8.6580  -15.7781   22.6360 C   0  0  0  0  0  0  0  0  0  0  0  0
   -7.5789  -13.5163   23.0687 C   0  0  2  0  0  0  0  0  0  0  0  0
   -6.9928  -12.1058   22.9666 C   0  0  0  0  0  0  0  0  0  0  0  0
   -5.7192  -12.0493   22.1198 C   0  0  0  0  0  0  0  0  0  0  0  0
  -11.8374  -18.0755   24.3648 N   0  0  0  0  0  0  0  0  0  0  0  0
   -8.1925  -15.5896   23.8717 N   0  0  0  0  0  0  0  0  0  0  0  0
  -11.6739  -17.0286   26.4869 N   0  0  0  0  0  0  0  0  0  0  0  0
   -9.9767  -18.0849   23.0536 O   0  0  0  0  0  0  0  0  0  0  0  0
   -3.6944  -11.3343   20.1853 O   0  5  0  0  0  0  0  0  0  0  0  0
   -6.0632  -14.7375   18.3896 O   0  0  0  0  0  0  0  0  0  0  0  0
   -5.9791  -12.3673   20.7490 O   0  0  0  0  0  0  0  0  0  0  0  0
   -4.0912  -13.8088   19.7285 O   0  0  0  0  0  0  0  0  0  0  0  0
   -4.0683  -16.2802   18.9667 O   0  5  0  0  0  0  0  0  0  0  0  0
   -5.2977  -12.0515   18.2887 O   0  0  0  0  0  0  0  0  0  0  0  0
   -5.6777  -15.4983   20.8070 O   0  0  0  0  0  0  0  0  0  0  0  0
   -8.4073  -14.2970   21.7506 S   0  0  0  0  0  0  0  0  0  0  0  0
   -4.8037  -12.3695   19.6482 P   0  0  2  0  0  0  0  0  0  0  0  0
   -4.9131  -15.1584   19.4341 P   0  0  2  0  0  0  0  0  0  0  0  0
  2 16  2  0  0  0  0
  2  3  1  0  0  0  0
  2 13  1  0  0  0  0
  3  8  2  0  0  0  0
  3  4  1  0  0  0  0
  4 14  1  0  0  0  0
  5  1  1  6  0  0  0
  5 14  1  0  0  0  0
  5 10  1  0  0  0  0
  6  7  1  0  0  0  0
  7 13  1  0  0  0  0
  7 15  2  0  0  0  0
  8 15  1  0  0  0  0
  9 14  1  0  0  0  0
  9 24  1  0  0  0  0
 10 24  1  0  0  0  0
 10 11  1  1  0  0  0
 11 12  1  0  0  0  0
 12 19  1  0  0  0  0
 17 25  1  0  0  0  0
 19 25  1  0  0  0  0
 20 26  1  0  0  0  0
 21 26  1  0  0  0  0
 22 25  2  0  0  0  0
 23 26  2  0  0  0  0
 25 20  1  6  0  0  0
 26 18  1  6  0  0  0
M  CHG  2  17  -1  21  -1
M  END
>  <CHROM.1>
69.40470991,107.82321643,65.49575337,123.52563261,179.63105080,173.12775966
-26.94159756,29.42061633,-7.48405176,-14.89350541,22.18493818,-3.09733773
-0.82478170,-2.45517377

>  <Name>
ligand

>  <RI>
0

>  <Rbt.Current_Directory>
/home/itssahil/PROJECTS/Mol_Feturizer/New_Systems/rnas/3D2X

>  <Rbt.Executable>
rbdock ($Id: //depot/dev/client3/rdock/2013.1/src/exe/rbdock.cxx#4 $)

>  <Rbt.Library>
libRbt.so (2013.1, Build901 2013/11/27)

>  <Rbt.Parameter_File>
/export/apps/rDock/src/rDock_2013.1_src/data/scripts/dock_solv.prm

>  <Rbt.Receptor>
prm/pocket_docking_2.prm

>  <SCORE>
-14.025

>  <SCORE.INTER>
-13.7122

>  <SCORE.INTER.CONST>
1

>  <SCORE.INTER.POLAR>
0

>  <SCORE.INTER.ROT>
8

>  <SCORE.INTER.SOLV>
10.5902

>  <SCORE.INTER.VDW>
-21.6049

>  <SCORE.INTER.norm>
-0.527391

>  <SCORE.INTRA>
-1.89187

>  <SCORE.INTRA.DIHEDRAL>
-0.553333

>  <SCORE.INTRA.DIHEDRAL.0>
7.88077

>  <SCORE.INTRA.POLAR>
0

>  <SCORE.INTRA.POLAR.0>
0

>  <SCORE.INTRA.REPUL>
0

>  <SCORE.INTRA.REPUL.0>
0

>  <SCORE.INTRA.SOLV>
-0.9531

>  <SCORE.INTRA.SOLV.lig_0>
-63.2542

>  <SCORE.INTRA.VDW>
-1.13865

>  <SCORE.INTRA.VDW.0>
-3.15072

>  <SCORE.INTRA.norm>
-0.0727641

>  <SCORE.RESTR>
1.57904

>  <SCORE.RESTR.CAVITY>
1.57904

>  <SCORE.RESTR.norm>
0.0607324

>  <SCORE.SYSTEM>
0

>  <SCORE.SYSTEM.CONST>
0

>  <SCORE.SYSTEM.DIHEDRAL>
0

>  <SCORE.SYSTEM.SOLV>
0

>  <SCORE.SYSTEM.norm>
0

>  <SCORE.heavy>
26

>  <SCORE.norm>
-0.539423

>  <RMSD>
3.256

$$$$
ligand
 OpenBabel11021811473D
libRbt.so/2013.1/901 2013/11/27
 26 27  0  0  0  0  0  0  0  0999 V2000
   -9.6149  -15.2116   21.3521 C   0  0  0  0  0  0  0  0  0  0  0  0
   -9.0690  -16.8169   25.0981 C   0  0  0  0  0  0  0  0  0  0  0  0
   -8.0917  -17.0240   24.1303 C   0  0  0  0  0  0  0  0  0  0  0  0
   -8.4007  -17.5194   22.7155 C   0  0  0  0  0  0  0  0  0  0  0  0
   -8.1898  -15.6992   21.0746 C   0  0  1  0  0  0  0  0  0  0  0  0
   -6.9368  -15.5264   27.9827 C   0  0  0  0  0  0  0  0  0  0  0  0
   -7.3531  -16.0710   26.6155 C   0  0  0  0  0  0  0  0  0  0  0  0
   -6.7712  -16.7426   24.4661 C   0  0  0  0  0  0  0  0  0  0  0  0
   -6.3988  -17.0656   21.4034 C   0  0  0  0  0  0  0  0  0  0  0  0
   -7.3599  -15.0694   20.1548 C   0  0  2  0  0  0  0  0  0  0  0  0
   -7.5948  -13.8466   19.2643 C   0  0  0  0  0  0  0  0  0  0  0  0
   -6.7505  -12.6383   19.6760 C   0  0  0  0  0  0  0  0  0  0  0  0
   -8.7047  -16.3349   26.3570 N   0  0  0  0  0  0  0  0  0  0  0  0
   -7.6570  -16.7466   21.7101 N   0  0  0  0  0  0  0  0  0  0  0  0
   -6.4382  -16.2866   25.6593 N   0  0  0  0  0  0  0  0  0  0  0  0
  -10.2515  -17.0528   24.8491 O   0  0  0  0  0  0  0  0  0  0  0  0
   -6.8018   -9.6952   20.6892 O   0  5  0  0  0  0  0  0  0  0  0  0
   -2.3916  -10.3942   18.3496 O   0  0  0  0  0  0  0  0  0  0  0  0
   -7.0343  -11.4925   18.8671 O   0  0  0  0  0  0  0  0  0  0  0  0
   -4.7837  -10.2791   19.2486 O   0  0  0  0  0  0  0  0  0  0  0  0
   -4.2206  -11.9047   17.3175 O   0  5  0  0  0  0  0  0  0  0  0  0
   -6.7657   -9.0245   18.1931 O   0  0  0  0  0  0  0  0  0  0  0  0
   -4.2554   -9.3693   16.9188 O   0  0  0  0  0  0  0  0  0  0  0  0
   -5.8779  -15.9840   20.1387 S   0  0  0  0  0  0  0  0  0  0  0  0
   -6.3748  -10.0571   19.1802 P   0  0  2  0  0  0  0  0  0  0  0  0
   -3.9312  -10.5845   17.9206 P   0  0  2  0  0  0  0  0  0  0  0  0
  2 16  2  0  0  0  0
  2  3  1  0  0  0  0
  2 13  1  0  0  0  0
  3  8  2  0  0  0  0
  3  4  1  0  0  0  0
  4 14  1  0  0  0  0
  5  1  1  1  0  0  0
  5 14  1  0  0  0  0
  5 10  1  0  0  0  0
  6  7  1  0  0  0  0
  7 13  1  0  0  0  0
  7 15  2  0  0  0  0
  8 15  1  0  0  0  0
  9 14  1  0  0  0  0
  9 24  1  0  0  0  0
 10 24  1  0  0  0  0
 10 11  1  6  0  0  0
 11 12  1  0  0  0  0
 12 19  1  0  0  0  0
 17 25  1  0  0  0  0
 19 25  1  0  0  0  0
 20 26  1  0  0  0  0
 21 26  1  0  0  0  0
 22 25  2  0  0  0  0
 23 26  2  0  0  0  0
 25 20  1  6  0  0  0
 26 18  1  1  0  0  0
M  CHG  2  17  -1  21  -1
M  END
>  <CHROM.1>
135.42426701,111.40994808,-177.31668340,-95.36584253,174.51138335,-176.61653904
-57.49931634,167.01880286,-6.61118871,-13.62312569,21.08737669,2.89674527
1.22833992,1.02913769

>  <Name>
ligand

>  <RI>
0

>  <Rbt.Current_Directory>
/home/itssahil/PROJECTS/Mol_Feturizer/New_Systems/rnas/3D2X

>  <Rbt.Executable>
rbdock ($Id: //depot/dev/client3/rdock/2013.1/src/exe/rbdock.cxx#4 $)

>  <Rbt.Library>
libRbt.so (2013.1, Build901 2013/11/27)

>  <Rbt.Parameter_File>
/export/apps/rDock/src/rDock_2013.1_src/data/scripts/dock_solv.prm

>  <Rbt.Receptor>
prm/pocket_docking_4.prm

>  <SCORE>
-13.551

>  <SCORE.INTER>
-11.8598

>  <SCORE.INTER.CONST>
1

>  <SCORE.INTER.POLAR>
0

>  <SCORE.INTER.ROT>
8

>  <SCORE.INTER.SOLV>
16.9428

>  <SCORE.INTER.VDW>
-22.4875

>  <SCORE.INTER.norm>
-0.456146

>  <SCORE.INTRA>
-1.69118

>  <SCORE.INTRA.DIHEDRAL>
-2.26625

>  <SCORE.INTRA.DIHEDRAL.0>
7.88077

>  <SCORE.INTRA.POLAR>
0

>  <SCORE.INTRA.POLAR.0>
0

>  <SCORE.INTRA.REPUL>
0

>  <SCORE.INTRA.REPUL.0>
0

>  <SCORE.INTRA.SOLV>
0.102178

>  <SCORE.INTRA.SOLV.lig_0>
-63.2542

>  <SCORE.INTRA.VDW>
-0.609142

>  <SCORE.INTRA.VDW.0>
-3.15072

>  <SCORE.INTRA.norm>
-0.0650453

>  <SCORE.RESTR>
0

>  <SCORE.RESTR.CAVITY>
0

>  <SCORE.RESTR.norm>
0

>  <SCORE.SYSTEM>
0

>  <SCORE.SYSTEM.CONST>
0

>  <SCORE.SYSTEM.DIHEDRAL>
0

>  <SCORE.SYSTEM.SOLV>
0

>  <SCORE.SYSTEM.norm>
0

>  <SCORE.heavy>
26

>  <SCORE.norm>
-0.521191

>  <RMSD>
3.260

$$$$
ligand
 OpenBabel11021811473D
libRbt.so/2013.1/901 2013/11/27
 26 27  0  0  0  0  0  0  0  0999 V2000
   -8.6387  -17.4925   19.9465 C   0  0  0  0  0  0  0  0  0  0  0  0
  -10.6958  -16.7417   24.0530 C   0  0  0  0  0  0  0  0  0  0  0  0
   -9.8601  -15.9593   23.2629 C   0  0  0  0  0  0  0  0  0  0  0  0
  -10.1032  -15.7094   21.7725 C   0  0  0  0  0  0  0  0  0  0  0  0
   -8.1863  -16.0663   20.2731 C   0  0  1  0  0  0  0  0  0  0  0  0
   -8.9833  -16.3952   27.4412 C   0  0  0  0  0  0  0  0  0  0  0  0
   -9.2945  -16.2529   25.9505 C   0  0  0  0  0  0  0  0  0  0  0  0
   -8.7623  -15.3585   23.8706 C   0  0  0  0  0  0  0  0  0  0  0  0
   -8.3939  -14.0413   21.2927 C   0  0  0  0  0  0  0  0  0  0  0  0
   -7.0435  -15.5076   19.7134 C   0  0  2  0  0  0  0  0  0  0  0  0
   -6.0299  -16.0809   18.7197 C   0  0  0  0  0  0  0  0  0  0  0  0
   -4.7839  -15.2054   18.5673 C   0  0  0  0  0  0  0  0  0  0  0  0
  -10.4178  -16.8951   25.4127 N   0  0  0  0  0  0  0  0  0  0  0  0
   -8.8706  -15.2722   21.1014 N   0  0  0  0  0  0  0  0  0  0  0  0
   -8.5093  -15.5101   25.1573 N   0  0  0  0  0  0  0  0  0  0  0  0
  -11.6793  -17.2951   23.5607 O   0  0  0  0  0  0  0  0  0  0  0  0
   -2.8409  -13.2453   16.9855 O   0  5  0  0  0  0  0  0  0  0  0  0
   -3.9424  -11.3079   14.7405 O   0  0  0  0  0  0  0  0  0  0  0  0
   -5.0989  -13.9275   18.0057 O   0  0  0  0  0  0  0  0  0  0  0  0
   -4.6982  -11.5122   17.1757 O   0  0  0  0  0  0  0  0  0  0  0  0
   -5.7818  -13.0142   15.3707 O   0  5  0  0  0  0  0  0  0  0  0  0
   -3.5364  -12.3548   19.3104 O   0  0  0  0  0  0  0  0  0  0  0  0
   -6.2719  -10.4956   15.4366 O   0  0  0  0  0  0  0  0  0  0  0  0
   -6.9016  -13.9132   20.3997 S   0  0  0  0  0  0  0  0  0  0  0  0
   -4.0151  -12.7373   17.9621 P   0  0  2  0  0  0  0  0  0  0  0  0
   -5.2089  -11.6808   15.6611 P   0  0  2  0  0  0  0  0  0  0  0  0
  2 16  2  0  0  0  0
  2  3  1  0  0  0  0
  2 13  1  0  0  0  0
  3  8  2  0  0  0  0
  3  4  1  0  0  0  0
  4 14  1  0  0  0  0
  5  1  1  6  0  0  0
  5 14  1  0  0  0  0
  5 10  1  0  0  0  0
  6  7  1  0  0  0  0
  7 13  1  0  0  0  0
  7 15  2  0  0  0  0
  8 15  1  0  0  0  0
  9 14  1  0  0  0  0
  9 24  1  0  0  0  0
 10 24  1  0  0  0  0
 10 11  1  1  0  0  0
 11 12  1  0  0  0  0
 12 19  1  0  0  0  0
 17 25  1  0  0  0  0
 19 25  1  0  0  0  0
 20 26  1  0  0  0  0
 21 26  1  0  0  0  0
 22 25  2  0  0  0  0
 23 26  2  0  0  0  0
 25 20  1  6  0  0  0
 26 18  1  6  0  0  0
M  CHG  2  17  -1  21  -1
M  END
>  <CHROM.1>
-160.03330892,-169.61945129,-64.38387858,107.15852280,169.96054781,52.54500119
64.91960548,-88.99288813,-6.90958391,-14.30004067,19.96961067,2.17115480
0.49047572,1.74331235

>  <Name>
ligand

>  <RI>
0

>  <Rbt.Current_Directory>
/home/itssahil/PROJECTS/Mol_Feturizer/New_Systems/rnas/3D2X

>  <Rbt.Executable>
rbdock ($Id: //depot/dev/client3/rdock/2013.1/src/exe/rbdock.cxx#4 $)

>  <Rbt.Library>
libRbt.so (2013.1, Build901 2013/11/27)

>  <Rbt.Parameter_File>
/export/apps/rDock/src/rDock_2013.1_src/data/scripts/dock_solv.prm

>  <Rbt.Receptor>
prm/pocket_docking_5.prm

>  <SCORE>
-19.0409

>  <SCORE.INTER>
-17.7238

>  <SCORE.INTER.CONST>
1

>  <SCORE.INTER.POLAR>
0

>  <SCORE.INTER.ROT>
8

>  <SCORE.INTER.SOLV>
16.193

>  <SCORE.INTER.VDW>
-26.1469

>  <SCORE.INTER.norm>
-0.681685

>  <SCORE.INTRA>
-1.31706

>  <SCORE.INTRA.DIHEDRAL>
-1.80185

>  <SCORE.INTRA.DIHEDRAL.0>
7.88077

>  <SCORE.INTRA.POLAR>
0

>  <SCORE.INTRA.POLAR.0>
0

>  <SCORE.INTRA.REPUL>
0

>  <SCORE.INTRA.REPUL.0>
0

>  <SCORE.INTRA.SOLV>
-1.0812

>  <SCORE.INTRA.SOLV.lig_0>
-63.2542

>  <SCORE.INTRA.VDW>
0.124459

>  <SCORE.INTRA.VDW.0>
-3.15072

>  <SCORE.INTRA.norm>
-0.0506562

>  <SCORE.RESTR>
0

>  <SCORE.RESTR.CAVITY>
0

>  <SCORE.RESTR.norm>
0

>  <SCORE.SYSTEM>
0

>  <SCORE.SYSTEM.CONST>
0

>  <SCORE.SYSTEM.DIHEDRAL>
0

>  <SCORE.SYSTEM.SOLV>
0

>  <SCORE.SYSTEM.norm>
0

>  <SCORE.heavy>
26

>  <SCORE.norm>
-0.732341

>  <RMSD>
3.288

$$$$
ligand
 OpenBabel11021811473D
libRbt.so/2013.1/901 2013/11/27
 26 27  0  0  0  0  0  0  0  0999 V2000
   -5.5746  -14.5413   26.0807 C   0  0  0  0  0  0  0  0  0  0  0  0
  -10.5264  -16.6066   26.4378 C   0  0  0  0  0  0  0  0  0  0  0  0
   -9.4678  -16.6370   25.5360 C   0  0  0  0  0  0  0  0  0  0  0  0
   -8.0842  -16.0594   25.8435 C   0  0  0  0  0  0  0  0  0  0  0  0
   -6.5377  -14.3963   24.8987 C   0  0  1  0  0  0  0  0  0  0  0  0
  -13.2067  -18.4326   24.4342 C   0  0  0  0  0  0  0  0  0  0  0  0
  -11.8802  -17.7811   24.8282 C   0  0  0  0  0  0  0  0  0  0  0  0
   -9.6787  -17.2455   24.3028 C   0  0  0  0  0  0  0  0  0  0  0  0
   -8.4186  -14.9082   23.7227 C   0  0  0  0  0  0  0  0  0  0  0  0
   -6.2822  -13.5335   23.8396 C   0  0  2  0  0  0  0  0  0  0  0  0
   -5.1022  -12.5958   23.5716 C   0  0  0  0  0  0  0  0  0  0  0  0
   -3.8439  -13.3369   23.1137 C   0  0  0  0  0  0  0  0  0  0  0  0
  -11.7494  -17.1829   26.0885 N   0  0  0  0  0  0  0  0  0  0  0  0
   -7.6695  -15.1004   24.8093 N   0  0  0  0  0  0  0  0  0  0  0  0
  -10.8391  -17.7877   23.9834 N   0  0  0  0  0  0  0  0  0  0  0  0
  -10.3891  -16.0782   27.5413 O   0  0  0  0  0  0  0  0  0  0  0  0
   -1.3789  -13.2108   21.0878 O   0  5  0  0  0  0  0  0  0  0  0  0
   -1.6739  -10.0056   23.9614 O   0  0  0  0  0  0  0  0  0  0  0  0
   -2.6819  -12.5051   23.1875 O   0  0  0  0  0  0  0  0  0  0  0  0
   -0.2173  -11.7968   22.8600 O   0  0  0  0  0  0  0  0  0  0  0  0
    0.4007   -9.3005   22.5862 O   0  5  0  0  0  0  0  0  0  0  0  0
   -0.7993  -14.2470   23.3839 O   0  0  0  0  0  0  0  0  0  0  0  0
   -1.6662  -10.2682   21.4115 O   0  0  0  0  0  0  0  0  0  0  0  0
   -7.6514  -13.6645   22.7712 S   0  0  0  0  0  0  0  0  0  0  0  0
   -1.2435  -13.0218   22.6804 P   0  0  2  0  0  0  0  0  0  0  0  0
   -0.7077  -10.2743   22.7024 P   0  0  2  0  0  0  0  0  0  0  0  0
  2 16  2  0  0  0  0
  2  3  1  0  0  0  0
  2 13  1  0  0  0  0
  3  8  2  0  0  0  0
  3  4  1  0  0  0  0
  4 14  1  0  0  0  0
  5  1  1  6  0  0  0
  5 14  1  0  0  0  0
  5 10  1  0  0  0  0
  6  7  1  0  0  0  0
  7 13  1  0  0  0  0
  7 15  2  0  0  0  0
  8 15  1  0  0  0  0
  9 14  1  0  0  0  0
  9 24  1  0  0  0  0
 10 24  1  0  0  0  0
 10 11  1  1  0  0  0
 11 12  1  0  0  0  0
 12 19  1  0  0  0  0
 17 25  1  0  0  0  0
 19 25  1  0  0  0  0
 20 26  1  0  0  0  0
 21 26  1  0  0  0  0
 22 25  2  0  0  0  0
 23 26  2  0  0  0  0
 25 20  1  1  0  0  0
 26 18  1  1  0  0  0
M  CHG  2  17  -1  21  -1
M  END
>  <CHROM.1>
-126.04920803,75.28478423,-165.61889762,175.52777145,-176.40401440,80.11167287
66.20187733,68.32870701,-5.47167983,-13.89365065,23.84839631,-2.96332727
-0.53939291,-1.67275152

>  <Name>
ligand

>  <RI>
0

>  <Rbt.Current_Directory>
/home/itssahil/PROJECTS/Mol_Feturizer/New_Systems/rnas/3D2X

>  <Rbt.Executable>
rbdock ($Id: //depot/dev/client3/rdock/2013.1/src/exe/rbdock.cxx#4 $)

>  <Rbt.Library>
libRbt.so (2013.1, Build901 2013/11/27)

>  <Rbt.Parameter_File>
/export/apps/rDock/src/rDock_2013.1_src/data/scripts/dock_solv.prm

>  <Rbt.Receptor>
prm/pocket_docking_5.prm

>  <SCORE>
-18.4659

>  <SCORE.INTER>
-18.2758

>  <SCORE.INTER.CONST>
1

>  <SCORE.INTER.POLAR>
0

>  <SCORE.INTER.ROT>
8

>  <SCORE.INTER.SOLV>
12.7349

>  <SCORE.INTER.VDW>
-25.3622

>  <SCORE.INTER.norm>
-0.702916

>  <SCORE.INTRA>
-0.190114

>  <SCORE.INTRA.DIHEDRAL>
-1.25626

>  <SCORE.INTRA.DIHEDRAL.0>
7.88077

>  <SCORE.INTRA.POLAR>
0

>  <SCORE.INTRA.POLAR.0>
0

>  <SCORE.INTRA.REPUL>
0

>  <SCORE.INTRA.REPUL.0>
0

>  <SCORE.INTRA.SOLV>
-1.39794

>  <SCORE.INTRA.SOLV.lig_0>
-63.2542

>  <SCORE.INTRA.VDW>
1.13698

>  <SCORE.INTRA.VDW.0>
-3.15072

>  <SCORE.INTRA.norm>
-0.00731208

>  <SCORE.RESTR>
0

>  <SCORE.RESTR.CAVITY>
0

>  <SCORE.RESTR.norm>
0

>  <SCORE.SYSTEM>
0

>  <SCORE.SYSTEM.CONST>
0

>  <SCORE.SYSTEM.DIHEDRAL>
0

>  <SCORE.SYSTEM.SOLV>
0

>  <SCORE.SYSTEM.norm>
0

>  <SCORE.heavy>
26

>  <SCORE.norm>
-0.710228

>  <RMSD>
3.290

$$$$
ligand
 OpenBabel11021811473D
libRbt.so/2013.1/901 2013/11/27
 26 27  0  0  0  0  0  0  0  0999 V2000
   -6.4320  -17.2496   23.3278 C   0  0  0  0  0  0  0  0  0  0  0  0
  -10.2329  -17.2721   24.2690 C   0  0  0  0  0  0  0  0  0  0  0  0
   -9.6284  -16.7983   25.4286 C   0  0  0  0  0  0  0  0  0  0  0  0
   -8.1923  -16.2709   25.4732 C   0  0  0  0  0  0  0  0  0  0  0  0
   -7.0936  -15.8684   23.3096 C   0  0  1  0  0  0  0  0  0  0  0  0
  -13.7092  -18.1170   25.5858 C   0  0  0  0  0  0  0  0  0  0  0  0
  -12.2512  -17.6591   25.5260 C   0  0  0  0  0  0  0  0  0  0  0  0
  -10.3815  -16.7851   26.5983 C   0  0  0  0  0  0  0  0  0  0  0  0
   -8.4333  -14.2346   24.1578 C   0  0  0  0  0  0  0  0  0  0  0  0
   -6.9124  -14.9766   22.2593 C   0  0  2  0  0  0  0  0  0  0  0  0
   -6.1041  -15.1015   20.9653 C   0  0  0  0  0  0  0  0  0  0  0  0
   -6.9566  -15.5311   19.7690 C   0  0  0  0  0  0  0  0  0  0  0  0
  -11.5587  -17.7088   24.3089 N   0  0  0  0  0  0  0  0  0  0  0  0
   -7.8942  -15.4471   24.2927 N   0  0  0  0  0  0  0  0  0  0  0  0
  -11.6344  -17.1999   26.6244 N   0  0  0  0  0  0  0  0  0  0  0  0
   -9.6070  -17.3047   23.2093 O   0  0  0  0  0  0  0  0  0  0  0  0
   -5.4413  -17.9131   18.5485 O   0  5  0  0  0  0  0  0  0  0  0  0
   -5.4941  -13.9834   16.2473 O   0  0  0  0  0  0  0  0  0  0  0  0
   -6.2218  -15.4645   18.5429 O   0  0  0  0  0  0  0  0  0  0  0  0
   -4.6476  -16.3553   16.6958 O   0  0  0  0  0  0  0  0  0  0  0  0
   -2.9499  -14.4275   16.3960 O   0  5  0  0  0  0  0  0  0  0  0  0
   -3.7698  -16.0172   19.0899 O   0  0  0  0  0  0  0  0  0  0  0  0
   -4.3031  -15.2957   14.3951 O   0  0  0  0  0  0  0  0  0  0  0  0
   -7.8020  -13.5418   22.6873 S   0  0  0  0  0  0  0  0  0  0  0  0
   -4.9437  -16.4070   18.2755 P   0  0  2  0  0  0  0  0  0  0  0  0
   -4.2571  -14.9753   15.9701 P   0  0  2  0  0  0  0  0  0  0  0  0
  2 16  2  0  0  0  0
  2  3  1  0  0  0  0
  2 13  1  0  0  0  0
  3  8  2  0  0  0  0
  3  4  1  0  0  0  0
  4 14  1  0  0  0  0
  5  1  1  6  0  0  0
  5 14  1  0  0  0  0
  5 10  1  0  0  0  0
  6  7  1  0  0  0  0
  7 13  1  0  0  0  0
  7 15  2  0  0  0  0
  8 15  1  0  0  0  0
  9 14  1  0  0  0  0
  9 24  1  0  0  0  0
 10 24  1  0  0  0  0
 10 11  1  1  0  0  0
 11 12  1  0  0  0  0
 12 19  1  0  0  0  0
 17 25  1  0  0  0  0
 19 25  1  0  0  0  0
 20 26  1  0  0  0  0
 21 26  1  0  0  0  0
 22 25  2  0  0  0  0
 23 26  2  0  0  0  0
 25 20  1  6  0  0  0
 26 18  1  1  0  0  0
M  CHG  2  17  -1  21  -1
M  END
>  <CHROM.1>
41.00645419,96.83235997,172.07430390,-107.68470494,64.43163112,174.09150811
53.22732872,-58.84011494,-7.21074262,-15.92770662,21.07364186,-2.46008230
-0.73027005,-2.08709850

>  <Name>
ligand

>  <RI>
0

>  <Rbt.Current_Directory>
/home/itssahil/PROJECTS/Mol_Feturizer/New_Systems/rnas/3D2X

>  <Rbt.Executable>
rbdock ($Id: //depot/dev/client3/rdock/2013.1/src/exe/rbdock.cxx#4 $)

>  <Rbt.Library>
libRbt.so (2013.1, Build901 2013/11/27)

>  <Rbt.Parameter_File>
/export/apps/rDock/src/rDock_2013.1_src/data/scripts/dock_solv.prm

>  <Rbt.Receptor>
prm/pocket_docking_5.prm

>  <SCORE>
-23.4514

>  <SCORE.INTER>
-21.2006

>  <SCORE.INTER.CONST>
1

>  <SCORE.INTER.POLAR>
0

>  <SCORE.INTER.ROT>
8

>  <SCORE.INTER.SOLV>
16.6509

>  <SCORE.INTER.VDW>
-28.6174

>  <SCORE.INTER.norm>
-0.815408

>  <SCORE.INTRA>
-2.25563

>  <SCORE.INTRA.DIHEDRAL>
-2.18228

>  <SCORE.INTRA.DIHEDRAL.0>
7.88077

>  <SCORE.INTRA.POLAR>
0

>  <SCORE.INTRA.POLAR.0>
0

>  <SCORE.INTRA.REPUL>
0

>  <SCORE.INTRA.REPUL.0>
0

>  <SCORE.INTRA.SOLV>
-0.910608

>  <SCORE.INTRA.SOLV.lig_0>
-63.2542

>  <SCORE.INTRA.VDW>
-0.709185

>  <SCORE.INTRA.VDW.0>
-3.15072

>  <SCORE.INTRA.norm>
-0.0867549

>  <SCORE.RESTR>
0.00485994

>  <SCORE.RESTR.CAVITY>
0.00485994

>  <SCORE.RESTR.norm>
0.000186921

>  <SCORE.SYSTEM>
0

>  <SCORE.SYSTEM.CONST>
0

>  <SCORE.SYSTEM.DIHEDRAL>
0

>  <SCORE.SYSTEM.SOLV>
0

>  <SCORE.SYSTEM.norm>
0

>  <SCORE.heavy>
26

>  <SCORE.norm>
-0.901976

>  <RMSD>
3.303

$$$$
ligand
 OpenBabel11021811473D
libRbt.so/2013.1/901 2013/11/27
 26 27  0  0  0  0  0  0  0  0999 V2000
   -5.4211  -14.0196   25.6335 C   0  0  0  0  0  0  0  0  0  0  0  0
   -9.6883  -16.4335   26.6431 C   0  0  0  0  0  0  0  0  0  0  0  0
   -9.0581  -16.4149   25.4032 C   0  0  0  0  0  0  0  0  0  0  0  0
   -7.6248  -15.9198   25.1956 C   0  0  0  0  0  0  0  0  0  0  0  0
   -6.6226  -13.7219   24.7316 C   0  0  1  0  0  0  0  0  0  0  0  0
  -13.0511  -17.9599   25.6973 C   0  0  0  0  0  0  0  0  0  0  0  0
  -11.6323  -17.3976   25.5969 C   0  0  0  0  0  0  0  0  0  0  0  0
   -9.7653  -16.8934   24.3048 C   0  0  0  0  0  0  0  0  0  0  0  0
   -8.5930  -14.2429   23.7171 C   0  0  0  0  0  0  0  0  0  0  0  0
   -6.7491  -12.5219   24.0423 C   0  0  2  0  0  0  0  0  0  0  0  0
   -5.8317  -11.2978   23.9822 C   0  0  0  0  0  0  0  0  0  0  0  0
   -5.6220  -10.7794   22.5576 C   0  0  0  0  0  0  0  0  0  0  0  0
  -10.9893  -16.9291   26.7504 N   0  0  0  0  0  0  0  0  0  0  0  0
   -7.6093  -14.6025   24.5430 N   0  0  0  0  0  0  0  0  0  0  0  0
  -10.9949  -17.3601   24.4179 N   0  0  0  0  0  0  0  0  0  0  0  0
   -9.1040  -16.0195   27.6446 O   0  0  0  0  0  0  0  0  0  0  0  0
   -5.8526   -8.3382   20.6625 O   0  5  0  0  0  0  0  0  0  0  0  0
   -7.0363   -9.3064   17.4568 O   0  0  0  0  0  0  0  0  0  0  0  0
   -6.8437  -10.3105   21.9785 O   0  0  0  0  0  0  0  0  0  0  0  0
   -6.1690  -10.5815   19.4977 O   0  0  0  0  0  0  0  0  0  0  0  0
   -4.5083   -9.2765   18.0052 O   0  5  0  0  0  0  0  0  0  0  0  0
   -8.2355   -9.1865   20.1301 O   0  0  0  0  0  0  0  0  0  0  0  0
   -5.6236  -11.4228   17.1462 O   0  0  0  0  0  0  0  0  0  0  0  0
   -8.2698  -12.6099   23.1980 S   0  0  0  0  0  0  0  0  0  0  0  0
   -6.8690   -9.5804   20.5434 P   0  0  2  0  0  0  0  0  0  0  0  0
   -5.7482  -10.0842   18.0283 P   0  0  2  0  0  0  0  0  0  0  0  0
  2 16  2  0  0  0  0
  2  3  1  0  0  0  0
  2 13  1  0  0  0  0
  3  8  2  0  0  0  0
  3  4  1  0  0  0  0
  4 14  1  0  0  0  0
  5  1  1  6  0  0  0
  5 14  1  0  0  0  0
  5 10  1  0  0  0  0
  6  7  1  0  0  0  0
  7 13  1  0  0  0  0
  7 15  2  0  0  0  0
  8 15  1  0  0  0  0
  9 14  1  0  0  0  0
  9 24  1  0  0  0  0
 10 24  1  0  0  0  0
 10 11  1  1  0  0  0
 11 12  1  0  0  0  0
 12 19  1  0  0  0  0
 17 25  1  0  0  0  0
 19 25  1  0  0  0  0
 20 26  1  0  0  0  0
 21 26  1  0  0  0  0
 22 25  2  0  0  0  0
 23 26  2  0  0  0  0
 25 20  1  6  0  0  0
 26 18  1  6  0  0  0
M  CHG  2  17  -1  21  -1
M  END
>  <CHROM.1>
-105.98627113,134.37505597,63.76251897,151.59667519,173.83381996,-55.66750165
-55.92017500,-47.80856340,-7.65186233,-12.74400443,22.53967271,-2.08771815
-0.69169031,-1.12819667

>  <Name>
ligand

>  <RI>
0

>  <Rbt.Current_Directory>
/home/itssahil/PROJECTS/Mol_Feturizer/New_Systems/rnas/3D2X

>  <Rbt.Executable>
rbdock ($Id: //depot/dev/client3/rdock/2013.1/src/exe/rbdock.cxx#4 $)

>  <Rbt.Library>
libRbt.so (2013.1, Build901 2013/11/27)

>  <Rbt.Parameter_File>
/export/apps/rDock/src/rDock_2013.1_src/data/scripts/dock_solv.prm

>  <Rbt.Receptor>
prm/pocket_docking_6.prm

>  <SCORE>
-23.1377

>  <SCORE.INTER>
-21.5406

>  <SCORE.INTER.CONST>
1

>  <SCORE.INTER.POLAR>
0

>  <SCORE.INTER.ROT>
8

>  <SCORE.INTER.SOLV>
18.3256

>  <SCORE.INTER.VDW>
-29.4022

>  <SCORE.INTER.norm>
-0.828483

>  <SCORE.INTRA>
-1.59715

>  <SCORE.INTRA.DIHEDRAL>
-1.99422

>  <SCORE.INTRA.DIHEDRAL.0>
7.88077

>  <SCORE.INTRA.POLAR>
0

>  <SCORE.INTRA.POLAR.0>
0

>  <SCORE.INTRA.REPUL>
0

>  <SCORE.INTRA.REPUL.0>
0

>  <SCORE.INTRA.SOLV>
-1.64039

>  <SCORE.INTRA.SOLV.lig_0>
-63.2542

>  <SCORE.INTRA.VDW>
0.220147

>  <SCORE.INTRA.VDW.0>
-3.15072

>  <SCORE.INTRA.norm>
-0.061429

>  <SCORE.RESTR>
0

>  <SCORE.RESTR.CAVITY>
0

>  <SCORE.RESTR.norm>
0

>  <SCORE.SYSTEM>
0

>  <SCORE.SYSTEM.CONST>
0

>  <SCORE.SYSTEM.DIHEDRAL>
0

>  <SCORE.SYSTEM.SOLV>
0

>  <SCORE.SYSTEM.norm>
0

>  <SCORE.heavy>
26

>  <SCORE.norm>
-0.889912

>  <RMSD>
3.309

$$$$
ligand
 OpenBabel11021811473D
libRbt.so/2013.1/901 2013/11/27
 26 27  0  0  0  0  0  0  0  0999 V2000
   -8.5589  -14.0961   22.7787 C   0  0  0  0  0  0  0  0  0  0  0  0
   -9.0234  -17.1211   23.4852 C   0  0  0  0  0  0  0  0  0  0  0  0
   -8.0111  -16.5683   24.2626 C   0  0  0  0  0  0  0  0  0  0  0  0
   -6.6540  -16.1423   23.6972 C   0  0  0  0  0  0  0  0  0  0  0  0
   -7.2578  -13.7647   23.5156 C   0  0  1  0  0  0  0  0  0  0  0  0
  -11.7545  -17.5698   26.1068 C   0  0  0  0  0  0  0  0  0  0  0  0
  -10.4187  -17.2255   25.4462 C   0  0  0  0  0  0  0  0  0  0  0  0
   -8.2608  -16.3750   25.6175 C   0  0  0  0  0  0  0  0  0  0  0  0
   -5.3198  -14.3055   24.5810 C   0  0  0  0  0  0  0  0  0  0  0  0
   -6.8897  -12.4580   23.8128 C   0  0  2  0  0  0  0  0  0  0  0  0
   -7.5953  -11.1286   23.5330 C   0  0  0  0  0  0  0  0  0  0  0  0
   -6.9118  -10.3105   22.4348 C   0  0  0  0  0  0  0  0  0  0  0  0
  -10.2440  -17.4559   24.0751 N   0  0  0  0  0  0  0  0  0  0  0  0
   -6.4102  -14.7112   23.9286 N   0  0  0  0  0  0  0  0  0  0  0  0
   -9.4188  -16.6947   26.1646 N   0  0  0  0  0  0  0  0  0  0  0  0
   -8.8497  -17.3127   22.2815 O   0  0  0  0  0  0  0  0  0  0  0  0
   -4.9240   -9.8879   19.9986 O   0  5  0  0  0  0  0  0  0  0  0  0
   -6.3319   -9.6475   16.7816 O   0  0  0  0  0  0  0  0  0  0  0  0
   -6.9187  -10.9975   21.1796 O   0  0  0  0  0  0  0  0  0  0  0  0
   -6.4955  -11.3785   18.6578 O   0  0  0  0  0  0  0  0  0  0  0  0
   -4.3353  -11.2262   17.2439 O   0  5  0  0  0  0  0  0  0  0  0  0
   -7.3330   -9.0959   19.4974 O   0  0  0  0  0  0  0  0  0  0  0  0
   -6.5026  -12.1424   16.2184 O   0  0  0  0  0  0  0  0  0  0  0  0
   -5.3397  -12.5619   24.6002 S   0  0  0  0  0  0  0  0  0  0  0  0
   -6.4785  -10.2629   19.8158 P   0  0  2  0  0  0  0  0  0  0  0  0
   -5.8101  -11.1025   17.2304 P   0  0  2  0  0  0  0  0  0  0  0  0
  2 16  2  0  0  0  0
  2  3  1  0  0  0  0
  2 13  1  0  0  0  0
  3  8  2  0  0  0  0
  3  4  1  0  0  0  0
  4 14  1  0  0  0  0
  5  1  1  1  0  0  0
  5 14  1  0  0  0  0
  5 10  1  0  0  0  0
  6  7  1  0  0  0  0
  7 13  1  0  0  0  0
  7 15  2  0  0  0  0
  8 15  1  0  0  0  0
  9 14  1  0  0  0  0
  9 24  1  0  0  0  0
 10 24  1  0  0  0  0
 10 11  1  6  0  0  0
 11 12  1  0  0  0  0
 12 19  1  0  0  0  0
 17 25  1  0  0  0  0
 19 25  1  0  0  0  0
 20 26  1  0  0  0  0
 21 26  1  0  0  0  0
 22 25  2  0  0  0  0
 23 26  2  0  0  0  0
 25 20  1  6  0  0  0
 26 18  1  6  0  0  0
M  CHG  2  17  -1  21  -1
M  END
>  <CHROM.1>
120.69102526,-107.75767556,62.22016145,-55.69218245,170.01144290,-54.44731711
64.00317350,-47.37366070,-7.16011983,-13.12097518,21.81398879,2.21562665
1.00908938,1.73739577

>  <Name>
ligand

>  <RI>
0

>  <Rbt.Current_Directory>
/home/itssahil/PROJECTS/Mol_Feturizer/New_Systems/rnas/3D2X

>  <Rbt.Executable>
rbdock ($Id: //depot/dev/client3/rdock/2013.1/src/exe/rbdock.cxx#4 $)

>  <Rbt.Library>
libRbt.so (2013.1, Build901 2013/11/27)

>  <Rbt.Parameter_File>
/export/apps/rDock/src/rDock_2013.1_src/data/scripts/dock_solv.prm

>  <Rbt.Receptor>
prm/pocket_docking_4.prm

>  <SCORE>
-16.1488

>  <SCORE.INTER>
-14.952

>  <SCORE.INTER.CONST>
1

>  <SCORE.INTER.POLAR>
0

>  <SCORE.INTER.ROT>
8

>  <SCORE.INTER.SOLV>
11.9716

>  <SCORE.INTER.VDW>
-22.8919

>  <SCORE.INTER.norm>
-0.575076

>  <SCORE.INTRA>
-1.19922

>  <SCORE.INTRA.DIHEDRAL>
-1.66054

>  <SCORE.INTRA.DIHEDRAL.0>
7.88077

>  <SCORE.INTRA.POLAR>
0

>  <SCORE.INTRA.POLAR.0>
0

>  <SCORE.INTRA.REPUL>
0

>  <SCORE.INTRA.REPUL.0>
0

>  <SCORE.INTRA.SOLV>
-1.31274

>  <SCORE.INTRA.SOLV.lig_0>
-63.2542

>  <SCORE.INTRA.VDW>
0.287422

>  <SCORE.INTRA.VDW.0>
-3.15072

>  <SCORE.INTRA.norm>
-0.0461237

>  <SCORE.RESTR>
0.00236687

>  <SCORE.RESTR.CAVITY>
0.00236687

>  <SCORE.RESTR.norm>
9.10335e-05

>  <SCORE.SYSTEM>
0

>  <SCORE.SYSTEM.CONST>
0

>  <SCORE.SYSTEM.DIHEDRAL>
0

>  <SCORE.SYSTEM.SOLV>
0

>  <SCORE.SYSTEM.norm>
0

>  <SCORE.heavy>
26

>  <SCORE.norm>
-0.621109

>  <RMSD>
3.317

$$$$
ligand
 OpenBabel11021811473D
libRbt.so/2013.1/901 2013/11/27
 26 27  0  0  0  0  0  0  0  0999 V2000
   -8.4646  -14.3640   22.8566 C   0  0  0  0  0  0  0  0  0  0  0  0
   -9.7895  -16.9429   26.4022 C   0  0  0  0  0  0  0  0  0  0  0  0
   -9.2643  -16.8082   25.1214 C   0  0  0  0  0  0  0  0  0  0  0  0
   -7.8069  -16.4307   24.8454 C   0  0  0  0  0  0  0  0  0  0  0  0
   -7.8545  -14.0507   24.2260 C   0  0  1  0  0  0  0  0  0  0  0  0
  -13.3657  -17.9821   25.5876 C   0  0  0  0  0  0  0  0  0  0  0  0
  -11.9066  -17.5525   25.4277 C   0  0  0  0  0  0  0  0  0  0  0  0
  -10.1069  -17.0528   24.0417 C   0  0  0  0  0  0  0  0  0  0  0  0
   -7.0622  -14.6121   26.2852 C   0  0  0  0  0  0  0  0  0  0  0  0
   -7.5763  -12.7506   24.6305 C   0  0  2  0  0  0  0  0  0  0  0  0
   -7.7815  -11.4121   23.9164 C   0  0  0  0  0  0  0  0  0  0  0  0
   -7.1173  -11.3637   22.5384 C   0  0  0  0  0  0  0  0  0  0  0  0
  -11.1241  -17.3193   26.5665 N   0  0  0  0  0  0  0  0  0  0  0  0
   -7.5691  -15.0055   25.1159 N   0  0  0  0  0  0  0  0  0  0  0  0
  -11.3671  -17.4087   24.2087 N   0  0  0  0  0  0  0  0  0  0  0  0
   -9.0836  -16.7358   27.3895 O   0  0  0  0  0  0  0  0  0  0  0  0
   -6.1382   -8.1423   20.5764 O   0  5  0  0  0  0  0  0  0  0  0  0
   -5.8764  -12.8337   20.3101 O   0  0  0  0  0  0  0  0  0  0  0  0
   -7.1398  -10.0443   21.9848 O   0  0  0  0  0  0  0  0  0  0  0  0
   -5.0250  -10.4335   20.5497 O   0  0  0  0  0  0  0  0  0  0  0  0
   -4.8325  -11.6363   18.2683 O   0  5  0  0  0  0  0  0  0  0  0  0
   -7.3161  -10.1316   19.4200 O   0  0  0  0  0  0  0  0  0  0  0  0
   -3.3600  -12.3493   20.2461 O   0  0  0  0  0  0  0  0  0  0  0  0
   -6.8598  -12.8817   26.2125 S   0  0  0  0  0  0  0  0  0  0  0  0
   -6.4652   -9.7182   20.5594 P   0  0  2  0  0  0  0  0  0  0  0  0
   -4.7832  -11.7998   19.7385 P   0  0  2  0  0  0  0  0  0  0  0  0
  2 16  2  0  0  0  0
  2  3  1  0  0  0  0
  2 13  1  0  0  0  0
  3  8  2  0  0  0  0
  3  4  1  0  0  0  0
  4 14  1  0  0  0  0
  5  1  1  1  0  0  0
  5 14  1  0  0  0  0
  5 10  1  0  0  0  0
  6  7  1  0  0  0  0
  7 13  1  0  0  0  0
  7 15  2  0  0  0  0
  8 15  1  0  0  0  0
  9 14  1  0  0  0  0
  9 24  1  0  0  0  0
 10 24  1  0  0  0  0
 10 11  1  6  0  0  0
 11 12  1  0  0  0  0
 12 19  1  0  0  0  0
 17 25  1  0  0  0  0
 19 25  1  0  0  0  0
 20 26  1  0  0  0  0
 21 26  1  0  0  0  0
 22 25  2  0  0  0  0
 23 26  2  0  0  0  0
 25 20  1  6  0  0  0
 26 18  1  1  0  0  0
M  CHG  2  17  -1  21  -1
M  END
>  <CHROM.1>
-74.19946289,-54.82240736,-170.76016809,-82.71643242,178.19722078,-144.68934928
-156.55136465,-56.06350888,-7.56648288,-13.34356644,23.07046690,2.49455857
0.91161974,1.59908589

>  <Name>
ligand

>  <RI>
0

>  <Rbt.Current_Directory>
/home/itssahil/PROJECTS/Mol_Feturizer/New_Systems/rnas/3D2X

>  <Rbt.Executable>
rbdock ($Id: //depot/dev/client3/rdock/2013.1/src/exe/rbdock.cxx#4 $)

>  <Rbt.Library>
libRbt.so (2013.1, Build901 2013/11/27)

>  <Rbt.Parameter_File>
/export/apps/rDock/src/rDock_2013.1_src/data/scripts/dock_solv.prm

>  <Rbt.Receptor>
prm/pocket_docking_4.prm

>  <SCORE>
-20.6785

>  <SCORE.INTER>
-18.8195

>  <SCORE.INTER.CONST>
1

>  <SCORE.INTER.POLAR>
0

>  <SCORE.INTER.ROT>
8

>  <SCORE.INTER.SOLV>
13.2042

>  <SCORE.INTER.VDW>
-25.881

>  <SCORE.INTER.norm>
-0.723826

>  <SCORE.INTRA>
-1.85897

>  <SCORE.INTRA.DIHEDRAL>
-0.505291

>  <SCORE.INTRA.DIHEDRAL.0>
7.88077

>  <SCORE.INTRA.POLAR>
0

>  <SCORE.INTRA.POLAR.0>
0

>  <SCORE.INTRA.REPUL>
0

>  <SCORE.INTRA.REPUL.0>
0

>  <SCORE.INTRA.SOLV>
-2.15982

>  <SCORE.INTRA.SOLV.lig_0>
-63.2542

>  <SCORE.INTRA.VDW>
-0.526418

>  <SCORE.INTRA.VDW.0>
-3.15072

>  <SCORE.INTRA.norm>
-0.0714989

>  <SCORE.RESTR>
0

>  <SCORE.RESTR.CAVITY>
0

>  <SCORE.RESTR.norm>
0

>  <SCORE.SYSTEM>
0

>  <SCORE.SYSTEM.CONST>
0

>  <SCORE.SYSTEM.DIHEDRAL>
0

>  <SCORE.SYSTEM.SOLV>
0

>  <SCORE.SYSTEM.norm>
0

>  <SCORE.heavy>
26

>  <SCORE.norm>
-0.795325

>  <RMSD>
3.324

$$$$
ligand
 OpenBabel11021811473D
libRbt.so/2013.1/901 2013/11/27
 26 27  0  0  0  0  0  0  0  0999 V2000
   -8.4638  -14.0195   23.3653 C   0  0  0  0  0  0  0  0  0  0  0  0
  -10.0780  -17.3775   24.0978 C   0  0  0  0  0  0  0  0  0  0  0  0
   -9.2737  -16.8600   25.1078 C   0  0  0  0  0  0  0  0  0  0  0  0
   -7.8150  -16.4489   24.8938 C   0  0  0  0  0  0  0  0  0  0  0  0
   -7.7912  -15.2487   22.7469 C   0  0  1  0  0  0  0  0  0  0  0  0
  -13.3633  -17.8262   25.9787 C   0  0  0  0  0  0  0  0  0  0  0  0
  -11.9036  -17.4944   25.6652 C   0  0  0  0  0  0  0  0  0  0  0  0
   -9.8379  -16.6893   26.3680 C   0  0  0  0  0  0  0  0  0  0  0  0
   -6.8936  -17.3396   22.8220 C   0  0  0  0  0  0  0  0  0  0  0  0
   -7.4281  -15.2957   21.4063 C   0  0  2  0  0  0  0  0  0  0  0  0
   -7.5685  -14.2555   20.2918 C   0  0  0  0  0  0  0  0  0  0  0  0
   -6.3591  -13.3231   20.1910 C   0  0  0  0  0  0  0  0  0  0  0  0
  -11.4088  -17.7005   24.3705 N   0  0  0  0  0  0  0  0  0  0  0  0
   -7.5008  -16.3392   23.4619 N   0  0  0  0  0  0  0  0  0  0  0  0
  -11.0976  -16.9976   26.6144 N   0  0  0  0  0  0  0  0  0  0  0  0
   -9.6238  -17.5481   22.9663 O   0  0  0  0  0  0  0  0  0  0  0  0
   -5.3840  -10.5190   22.7567 O   0  5  0  0  0  0  0  0  0  0  0  0
   -2.4801  -14.0834   23.4226 O   0  0  0  0  0  0  0  0  0  0  0  0
   -6.2216  -12.5047   21.3567 O   0  0  0  0  0  0  0  0  0  0  0  0
   -3.7370  -12.3291   22.0493 O   0  0  0  0  0  0  0  0  0  0  0  0
   -4.0976  -12.4488   24.6074 O   0  5  0  0  0  0  0  0  0  0  0  0
   -4.6995  -10.7363   20.2735 O   0  0  0  0  0  0  0  0  0  0  0  0
   -5.0110  -14.2938   23.0746 O   0  0  0  0  0  0  0  0  0  0  0  0
   -6.7518  -16.8793   21.1460 S   0  0  0  0  0  0  0  0  0  0  0  0
   -4.9940  -11.4757   21.5225 P   0  0  2  0  0  0  0  0  0  0  0  0
   -3.8439  -13.2298   23.3762 P   0  0  2  0  0  0  0  0  0  0  0  0
  2 16  2  0  0  0  0
  2  3  1  0  0  0  0
  2 13  1  0  0  0  0
  3  8  2  0  0  0  0
  3  4  1  0  0  0  0
  4 14  1  0  0  0  0
  5  1  1  1  0  0  0
  5 14  1  0  0  0  0
  5 10  1  0  0  0  0
  6  7  1  0  0  0  0
  7 13  1  0  0  0  0
  7 15  2  0  0  0  0
  8 15  1  0  0  0  0
  9 14  1  0  0  0  0
  9 24  1  0  0  0  0
 10 24  1  0  0  0  0
 10 11  1  6  0  0  0
 11 12  1  0  0  0  0
 12 19  1  0  0  0  0
 17 25  1  0  0  0  0
 19 25  1  0  0  0  0
 20 26  1  0  0  0  0
 21 26  1  0  0  0  0
 22 25  2  0  0  0  0
 23 26  2  0  0  0  0
 25 20  1  1  0  0  0
 26 18  1  1  0  0  0
M  CHG  2  17  -1  21  -1
M  END
>  <CHROM.1>
14.78591713,89.52062766,-65.28302641,82.27510891,177.67052116,57.36536284
166.75144528,171.33722438,-7.05025020,-14.71953180,23.03083494,-2.82658702
-0.69832875,-1.61770089

>  <Name>
ligand

>  <RI>
0

>  <Rbt.Current_Directory>
/home/itssahil/PROJECTS/Mol_Feturizer/New_Systems/rnas/3D2X

>  <Rbt.Executable>
rbdock ($Id: //depot/dev/client3/rdock/2013.1/src/exe/rbdock.cxx#4 $)

>  <Rbt.Library>
libRbt.so (2013.1, Build901 2013/11/27)

>  <Rbt.Parameter_File>
/export/apps/rDock/src/rDock_2013.1_src/data/scripts/dock_solv.prm

>  <Rbt.Receptor>
prm/pocket_docking_5.prm

>  <SCORE>
-21.7875

>  <SCORE.INTER>
-20.2965

>  <SCORE.INTER.CONST>
1

>  <SCORE.INTER.POLAR>
0

>  <SCORE.INTER.ROT>
8

>  <SCORE.INTER.SOLV>
8.37243

>  <SCORE.INTER.VDW>
-25.2551

>  <SCORE.INTER.norm>
-0.780634

>  <SCORE.INTRA>
-1.49099

>  <SCORE.INTRA.DIHEDRAL>
-2.22414

>  <SCORE.INTRA.DIHEDRAL.0>
7.88077

>  <SCORE.INTRA.POLAR>
0

>  <SCORE.INTRA.POLAR.0>
0

>  <SCORE.INTRA.REPUL>
0

>  <SCORE.INTRA.REPUL.0>
0

>  <SCORE.INTRA.SOLV>
3.35094

>  <SCORE.INTRA.SOLV.lig_0>
-63.2542

>  <SCORE.INTRA.VDW>
-2.05439

>  <SCORE.INTRA.VDW.0>
-3.15072

>  <SCORE.INTRA.norm>
-0.0573459

>  <SCORE.RESTR>
0

>  <SCORE.RESTR.CAVITY>
0

>  <SCORE.RESTR.norm>
0

>  <SCORE.SYSTEM>
0

>  <SCORE.SYSTEM.CONST>
0

>  <SCORE.SYSTEM.DIHEDRAL>
0

>  <SCORE.SYSTEM.SOLV>
0

>  <SCORE.SYSTEM.norm>
0

>  <SCORE.heavy>
26

>  <SCORE.norm>
-0.837979

>  <RMSD>
3.338

$$$$
ligand
 OpenBabel11021811473D
libRbt.so/2013.1/901 2013/11/27
 26 27  0  0  0  0  0  0  0  0999 V2000
   -7.6571  -13.8278   20.1164 C   0  0  0  0  0  0  0  0  0  0  0  0
   -8.6527  -15.0574   23.6016 C   0  0  0  0  0  0  0  0  0  0  0  0
   -9.6368  -15.6702   22.8329 C   0  0  0  0  0  0  0  0  0  0  0  0
   -9.8181  -15.4098   21.3356 C   0  0  0  0  0  0  0  0  0  0  0  0
   -7.7618  -15.3503   19.9871 C   0  0  1  0  0  0  0  0  0  0  0  0
   -9.3009  -16.6773   26.9910 C   0  0  0  0  0  0  0  0  0  0  0  0
   -9.4229  -16.3059   25.5124 C   0  0  0  0  0  0  0  0  0  0  0  0
  -10.4805  -16.5819   23.4594 C   0  0  0  0  0  0  0  0  0  0  0  0
   -8.7249  -17.3727   20.3937 C   0  0  0  0  0  0  0  0  0  0  0  0
   -6.8247  -16.0978   19.2840 C   0  0  2  0  0  0  0  0  0  0  0  0
   -5.5614  -15.6717   18.5317 C   0  0  0  0  0  0  0  0  0  0  0  0
   -4.5692  -16.8201   18.3344 C   0  0  0  0  0  0  0  0  0  0  0  0
   -8.5370  -15.3731   24.9568 N   0  0  0  0  0  0  0  0  0  0  0  0
   -8.7493  -16.0488   20.5542 N   0  0  0  0  0  0  0  0  0  0  0  0
  -10.3617  -16.8733   24.7414 N   0  0  0  0  0  0  0  0  0  0  0  0
   -7.8828  -14.2425   23.0927 O   0  0  0  0  0  0  0  0  0  0  0  0
   -1.1701  -16.2449   18.9422 O   0  5  0  0  0  0  0  0  0  0  0  0
    0.3125  -13.8235   18.5800 O   0  0  0  0  0  0  0  0  0  0  0  0
   -3.3878  -16.3890   17.6516 O   0  0  0  0  0  0  0  0  0  0  0  0
   -1.6700  -14.5299   17.1260 O   0  0  0  0  0  0  0  0  0  0  0  0
    0.0244  -12.7973   16.2228 O   0  5  0  0  0  0  0  0  0  0  0  0
   -3.0096  -14.4688   19.3211 O   0  0  0  0  0  0  0  0  0  0  0  0
   -1.5938  -12.1740   18.1152 O   0  0  0  0  0  0  0  0  0  0  0  0
   -7.3685  -17.7504   19.3650 S   0  0  0  0  0  0  0  0  0  0  0  0
   -2.3579  -15.3507   18.3256 P   0  0  2  0  0  0  0  0  0  0  0  0
   -0.6782  -13.3007   17.4242 P   0  0  2  0  0  0  0  0  0  0  0  0
  2 16  2  0  0  0  0
  2  3  1  0  0  0  0
  2 13  1  0  0  0  0
  3  8  2  0  0  0  0
  3  4  1  0  0  0  0
  4 14  1  0  0  0  0
  5  1  1  1  0  0  0
  5 14  1  0  0  0  0
  5 10  1  0  0  0  0
  6  7  1  0  0  0  0
  7 13  1  0  0  0  0
  7 15  2  0  0  0  0
  8 15  1  0  0  0  0
  9 14  1  0  0  0  0
  9 24  1  0  0  0  0
 10 24  1  0  0  0  0
 10 11  1  6  0  0  0
 11 12  1  0  0  0  0
 12 19  1  0  0  0  0
 17 25  1  0  0  0  0
 19 25  1  0  0  0  0
 20 26  1  0  0  0  0
 21 26  1  0  0  0  0
 22 25  2  0  0  0  0
 23 26  2  0  0  0  0
 25 20  1  6  0  0  0
 26 18  1  1  0  0  0
M  CHG  2  17  -1  21  -1
M  END
>  <CHROM.1>
73.08014259,159.30367136,-178.90313741,-106.50697330,66.40939602,-73.71380952
98.12406713,45.92527231,-5.43735146,-15.34476351,20.18817010,2.69208588,0.49127060
1.12679370

>  <Name>
ligand

>  <RI>
0

>  <Rbt.Current_Directory>
/home/itssahil/PROJECTS/Mol_Feturizer/New_Systems/rnas/3D2X

>  <Rbt.Executable>
rbdock ($Id: //depot/dev/client3/rdock/2013.1/src/exe/rbdock.cxx#4 $)

>  <Rbt.Library>
libRbt.so (2013.1, Build901 2013/11/27)

>  <Rbt.Parameter_File>
/export/apps/rDock/src/rDock_2013.1_src/data/scripts/dock_solv.prm

>  <Rbt.Receptor>
prm/pocket_docking_5.prm

>  <SCORE>
-17.4803

>  <SCORE.INTER>
-17.5888

>  <SCORE.INTER.CONST>
1

>  <SCORE.INTER.POLAR>
0

>  <SCORE.INTER.ROT>
8

>  <SCORE.INTER.SOLV>
18.2975

>  <SCORE.INTER.VDW>
-26.7584

>  <SCORE.INTER.norm>
-0.676493

>  <SCORE.INTRA>
0.10848

>  <SCORE.INTRA.DIHEDRAL>
-1.29545

>  <SCORE.INTRA.DIHEDRAL.0>
7.88077

>  <SCORE.INTRA.POLAR>
0

>  <SCORE.INTRA.POLAR.0>
0

>  <SCORE.INTRA.REPUL>
0

>  <SCORE.INTRA.REPUL.0>
0

>  <SCORE.INTRA.SOLV>
0.363852

>  <SCORE.INTRA.SOLV.lig_0>
-63.2542

>  <SCORE.INTRA.VDW>
0.574277

>  <SCORE.INTRA.VDW.0>
-3.15072

>  <SCORE.INTRA.norm>
0.0041723

>  <SCORE.RESTR>
0

>  <SCORE.RESTR.CAVITY>
0

>  <SCORE.RESTR.norm>
0

>  <SCORE.SYSTEM>
0

>  <SCORE.SYSTEM.CONST>
0

>  <SCORE.SYSTEM.DIHEDRAL>
0

>  <SCORE.SYSTEM.SOLV>
0

>  <SCORE.SYSTEM.norm>
0

>  <SCORE.heavy>
26

>  <SCORE.norm>
-0.672321

>  <RMSD>
3.381

$$$$
ligand
 OpenBabel11021811473D
libRbt.so/2013.1/901 2013/11/27
 26 27  0  0  0  0  0  0  0  0999 V2000
   -7.4807  -17.1234   22.0413 C   0  0  0  0  0  0  0  0  0  0  0  0
   -9.8920  -16.6691   26.4363 C   0  0  0  0  0  0  0  0  0  0  0  0
   -9.3438  -16.7314   25.1595 C   0  0  0  0  0  0  0  0  0  0  0  0
   -7.9018  -16.3277   24.8428 C   0  0  0  0  0  0  0  0  0  0  0  0
   -7.6607  -15.6687   22.4853 C   0  0  1  0  0  0  0  0  0  0  0  0
  -13.3885  -18.0315   25.7650 C   0  0  0  0  0  0  0  0  0  0  0  0
  -11.9504  -17.5562   25.5534 C   0  0  0  0  0  0  0  0  0  0  0  0
  -10.1463  -17.2073   24.1275 C   0  0  0  0  0  0  0  0  0  0  0  0
   -8.0240  -14.0349   24.0286 C   0  0  0  0  0  0  0  0  0  0  0  0
   -7.6472  -14.6135   21.5809 C   0  0  2  0  0  0  0  0  0  0  0  0
   -7.4780  -14.5982   20.0595 C   0  0  0  0  0  0  0  0  0  0  0  0
   -6.0135  -14.6746   19.6218 C   0  0  0  0  0  0  0  0  0  0  0  0
  -11.2088  -17.0845   26.6447 N   0  0  0  0  0  0  0  0  0  0  0  0
   -7.8564  -15.3311   23.7630 N   0  0  0  0  0  0  0  0  0  0  0  0
  -11.3899  -17.5979   24.3361 N   0  0  0  0  0  0  0  0  0  0  0  0
   -9.2219  -16.2538   27.3819 O   0  0  0  0  0  0  0  0  0  0  0  0
   -3.8207  -16.1038   17.7065 O   0  5  0  0  0  0  0  0  0  0  0  0
   -6.0672  -15.3589   13.8967 O   0  0  0  0  0  0  0  0  0  0  0  0
   -5.8839  -14.6522   18.1969 O   0  0  0  0  0  0  0  0  0  0  0  0
   -4.7033  -14.5398   15.8997 O   0  0  0  0  0  0  0  0  0  0  0  0
   -3.8438  -16.5365   14.4985 O   0  5  0  0  0  0  0  0  0  0  0  0
   -3.5712  -13.5461   17.9848 O   0  0  0  0  0  0  0  0  0  0  0  0
   -5.9000  -16.7958   16.0128 O   0  0  0  0  0  0  0  0  0  0  0  0
   -7.8380  -13.1649   22.5288 S   0  0  0  0  0  0  0  0  0  0  0  0
   -4.4404  -14.6352   17.4833 P   0  0  2  0  0  0  0  0  0  0  0  0
   -5.0413  -15.8517   15.0348 P   0  0  2  0  0  0  0  0  0  0  0  0
  2 16  2  0  0  0  0
  2  3  1  0  0  0  0
  2 13  1  0  0  0  0
  3  8  2  0  0  0  0
  3  4  1  0  0  0  0
  4 14  1  0  0  0  0
  5  1  1  6  0  0  0
  5 14  1  0  0  0  0
  5 10  1  0  0  0  0
  6  7  1  0  0  0  0
  7 13  1  0  0  0  0
  7 15  2  0  0  0  0
  8 15  1  0  0  0  0
  9 14  1  0  0  0  0
  9 24  1  0  0  0  0
 10 24  1  0  0  0  0
 10 11  1  1  0  0  0
 11 12  1  0  0  0  0
 12 19  1  0  0  0  0
 17 25  1  0  0  0  0
 19 25  1  0  0  0  0
 20 26  1  0  0  0  0
 21 26  1  0  0  0  0
 22 25  2  0  0  0  0
 23 26  2  0  0  0  0
 25 20  1  6  0  0  0
 26 18  1  6  0  0  0
M  CHG  2  17  -1  21  -1
M  END
>  <CHROM.1>
-126.01045261,-81.92881439,-179.72335746,-95.56700909,176.40126234,29.67790430
71.45848479,145.66457658,-7.25813815,-15.62544235,20.70123721,2.32151334
0.74829747,1.13926258

>  <Name>
ligand

>  <RI>
0

>  <Rbt.Current_Directory>
/home/itssahil/PROJECTS/Mol_Feturizer/New_Systems/rnas/3D2X

>  <Rbt.Executable>
rbdock ($Id: //depot/dev/client3/rdock/2013.1/src/exe/rbdock.cxx#4 $)

>  <Rbt.Library>
libRbt.so (2013.1, Build901 2013/11/27)

>  <Rbt.Parameter_File>
/export/apps/rDock/src/rDock_2013.1_src/data/scripts/dock_solv.prm

>  <Rbt.Receptor>
prm/pocket_docking_8.prm

>  <SCORE>
-24.5792

>  <SCORE.INTER>
-24.0946

>  <SCORE.INTER.CONST>
1

>  <SCORE.INTER.POLAR>
0

>  <SCORE.INTER.ROT>
8

>  <SCORE.INTER.SOLV>
11.1137

>  <SCORE.INTER.VDW>
-28.701

>  <SCORE.INTER.norm>
-0.926717

>  <SCORE.INTRA>
-0.484586

>  <SCORE.INTRA.DIHEDRAL>
-0.903044

>  <SCORE.INTRA.DIHEDRAL.0>
7.88077

>  <SCORE.INTRA.POLAR>
0

>  <SCORE.INTRA.POLAR.0>
0

>  <SCORE.INTRA.REPUL>
0

>  <SCORE.INTRA.REPUL.0>
0

>  <SCORE.INTRA.SOLV>
0.298259

>  <SCORE.INTRA.SOLV.lig_0>
-63.2542

>  <SCORE.INTRA.VDW>
-0.182193

>  <SCORE.INTRA.VDW.0>
-3.15072

>  <SCORE.INTRA.norm>
-0.0186379

>  <SCORE.RESTR>
0

>  <SCORE.RESTR.CAVITY>
0

>  <SCORE.RESTR.norm>
0

>  <SCORE.SYSTEM>
0

>  <SCORE.SYSTEM.CONST>
0

>  <SCORE.SYSTEM.DIHEDRAL>
0

>  <SCORE.SYSTEM.SOLV>
0

>  <SCORE.SYSTEM.norm>
0

>  <SCORE.heavy>
26

>  <SCORE.norm>
-0.945355

>  <RMSD>
3.416

$$$$
ligand
 OpenBabel11021811473D
libRbt.so/2013.1/901 2013/11/27
 26 27  0  0  0  0  0  0  0  0999 V2000
   -7.5811  -17.1363   22.2785 C   0  0  0  0  0  0  0  0  0  0  0  0
   -9.9759  -16.9203   26.5157 C   0  0  0  0  0  0  0  0  0  0  0  0
   -9.4474  -16.6503   25.2577 C   0  0  0  0  0  0  0  0  0  0  0  0
   -8.0050  -16.1903   25.0325 C   0  0  0  0  0  0  0  0  0  0  0  0
   -7.7217  -15.6566   22.6481 C   0  0  1  0  0  0  0  0  0  0  0  0
  -13.4994  -18.0284   25.5724 C   0  0  0  0  0  0  0  0  0  0  0  0
  -12.0584  -17.5267   25.4675 C   0  0  0  0  0  0  0  0  0  0  0  0
  -10.2711  -16.8320   24.1513 C   0  0  0  0  0  0  0  0  0  0  0  0
   -8.0505  -13.9382   24.1047 C   0  0  0  0  0  0  0  0  0  0  0  0
   -7.6677  -14.6486   21.6930 C   0  0  2  0  0  0  0  0  0  0  0  0
   -7.4836  -14.7139   20.1747 C   0  0  0  0  0  0  0  0  0  0  0  0
   -6.2935  -15.5799   19.7553 C   0  0  0  0  0  0  0  0  0  0  0  0
  -11.2948  -17.3642   26.6310 N   0  0  0  0  0  0  0  0  0  0  0  0
   -7.9193  -15.2504   23.9054 N   0  0  0  0  0  0  0  0  0  0  0  0
  -11.5165  -17.2527   24.2721 N   0  0  0  0  0  0  0  0  0  0  0  0
   -9.2866  -16.7734   27.5251 O   0  0  0  0  0  0  0  0  0  0  0  0
   -5.3304  -18.0556   18.1362 O   0  5  0  0  0  0  0  0  0  0  0  0
   -3.3742  -15.3183   15.0775 O   0  0  0  0  0  0  0  0  0  0  0  0
   -6.1469  -15.6268   18.3326 O   0  0  0  0  0  0  0  0  0  0  0  0
   -5.3703  -16.5815   16.0591 O   0  0  0  0  0  0  0  0  0  0  0  0
   -5.6020  -15.4088   13.7657 O   0  5  0  0  0  0  0  0  0  0  0  0
   -3.6536  -16.1011   17.9135 O   0  0  0  0  0  0  0  0  0  0  0  0
   -5.4224  -14.0294   15.9228 O   0  0  0  0  0  0  0  0  0  0  0  0
   -7.8241  -13.1497   22.5660 S   0  0  0  0  0  0  0  0  0  0  0  0
   -5.0344  -16.5563   17.6314 P   0  0  2  0  0  0  0  0  0  0  0  0
   -4.9833  -15.3444   15.1086 P   0  0  2  0  0  0  0  0  0  0  0  0
  2 16  2  0  0  0  0
  2  3  1  0  0  0  0
  2 13  1  0  0  0  0
  3  8  2  0  0  0  0
  3  4  1  0  0  0  0
  4 14  1  0  0  0  0
  5  1  1  6  0  0  0
  5 14  1  0  0  0  0
  5 10  1  0  0  0  0
  6  7  1  0  0  0  0
  7 13  1  0  0  0  0
  7 15  2  0  0  0  0
  8 15  1  0  0  0  0
  9 14  1  0  0  0  0
  9 24  1  0  0  0  0
 10 24  1  0  0  0  0
 10 11  1  1  0  0  0
 11 12  1  0  0  0  0
 12 19  1  0  0  0  0
 17 25  1  0  0  0  0
 19 25  1  0  0  0  0
 20 26  1  0  0  0  0
 21 26  1  0  0  0  0
 22 25  2  0  0  0  0
 23 26  2  0  0  0  0
 25 20  1  6  0  0  0
 26 18  1  6  0  0  0
M  CHG  2  17  -1  21  -1
M  END
>  <CHROM.1>
-145.42890223,-49.99961930,179.82628445,-89.54175471,-175.53015797,-169.91830852
57.27091170,66.70499447,-7.38610625,-15.90102420,20.79610196,2.43373589,0.85896441
0.94797861

>  <Name>
ligand

>  <RI>
0

>  <Rbt.Current_Directory>
/home/itssahil/PROJECTS/Mol_Feturizer/New_Systems/rnas/3D2X

>  <Rbt.Executable>
rbdock ($Id: //depot/dev/client3/rdock/2013.1/src/exe/rbdock.cxx#4 $)

>  <Rbt.Library>
libRbt.so (2013.1, Build901 2013/11/27)

>  <Rbt.Parameter_File>
/export/apps/rDock/src/rDock_2013.1_src/data/scripts/dock_solv.prm

>  <Rbt.Receptor>
prm/pocket_docking_6.prm

>  <SCORE>
-26.4169

>  <SCORE.INTER>
-24.51

>  <SCORE.INTER.CONST>
1

>  <SCORE.INTER.POLAR>
0

>  <SCORE.INTER.ROT>
8

>  <SCORE.INTER.SOLV>
19.1586

>  <SCORE.INTER.VDW>
-31.6595

>  <SCORE.INTER.norm>
-0.942692

>  <SCORE.INTRA>
-1.90686

>  <SCORE.INTRA.DIHEDRAL>
-2.57798

>  <SCORE.INTRA.DIHEDRAL.0>
7.88077

>  <SCORE.INTRA.POLAR>
0

>  <SCORE.INTRA.POLAR.0>
0

>  <SCORE.INTRA.REPUL>
0

>  <SCORE.INTRA.REPUL.0>
0

>  <SCORE.INTRA.SOLV>
-1.47654

>  <SCORE.INTRA.SOLV.lig_0>
-63.2542

>  <SCORE.INTRA.VDW>
0.120398

>  <SCORE.INTRA.VDW.0>
-3.15072

>  <SCORE.INTRA.norm>
-0.0733409

>  <SCORE.RESTR>
0

>  <SCORE.RESTR.CAVITY>
0

>  <SCORE.RESTR.norm>
0

>  <SCORE.SYSTEM>
0

>  <SCORE.SYSTEM.CONST>
0

>  <SCORE.SYSTEM.DIHEDRAL>
0

>  <SCORE.SYSTEM.SOLV>
0

>  <SCORE.SYSTEM.norm>
0

>  <SCORE.heavy>
26

>  <SCORE.norm>
-1.01603

>  <RMSD>
3.421

$$$$
ligand
 OpenBabel11021811473D
libRbt.so/2013.1/901 2013/11/27
 26 27  0  0  0  0  0  0  0  0999 V2000
   -7.4129  -16.8459   21.7836 C   0  0  0  0  0  0  0  0  0  0  0  0
   -9.9136  -16.7398   26.2794 C   0  0  0  0  0  0  0  0  0  0  0  0
   -9.3902  -16.8155   24.9929 C   0  0  0  0  0  0  0  0  0  0  0  0
   -7.9474  -16.4384   24.6484 C   0  0  0  0  0  0  0  0  0  0  0  0
   -7.6593  -15.4686   22.4063 C   0  0  1  0  0  0  0  0  0  0  0  0
  -13.4455  -18.0418   25.6767 C   0  0  0  0  0  0  0  0  0  0  0  0
  -12.0033  -17.5927   25.4372 C   0  0  0  0  0  0  0  0  0  0  0  0
  -10.2199  -17.2800   23.9773 C   0  0  0  0  0  0  0  0  0  0  0  0
   -8.1285  -14.0637   24.1353 C   0  0  0  0  0  0  0  0  0  0  0  0
   -7.6569  -14.3041   21.6479 C   0  0  2  0  0  0  0  0  0  0  0  0
   -7.4425  -14.0841   20.1482 C   0  0  0  0  0  0  0  0  0  0  0  0
   -6.4896  -12.9252   19.8459 C   0  0  0  0  0  0  0  0  0  0  0  0
  -11.2334  -17.1312   26.5132 N   0  0  0  0  0  0  0  0  0  0  0  0
   -7.9057  -15.3080   23.7095 N   0  0  0  0  0  0  0  0  0  0  0  0
  -11.4661  -17.6478   24.2100 N   0  0  0  0  0  0  0  0  0  0  0  0
   -9.2188  -16.3338   27.2112 O   0  0  0  0  0  0  0  0  0  0  0  0
   -7.2140   -9.8426   18.4555 O   0  5  0  0  0  0  0  0  0  0  0  0
   -5.7327  -10.8052   22.5368 O   0  0  0  0  0  0  0  0  0  0  0  0
   -7.0367  -11.6680   20.2557 O   0  0  0  0  0  0  0  0  0  0  0  0
   -6.7863   -9.1706   20.8751 O   0  0  0  0  0  0  0  0  0  0  0  0
   -6.1216   -8.3446   23.2340 O   0  5  0  0  0  0  0  0  0  0  0  0
   -4.9326  -10.3662   19.5520 O   0  0  0  0  0  0  0  0  0  0  0  0
   -8.1125   -9.9344   22.9226 O   0  0  0  0  0  0  0  0  0  0  0  0
   -7.9291  -12.9992   22.7687 S   0  0  0  0  0  0  0  0  0  0  0  0
   -6.3942  -10.2729   19.7719 P   0  0  2  0  0  0  0  0  0  0  0  0
   -6.6451   -9.4824   22.4456 P   0  0  2  0  0  0  0  0  0  0  0  0
  2 16  2  0  0  0  0
  2  3  1  0  0  0  0
  2 13  1  0  0  0  0
  3  8  2  0  0  0  0
  3  4  1  0  0  0  0
  4 14  1  0  0  0  0
  5  1  1  6  0  0  0
  5 14  1  0  0  0  0
  5 10  1  0  0  0  0
  6  7  1  0  0  0  0
  7 13  1  0  0  0  0
  7 15  2  0  0  0  0
  8 15  1  0  0  0  0
  9 14  1  0  0  0  0
  9 24  1  0  0  0  0
 10 24  1  0  0  0  0
 10 11  1  1  0  0  0
 11 12  1  0  0  0  0
 12 19  1  0  0  0  0
 17 25  1  0  0  0  0
 19 25  1  0  0  0  0
 20 26  1  0  0  0  0
 21 26  1  0  0  0  0
 22 25  2  0  0  0  0
 23 26  2  0  0  0  0
 25 20  1  1  0  0  0
 26 18  1  1  0  0  0
M  CHG  2  17  -1  21  -1
M  END
>  <CHROM.1>
-117.65210920,-134.55665459,-65.68798264,-102.53225057,-166.51896589,157.38848909
93.64680579,14.65746619,-8.01923887,-13.31578758,22.67554234,-2.91674257
1.10110002,0.75288025

>  <Name>
ligand

>  <RI>
0

>  <Rbt.Current_Directory>
/home/itssahil/PROJECTS/Mol_Feturizer/New_Systems/rnas/3D2X

>  <Rbt.Executable>
rbdock ($Id: //depot/dev/client3/rdock/2013.1/src/exe/rbdock.cxx#4 $)

>  <Rbt.Library>
libRbt.so (2013.1, Build901 2013/11/27)

>  <Rbt.Parameter_File>
/export/apps/rDock/src/rDock_2013.1_src/data/scripts/dock_solv.prm

>  <Rbt.Receptor>
prm/pocket_docking_6.prm

>  <SCORE>
-23.9467

>  <SCORE.INTER>
-22.3231

>  <SCORE.INTER.CONST>
1

>  <SCORE.INTER.POLAR>
0

>  <SCORE.INTER.ROT>
8

>  <SCORE.INTER.SOLV>
13.7675

>  <SCORE.INTER.VDW>
-28.4046

>  <SCORE.INTER.norm>
-0.858582

>  <SCORE.INTRA>
-1.62354

>  <SCORE.INTRA.DIHEDRAL>
1.73779

>  <SCORE.INTRA.DIHEDRAL.0>
7.88077

>  <SCORE.INTRA.POLAR>
0

>  <SCORE.INTRA.POLAR.0>
0

>  <SCORE.INTRA.REPUL>
0

>  <SCORE.INTRA.REPUL.0>
0

>  <SCORE.INTRA.SOLV>
-2.58836

>  <SCORE.INTRA.SOLV.lig_0>
-63.2542

>  <SCORE.INTRA.VDW>
-1.19826

>  <SCORE.INTRA.VDW.0>
-3.15072

>  <SCORE.INTRA.norm>
-0.0624439

>  <SCORE.RESTR>
0

>  <SCORE.RESTR.CAVITY>
0

>  <SCORE.RESTR.norm>
0

>  <SCORE.SYSTEM>
0

>  <SCORE.SYSTEM.CONST>
0

>  <SCORE.SYSTEM.DIHEDRAL>
0

>  <SCORE.SYSTEM.SOLV>
0

>  <SCORE.SYSTEM.norm>
0

>  <SCORE.heavy>
26

>  <SCORE.norm>
-0.921026

>  <RMSD>
3.428

$$$$
ligand
 OpenBabel11021811473D
libRbt.so/2013.1/901 2013/11/27
 26 27  0  0  0  0  0  0  0  0999 V2000
   -7.6351  -15.5261   22.5487 C   0  0  0  0  0  0  0  0  0  0  0  0
   -9.6219  -16.8606   26.7598 C   0  0  0  0  0  0  0  0  0  0  0  0
   -8.9947  -16.7437   25.5238 C   0  0  0  0  0  0  0  0  0  0  0  0
   -7.5164  -16.3816   25.3617 C   0  0  0  0  0  0  0  0  0  0  0  0
   -7.4002  -14.5597   23.7133 C   0  0  1  0  0  0  0  0  0  0  0  0
  -13.1311  -17.8773   25.6716 C   0  0  0  0  0  0  0  0  0  0  0  0
  -11.6599  -17.4620   25.6249 C   0  0  0  0  0  0  0  0  0  0  0  0
   -9.7506  -16.9922   24.3826 C   0  0  0  0  0  0  0  0  0  0  0  0
   -7.1686  -14.0352   25.9166 C   0  0  0  0  0  0  0  0  0  0  0  0
   -7.2351  -13.1937   23.5176 C   0  0  2  0  0  0  0  0  0  0  0  0
   -7.2474  -12.3550   22.2370 C   0  0  0  0  0  0  0  0  0  0  0  0
   -5.9048  -12.3687   21.5026 C   0  0  0  0  0  0  0  0  0  0  0  0
  -10.9688  -17.2237   26.8203 N   0  0  0  0  0  0  0  0  0  0  0  0
   -7.3557  -14.9701   24.9839 N   0  0  0  0  0  0  0  0  0  0  0  0
  -11.0234  -17.3355   24.4516 N   0  0  0  0  0  0  0  0  0  0  0  0
   -8.9952  -16.6493   27.7983 O   0  0  0  0  0  0  0  0  0  0  0  0
   -6.9016  -12.3449   18.7087 O   0  5  0  0  0  0  0  0  0  0  0  0
   -5.7964  -16.6494   19.9237 O   0  0  0  0  0  0  0  0  0  0  0  0
   -5.7609  -13.5321   20.6820 O   0  0  0  0  0  0  0  0  0  0  0  0
   -5.8496  -14.6365   18.3462 O   0  0  0  0  0  0  0  0  0  0  0  0
   -4.4520  -16.7189   17.7146 O   0  5  0  0  0  0  0  0  0  0  0  0
   -7.9862  -14.4400   19.7650 O   0  0  0  0  0  0  0  0  0  0  0  0
   -3.7118  -15.1858   19.6355 O   0  0  0  0  0  0  0  0  0  0  0  0
   -6.9529  -12.5121   25.0952 S   0  0  0  0  0  0  0  0  0  0  0  0
   -6.7086  -13.7834   19.4045 P   0  0  2  0  0  0  0  0  0  0  0  0
   -4.9246  -15.8610   18.8242 P   0  0  2  0  0  0  0  0  0  0  0  0
  2 16  2  0  0  0  0
  2  3  1  0  0  0  0
  2 13  1  0  0  0  0
  3  8  2  0  0  0  0
  3  4  1  0  0  0  0
  4 14  1  0  0  0  0
  5  1  1  1  0  0  0
  5 14  1  0  0  0  0
  5 10  1  0  0  0  0
  6  7  1  0  0  0  0
  7 13  1  0  0  0  0
  7 15  2  0  0  0  0
  8 15  1  0  0  0  0
  9 14  1  0  0  0  0
  9 24  1  0  0  0  0
 10 24  1  0  0  0  0
 10 11  1  6  0  0  0
 11 12  1  0  0  0  0
 12 19  1  0  0  0  0
 17 25  1  0  0  0  0
 19 25  1  0  0  0  0
 20 26  1  0  0  0  0
 21 26  1  0  0  0  0
 22 25  2  0  0  0  0
 23 26  2  0  0  0  0
 25 20  1  6  0  0  0
 26 18  1  1  0  0  0
M  CHG  2  17  -1  21  -1
M  END
>  <CHROM.1>
-101.88775797,-82.37679923,82.55118981,-86.24570835,65.53218572,154.44141341
39.35816172,41.82849507,-7.44869399,-15.07123193,22.50864041,2.60478265,0.90844026
0.91640340

>  <Name>
ligand

>  <RI>
0

>  <Rbt.Current_Directory>
/home/itssahil/PROJECTS/Mol_Feturizer/New_Systems/rnas/3D2X

>  <Rbt.Executable>
rbdock ($Id: //depot/dev/client3/rdock/2013.1/src/exe/rbdock.cxx#4 $)

>  <Rbt.Library>
libRbt.so (2013.1, Build901 2013/11/27)

>  <Rbt.Parameter_File>
/export/apps/rDock/src/rDock_2013.1_src/data/scripts/dock_solv.prm

>  <Rbt.Receptor>
prm/pocket_docking_4.prm

>  <SCORE>
-20.29

>  <SCORE.INTER>
-19.8138

>  <SCORE.INTER.CONST>
1

>  <SCORE.INTER.POLAR>
0

>  <SCORE.INTER.ROT>
8

>  <SCORE.INTER.SOLV>
14.3538

>  <SCORE.INTER.VDW>
-26.9272

>  <SCORE.INTER.norm>
-0.762071

>  <SCORE.INTRA>
-0.476152

>  <SCORE.INTRA.DIHEDRAL>
0.595181

>  <SCORE.INTRA.DIHEDRAL.0>
7.88077

>  <SCORE.INTRA.POLAR>
0

>  <SCORE.INTRA.POLAR.0>
0

>  <SCORE.INTRA.REPUL>
0

>  <SCORE.INTRA.REPUL.0>
0

>  <SCORE.INTRA.SOLV>
0.306858

>  <SCORE.INTRA.SOLV.lig_0>
-63.2542

>  <SCORE.INTRA.VDW>
-0.927171

>  <SCORE.INTRA.VDW.0>
-3.15072

>  <SCORE.INTRA.norm>
-0.0183135

>  <SCORE.RESTR>
0

>  <SCORE.RESTR.CAVITY>
0

>  <SCORE.RESTR.norm>
0

>  <SCORE.SYSTEM>
0

>  <SCORE.SYSTEM.CONST>
0

>  <SCORE.SYSTEM.DIHEDRAL>
0

>  <SCORE.SYSTEM.SOLV>
0

>  <SCORE.SYSTEM.norm>
0

>  <SCORE.heavy>
26

>  <SCORE.norm>
-0.780384

>  <RMSD>
3.433

$$$$
ligand
 OpenBabel11021811473D
libRbt.so/2013.1/901 2013/11/27
 26 27  0  0  0  0  0  0  0  0999 V2000
   -6.4276  -17.1273   22.9859 C   0  0  0  0  0  0  0  0  0  0  0  0
  -10.0849  -17.0751   26.5923 C   0  0  0  0  0  0  0  0  0  0  0  0
   -9.4792  -16.7220   25.3910 C   0  0  0  0  0  0  0  0  0  0  0  0
   -8.0297  -16.2410   25.2895 C   0  0  0  0  0  0  0  0  0  0  0  0
   -7.1115  -15.7589   23.0591 C   0  0  1  0  0  0  0  0  0  0  0  0
  -13.5301  -18.1383   25.3542 C   0  0  0  0  0  0  0  0  0  0  0  0
  -12.0901  -17.6235   25.3750 C   0  0  0  0  0  0  0  0  0  0  0  0
  -10.2284  -16.8362   24.2244 C   0  0  0  0  0  0  0  0  0  0  0  0
   -8.4074  -14.1745   24.0558 C   0  0  0  0  0  0  0  0  0  0  0  0
   -7.0284  -14.8355   22.0238 C   0  0  2  0  0  0  0  0  0  0  0  0
   -6.3224  -14.9098   20.6675 C   0  0  0  0  0  0  0  0  0  0  0  0
   -6.6100  -16.2118   19.9162 C   0  0  0  0  0  0  0  0  0  0  0  0
  -11.4043  -17.5323   26.5935 N   0  0  0  0  0  0  0  0  0  0  0  0
   -7.8392  -15.3798   24.1134 N   0  0  0  0  0  0  0  0  0  0  0  0
  -11.4750  -17.2703   24.2372 N   0  0  0  0  0  0  0  0  0  0  0  0
   -9.4633  -16.9899   27.6516 O   0  0  0  0  0  0  0  0  0  0  0  0
   -6.5520  -18.5460   17.7317 O   0  5  0  0  0  0  0  0  0  0  0  0
   -5.3177  -14.3728   16.5288 O   0  0  0  0  0  0  0  0  0  0  0  0
   -6.2099  -16.1322   18.5446 O   0  0  0  0  0  0  0  0  0  0  0  0
   -5.2325  -16.9176   16.2838 O   0  0  0  0  0  0  0  0  0  0  0  0
   -3.0281  -15.5697   16.3962 O   0  5  0  0  0  0  0  0  0  0  0  0
   -4.2126  -17.7526   18.4928 O   0  0  0  0  0  0  0  0  0  0  0  0
   -4.5389  -15.4274   14.3260 O   0  0  0  0  0  0  0  0  0  0  0  0
   -7.9054  -13.4300   22.5610 S   0  0  0  0  0  0  0  0  0  0  0  0
   -5.4677  -17.3593   17.8120 P   0  0  2  0  0  0  0  0  0  0  0  0
   -4.4307  -15.5719   15.9237 P   0  0  2  0  0  0  0  0  0  0  0  0
  2 16  2  0  0  0  0
  2  3  1  0  0  0  0
  2 13  1  0  0  0  0
  3  8  2  0  0  0  0
  3  4  1  0  0  0  0
  4 14  1  0  0  0  0
  5  1  1  6  0  0  0
  5 14  1  0  0  0  0
  5 10  1  0  0  0  0
  6  7  1  0  0  0  0
  7 13  1  0  0  0  0
  7 15  2  0  0  0  0
  8 15  1  0  0  0  0
  9 14  1  0  0  0  0
  9 24  1  0  0  0  0
 10 24  1  0  0  0  0
 10 11  1  1  0  0  0
 11 12  1  0  0  0  0
 12 19  1  0  0  0  0
 17 25  1  0  0  0  0
 19 25  1  0  0  0  0
 20 26  1  0  0  0  0
 21 26  1  0  0  0  0
 22 25  2  0  0  0  0
 23 26  2  0  0  0  0
 25 20  1  6  0  0  0
 26 18  1  1  0  0  0
M  CHG  2  17  -1  21  -1
M  END
>  <CHROM.1>
-153.61912010,47.93901384,166.30089071,-111.30089798,138.30230649,168.26924062
66.67008507,-63.41124506,-7.30782355,-16.21135345,21.06948408,-2.48480619
-0.84202163,-2.26793847

>  <Name>
ligand

>  <RI>
0

>  <Rbt.Current_Directory>
/home/itssahil/PROJECTS/Mol_Feturizer/New_Systems/rnas/3D2X

>  <Rbt.Executable>
rbdock ($Id: //depot/dev/client3/rdock/2013.1/src/exe/rbdock.cxx#4 $)

>  <Rbt.Library>
libRbt.so (2013.1, Build901 2013/11/27)

>  <Rbt.Parameter_File>
/export/apps/rDock/src/rDock_2013.1_src/data/scripts/dock_solv.prm

>  <Rbt.Receptor>
prm/pocket_docking_5.prm

>  <SCORE>
-22.2807

>  <SCORE.INTER>
-22.8007

>  <SCORE.INTER.CONST>
1

>  <SCORE.INTER.POLAR>
0

>  <SCORE.INTER.ROT>
8

>  <SCORE.INTER.SOLV>
20.221

>  <SCORE.INTER.VDW>
-30.8741

>  <SCORE.INTER.norm>
-0.876951

>  <SCORE.INTRA>
0.419577

>  <SCORE.INTRA.DIHEDRAL>
3.15858

>  <SCORE.INTRA.DIHEDRAL.0>
7.88077

>  <SCORE.INTRA.POLAR>
0

>  <SCORE.INTRA.POLAR.0>
0

>  <SCORE.INTRA.REPUL>
0

>  <SCORE.INTRA.REPUL.0>
0

>  <SCORE.INTRA.SOLV>
-2.54635

>  <SCORE.INTRA.SOLV.lig_0>
-63.2542

>  <SCORE.INTRA.VDW>
0.113462

>  <SCORE.INTRA.VDW.0>
-3.15072

>  <SCORE.INTRA.norm>
0.0161376

>  <SCORE.RESTR>
0.100454

>  <SCORE.RESTR.CAVITY>
0.100454

>  <SCORE.RESTR.norm>
0.00386363

>  <SCORE.SYSTEM>
0

>  <SCORE.SYSTEM.CONST>
0

>  <SCORE.SYSTEM.DIHEDRAL>
0

>  <SCORE.SYSTEM.SOLV>
0

>  <SCORE.SYSTEM.norm>
0

>  <SCORE.heavy>
26

>  <SCORE.norm>
-0.85695

>  <RMSD>
3.464

$$$$
ligand
 OpenBabel11021811473D
libRbt.so/2013.1/901 2013/11/27
 26 27  0  0  0  0  0  0  0  0999 V2000
   -6.6867  -17.2262   19.2698 C   0  0  0  0  0  0  0  0  0  0  0  0
   -7.8550  -16.7209   23.4822 C   0  0  0  0  0  0  0  0  0  0  0  0
   -8.9714  -16.6238   22.6583 C   0  0  0  0  0  0  0  0  0  0  0  0
   -8.8939  -16.6545   21.1300 C   0  0  0  0  0  0  0  0  0  0  0  0
   -7.0130  -15.8203   19.7823 C   0  0  1  0  0  0  0  0  0  0  0  0
   -9.5070  -16.6152   26.9162 C   0  0  0  0  0  0  0  0  0  0  0  0
   -9.3088  -16.6073   25.3997 C   0  0  0  0  0  0  0  0  0  0  0  0
  -10.2202  -16.5164   23.2618 C   0  0  0  0  0  0  0  0  0  0  0  0
   -8.2284  -14.3156   20.9830 C   0  0  0  0  0  0  0  0  0  0  0  0
   -6.2846  -14.7037   19.3897 C   0  0  2  0  0  0  0  0  0  0  0  0
   -5.0931  -14.5668   18.4383 C   0  0  0  0  0  0  0  0  0  0  0  0
   -5.3513  -13.5793   17.2979 C   0  0  0  0  0  0  0  0  0  0  0  0
   -8.0163  -16.7139   24.8692 N   0  0  0  0  0  0  0  0  0  0  0  0
   -8.0241  -15.5834   20.6226 N   0  0  0  0  0  0  0  0  0  0  0  0
  -10.3611  -16.5114   24.5744 N   0  0  0  0  0  0  0  0  0  0  0  0
   -6.7283  -16.8164   22.9952 O   0  0  0  0  0  0  0  0  0  0  0  0
   -6.8683  -11.2524   15.8198 O   0  5  0  0  0  0  0  0  0  0  0  0
   -5.9976   -8.0514   19.6105 O   0  0  0  0  0  0  0  0  0  0  0  0
   -5.5411  -12.2465   17.7831 O   0  0  0  0  0  0  0  0  0  0  0  0
   -6.0246   -9.7097   17.6630 O   0  0  0  0  0  0  0  0  0  0  0  0
   -5.2327  -10.4922   19.9973 O   0  5  0  0  0  0  0  0  0  0  0  0
   -4.3366  -10.7818   16.0450 O   0  0  0  0  0  0  0  0  0  0  0  0
   -3.7940   -8.8879   18.6029 O   0  0  0  0  0  0  0  0  0  0  0  0
   -6.9736  -13.3537   20.2476 S   0  0  0  0  0  0  0  0  0  0  0  0
   -5.6051  -10.9874   16.7813 P   0  0  2  0  0  0  0  0  0  0  0  0
   -5.2663   -9.3659   19.0378 P   0  0  2  0  0  0  0  0  0  0  0  0
  2 16  2  0  0  0  0
  2  3  1  0  0  0  0
  2 13  1  0  0  0  0
  3  8  2  0  0  0  0
  3  4  1  0  0  0  0
  4 14  1  0  0  0  0
  5  1  1  6  0  0  0
  5 14  1  0  0  0  0
  5 10  1  0  0  0  0
  6  7  1  0  0  0  0
  7 13  1  0  0  0  0
  7 15  2  0  0  0  0
  8 15  1  0  0  0  0
  9 14  1  0  0  0  0
  9 24  1  0  0  0  0
 10 24  1  0  0  0  0
 10 11  1  1  0  0  0
 11 12  1  0  0  0  0
 12 19  1  0  0  0  0
 17 25  1  0  0  0  0
 19 25  1  0  0  0  0
 20 26  1  0  0  0  0
 21 26  1  0  0  0  0
 22 25  2  0  0  0  0
 23 26  2  0  0  0  0
 25 20  1  1  0  0  0
 26 18  1  1  0  0  0
M  CHG  2  17  -1  21  -1
M  END
>  <CHROM.1>
-57.62616360,123.62346448,63.99879870,127.27499158,170.53362271,161.46748809
61.19623524,-178.94397618,-6.78733433,-13.39218839,20.15324654,-2.94620953
1.18475651,0.59635553

>  <Name>
ligand

>  <RI>
0

>  <Rbt.Current_Directory>
/home/itssahil/PROJECTS/Mol_Feturizer/New_Systems/rnas/3D2X

>  <Rbt.Executable>
rbdock ($Id: //depot/dev/client3/rdock/2013.1/src/exe/rbdock.cxx#4 $)

>  <Rbt.Library>
libRbt.so (2013.1, Build901 2013/11/27)

>  <Rbt.Parameter_File>
/export/apps/rDock/src/rDock_2013.1_src/data/scripts/dock_solv.prm

>  <Rbt.Receptor>
prm/pocket_docking_5.prm

>  <SCORE>
-19.2219

>  <SCORE.INTER>
-16.8502

>  <SCORE.INTER.CONST>
1

>  <SCORE.INTER.POLAR>
0

>  <SCORE.INTER.ROT>
8

>  <SCORE.INTER.SOLV>
14.8762

>  <SCORE.INTER.VDW>
-25.1255

>  <SCORE.INTER.norm>
-0.648086

>  <SCORE.INTRA>
-2.37171

>  <SCORE.INTRA.DIHEDRAL>
-1.79951

>  <SCORE.INTRA.DIHEDRAL.0>
7.88077

>  <SCORE.INTRA.POLAR>
0

>  <SCORE.INTRA.POLAR.0>
0

>  <SCORE.INTRA.REPUL>
0

>  <SCORE.INTRA.REPUL.0>
0

>  <SCORE.INTRA.SOLV>
0.00855849

>  <SCORE.INTRA.SOLV.lig_0>
-63.2542

>  <SCORE.INTRA.VDW>
-1.47623

>  <SCORE.INTRA.VDW.0>
-3.15072

>  <SCORE.INTRA.norm>
-0.0912195

>  <SCORE.RESTR>
0

>  <SCORE.RESTR.CAVITY>
0

>  <SCORE.RESTR.norm>
0

>  <SCORE.SYSTEM>
0

>  <SCORE.SYSTEM.CONST>
0

>  <SCORE.SYSTEM.DIHEDRAL>
0

>  <SCORE.SYSTEM.SOLV>
0

>  <SCORE.SYSTEM.norm>
0

>  <SCORE.heavy>
26

>  <SCORE.norm>
-0.739305

>  <RMSD>
3.471

$$$$
ligand
 OpenBabel11021811473D
libRbt.so/2013.1/901 2013/11/27
 26 27  0  0  0  0  0  0  0  0999 V2000
   -8.3336  -14.4929   23.0276 C   0  0  0  0  0  0  0  0  0  0  0  0
   -9.8364  -16.7713   26.6485 C   0  0  0  0  0  0  0  0  0  0  0  0
   -9.2092  -16.7324   25.4076 C   0  0  0  0  0  0  0  0  0  0  0  0
   -7.7361  -16.3612   25.2210 C   0  0  0  0  0  0  0  0  0  0  0  0
   -7.7909  -14.0473   24.3887 C   0  0  1  0  0  0  0  0  0  0  0  0
  -13.3290  -17.9130   25.6332 C   0  0  0  0  0  0  0  0  0  0  0  0
  -11.8639  -17.4806   25.5580 C   0  0  0  0  0  0  0  0  0  0  0  0
   -9.9599  -17.0715   24.2864 C   0  0  0  0  0  0  0  0  0  0  0  0
   -7.0846  -14.4078   26.5228 C   0  0  0  0  0  0  0  0  0  0  0  0
   -7.5506  -12.7112   24.6864 C   0  0  2  0  0  0  0  0  0  0  0  0
   -7.7431  -11.4459   23.8466 C   0  0  0  0  0  0  0  0  0  0  0  0
   -6.8016  -11.3812   22.6418 C   0  0  0  0  0  0  0  0  0  0  0  0
  -11.1780  -17.1489   26.7339 N   0  0  0  0  0  0  0  0  0  0  0  0
   -7.5321  -14.9133   25.3724 N   0  0  0  0  0  0  0  0  0  0  0  0
  -11.2276  -17.4276   24.3789 N   0  0  0  0  0  0  0  0  0  0  0  0
   -9.2143  -16.4785   27.6698 O   0  0  0  0  0  0  0  0  0  0  0  0
   -4.4647  -10.1439   21.1140 O   0  5  0  0  0  0  0  0  0  0  0  0
   -8.0017  -11.9592   17.9386 O   0  0  0  0  0  0  0  0  0  0  0  0
   -6.8886  -10.1219   21.9676 O   0  0  0  0  0  0  0  0  0  0  0  0
   -6.3425  -10.8745   19.5554 O   0  0  0  0  0  0  0  0  0  0  0  0
   -8.4366   -9.5586   18.7990 O   0  5  0  0  0  0  0  0  0  0  0  0
   -6.1419   -8.3957   20.2127 O   0  0  0  0  0  0  0  0  0  0  0  0
   -6.5216  -10.0193   17.1530 O   0  0  0  0  0  0  0  0  0  0  0  0
   -6.9048  -12.6872   26.3037 S   0  0  0  0  0  0  0  0  0  0  0  0
   -5.9747   -9.7897   20.6840 P   0  0  2  0  0  0  0  0  0  0  0  0
   -7.4021  -10.5369   18.3948 P   0  0  2  0  0  0  0  0  0  0  0  0
  2 16  2  0  0  0  0
  2  3  1  0  0  0  0
  2 13  1  0  0  0  0
  3  8  2  0  0  0  0
  3  4  1  0  0  0  0
  4 14  1  0  0  0  0
  5  1  1  1  0  0  0
  5 14  1  0  0  0  0
  5 10  1  0  0  0  0
  6  7  1  0  0  0  0
  7 13  1  0  0  0  0
  7 15  2  0  0  0  0
  8 15  1  0  0  0  0
  9 14  1  0  0  0  0
  9 24  1  0  0  0  0
 10 24  1  0  0  0  0
 10 11  1  6  0  0  0
 11 12  1  0  0  0  0
 12 19  1  0  0  0  0
 17 25  1  0  0  0  0
 19 25  1  0  0  0  0
 20 26  1  0  0  0  0
 21 26  1  0  0  0  0
 22 25  2  0  0  0  0
 23 26  2  0  0  0  0
 25 20  1  6  0  0  0
 26 18  1  6  0  0  0
M  CHG  2  17  -1  21  -1
M  END
>  <CHROM.1>
-75.16784041,-66.54602818,-173.02539653,-80.32867221,178.70003839,-151.28406972
-50.65855312,-154.19502630,-7.97061453,-13.03764093,22.90273008,2.07368199
0.77675698,1.98528777

>  <Name>
ligand

>  <RI>
0

>  <Rbt.Current_Directory>
/home/itssahil/PROJECTS/Mol_Feturizer/New_Systems/rnas/3D2X

>  <Rbt.Executable>
rbdock ($Id: //depot/dev/client3/rdock/2013.1/src/exe/rbdock.cxx#4 $)

>  <Rbt.Library>
libRbt.so (2013.1, Build901 2013/11/27)

>  <Rbt.Parameter_File>
/export/apps/rDock/src/rDock_2013.1_src/data/scripts/dock_solv.prm

>  <Rbt.Receptor>
prm/pocket_docking_7.prm

>  <SCORE>
-24.5758

>  <SCORE.INTER>
-23.6412

>  <SCORE.INTER.CONST>
1

>  <SCORE.INTER.POLAR>
0

>  <SCORE.INTER.ROT>
8

>  <SCORE.INTER.SOLV>
19.1784

>  <SCORE.INTER.VDW>
-31.0869

>  <SCORE.INTER.norm>
-0.909276

>  <SCORE.INTRA>
-0.934671

>  <SCORE.INTRA.DIHEDRAL>
-0.473645

>  <SCORE.INTRA.DIHEDRAL.0>
7.88077

>  <SCORE.INTRA.POLAR>
0

>  <SCORE.INTRA.POLAR.0>
0

>  <SCORE.INTRA.REPUL>
0

>  <SCORE.INTRA.REPUL.0>
0

>  <SCORE.INTRA.SOLV>
-0.541645

>  <SCORE.INTRA.SOLV.lig_0>
-63.2542

>  <SCORE.INTRA.VDW>
-0.427026

>  <SCORE.INTRA.VDW.0>
-3.15072

>  <SCORE.INTRA.norm>
-0.0359489

>  <SCORE.RESTR>
0

>  <SCORE.RESTR.CAVITY>
0

>  <SCORE.RESTR.norm>
0

>  <SCORE.SYSTEM>
0

>  <SCORE.SYSTEM.CONST>
0

>  <SCORE.SYSTEM.DIHEDRAL>
0

>  <SCORE.SYSTEM.SOLV>
0

>  <SCORE.SYSTEM.norm>
0

>  <SCORE.heavy>
26

>  <SCORE.norm>
-0.945225

>  <RMSD>
3.495

$$$$
ligand
 OpenBabel11021811473D
libRbt.so/2013.1/901 2013/11/27
 26 27  0  0  0  0  0  0  0  0999 V2000
   -5.8353  -14.3993   21.4954 C   0  0  0  0  0  0  0  0  0  0  0  0
   -9.0614  -15.8570   24.5540 C   0  0  0  0  0  0  0  0  0  0  0  0
   -9.4746  -15.7066   23.2344 C   0  0  0  0  0  0  0  0  0  0  0  0
   -8.6368  -14.9999   22.1661 C   0  0  0  0  0  0  0  0  0  0  0  0
   -6.6793  -13.5352   22.4370 C   0  0  1  0  0  0  0  0  0  0  0  0
  -11.9922  -17.8301   25.9856 C   0  0  0  0  0  0  0  0  0  0  0  0
  -11.0959  -17.0626   25.0126 C   0  0  0  0  0  0  0  0  0  0  0  0
  -10.7028  -16.2487   22.8696 C   0  0  0  0  0  0  0  0  0  0  0  0
   -8.5955  -12.9866   23.5372 C   0  0  0  0  0  0  0  0  0  0  0  0
   -6.1747  -12.3882   23.0379 C   0  0  2  0  0  0  0  0  0  0  0  0
   -4.7974  -11.7272   22.9398 C   0  0  0  0  0  0  0  0  0  0  0  0
   -4.8580  -10.3031   22.3824 C   0  0  0  0  0  0  0  0  0  0  0  0
   -9.8744  -16.5415   25.4596 N   0  0  0  0  0  0  0  0  0  0  0  0
   -7.9519  -13.8242   22.7228 N   0  0  0  0  0  0  0  0  0  0  0  0
  -11.4632  -16.8944   23.7341 N   0  0  0  0  0  0  0  0  0  0  0  0
   -7.9828  -15.3936   24.9252 O   0  0  0  0  0  0  0  0  0  0  0  0
   -3.6540   -8.2348   20.3901 O   0  5  0  0  0  0  0  0  0  0  0  0
   -7.5607   -8.9705   18.1799 O   0  0  0  0  0  0  0  0  0  0  0  0
   -5.0762  -10.2959   20.9682 O   0  0  0  0  0  0  0  0  0  0  0  0
   -5.0585   -9.3315   18.5696 O   0  0  0  0  0  0  0  0  0  0  0  0
   -6.1619  -10.2463   16.4169 O   0  5  0  0  0  0  0  0  0  0  0  0
   -6.2313   -8.0524   20.4684 O   0  0  0  0  0  0  0  0  0  0  0  0
   -6.6646  -11.3162   18.6953 O   0  0  0  0  0  0  0  0  0  0  0  0
   -7.4548  -11.7686   24.0433 S   0  0  0  0  0  0  0  0  0  0  0  0
   -5.0842   -8.9239   20.1250 P   0  0  2  0  0  0  0  0  0  0  0  0
   -6.3475   -9.9790   17.8607 P   0  0  2  0  0  0  0  0  0  0  0  0
  2 16  2  0  0  0  0
  2  3  1  0  0  0  0
  2 13  1  0  0  0  0
  3  8  2  0  0  0  0
  3  4  1  0  0  0  0
  4 14  1  0  0  0  0
  5  1  1  6  0  0  0
  5 14  1  0  0  0  0
  5 10  1  0  0  0  0
  6  7  1  0  0  0  0
  7 13  1  0  0  0  0
  7 15  2  0  0  0  0
  8 15  1  0  0  0  0
  9 14  1  0  0  0  0
  9 24  1  0  0  0  0
 10 24  1  0  0  0  0
 10 11  1  1  0  0  0
 11 12  1  0  0  0  0
 12 19  1  0  0  0  0
 17 25  1  0  0  0  0
 19 25  1  0  0  0  0
 20 26  1  0  0  0  0
 21 26  1  0  0  0  0
 22 25  2  0  0  0  0
 23 26  2  0  0  0  0
 25 20  1  6  0  0  0
 26 18  1  1  0  0  0
M  CHG  2  17  -1  21  -1
M  END
>  <CHROM.1>
-38.62552436,119.33686162,-75.37263324,137.18094288,-175.96929167,-176.28408205
57.59924815,52.82976018,-7.24388816,-12.33716828,21.72738545,2.28436987,0.79377036
1.92670564

>  <Name>
ligand

>  <RI>
0

>  <Rbt.Current_Directory>
/home/itssahil/PROJECTS/Mol_Feturizer/New_Systems/rnas/3D2X

>  <Rbt.Executable>
rbdock ($Id: //depot/dev/client3/rdock/2013.1/src/exe/rbdock.cxx#4 $)

>  <Rbt.Library>
libRbt.so (2013.1, Build901 2013/11/27)

>  <Rbt.Parameter_File>
/export/apps/rDock/src/rDock_2013.1_src/data/scripts/dock_solv.prm

>  <Rbt.Receptor>
prm/pocket_docking_4.prm

>  <SCORE>
-15.2027

>  <SCORE.INTER>
-13.2284

>  <SCORE.INTER.CONST>
1

>  <SCORE.INTER.POLAR>
0

>  <SCORE.INTER.ROT>
8

>  <SCORE.INTER.SOLV>
14.7454

>  <SCORE.INTER.VDW>
-22.6674

>  <SCORE.INTER.norm>
-0.508785

>  <SCORE.INTRA>
-1.97429

>  <SCORE.INTRA.DIHEDRAL>
-1.61338

>  <SCORE.INTRA.DIHEDRAL.0>
7.88077

>  <SCORE.INTRA.POLAR>
0

>  <SCORE.INTRA.POLAR.0>
0

>  <SCORE.INTRA.REPUL>
0

>  <SCORE.INTRA.REPUL.0>
0

>  <SCORE.INTRA.SOLV>
-1.15442

>  <SCORE.INTRA.SOLV.lig_0>
-63.2542

>  <SCORE.INTRA.VDW>
-0.590388

>  <SCORE.INTRA.VDW.0>
-3.15072

>  <SCORE.INTRA.norm>
-0.0759342

>  <SCORE.RESTR>
0

>  <SCORE.RESTR.CAVITY>
0

>  <SCORE.RESTR.norm>
0

>  <SCORE.SYSTEM>
0

>  <SCORE.SYSTEM.CONST>
0

>  <SCORE.SYSTEM.DIHEDRAL>
0

>  <SCORE.SYSTEM.SOLV>
0

>  <SCORE.SYSTEM.norm>
0

>  <SCORE.heavy>
26

>  <SCORE.norm>
-0.584719

>  <RMSD>
3.529

$$$$
ligand
 OpenBabel11021811473D
libRbt.so/2013.1/901 2013/11/27
 26 27  0  0  0  0  0  0  0  0999 V2000
   -6.7436  -13.4423   26.4283 C   0  0  0  0  0  0  0  0  0  0  0  0
   -9.6941  -16.7393   26.6604 C   0  0  0  0  0  0  0  0  0  0  0  0
   -9.1220  -16.4675   25.4220 C   0  0  0  0  0  0  0  0  0  0  0  0
   -7.6850  -15.9693   25.2505 C   0  0  0  0  0  0  0  0  0  0  0  0
   -7.2279  -13.5676   24.9807 C   0  0  1  0  0  0  0  0  0  0  0  0
  -13.1437  -17.9562   25.5869 C   0  0  0  0  0  0  0  0  0  0  0  0
  -11.7141  -17.4151   25.5351 C   0  0  0  0  0  0  0  0  0  0  0  0
   -9.8942  -16.6838   24.2851 C   0  0  0  0  0  0  0  0  0  0  0  0
   -8.0225  -14.7210   23.1859 C   0  0  0  0  0  0  0  0  0  0  0  0
   -7.2458  -12.4832   24.1116 C   0  0  2  0  0  0  0  0  0  0  0  0
   -6.8287  -11.0249   24.3182 C   0  0  0  0  0  0  0  0  0  0  0  0
   -7.1826  -10.1294   23.1286 C   0  0  0  0  0  0  0  0  0  0  0  0
  -11.0038  -17.2191   26.7269 N   0  0  0  0  0  0  0  0  0  0  0  0
   -7.6459  -14.7271   24.4654 N   0  0  0  0  0  0  0  0  0  0  0  0
  -11.1313  -17.1382   24.3598 N   0  0  0  0  0  0  0  0  0  0  0  0
   -9.0512  -16.5625   27.6953 O   0  0  0  0  0  0  0  0  0  0  0  0
   -8.0292   -9.3183   20.3077 O   0  5  0  0  0  0  0  0  0  0  0  0
   -4.1688   -8.8512   22.7834 O   0  0  0  0  0  0  0  0  0  0  0  0
   -6.4419  -10.4862   21.9573 O   0  0  0  0  0  0  0  0  0  0  0  0
   -5.9009   -8.1285   21.0453 O   0  0  0  0  0  0  0  0  0  0  0  0
   -3.4017   -8.2405   20.3895 O   0  5  0  0  0  0  0  0  0  0  0  0
   -5.7287  -10.1812   19.5047 O   0  0  0  0  0  0  0  0  0  0  0  0
   -4.2505   -6.4170   21.9840 O   0  0  0  0  0  0  0  0  0  0  0  0
   -7.9070  -13.0777   22.6141 S   0  0  0  0  0  0  0  0  0  0  0  0
   -6.4732   -9.5731   20.6313 P   0  0  2  0  0  0  0  0  0  0  0  0
   -4.3633   -7.9372   21.4729 P   0  0  2  0  0  0  0  0  0  0  0  0
  2 16  2  0  0  0  0
  2  3  1  0  0  0  0
  2 13  1  0  0  0  0
  3  8  2  0  0  0  0
  3  4  1  0  0  0  0
  4 14  1  0  0  0  0
  5  1  1  6  0  0  0
  5 14  1  0  0  0  0
  5 10  1  0  0  0  0
  6  7  1  0  0  0  0
  7 13  1  0  0  0  0
  7 15  2  0  0  0  0
  8 15  1  0  0  0  0
  9 14  1  0  0  0  0
  9 24  1  0  0  0  0
 10 24  1  0  0  0  0
 10 11  1  1  0  0  0
 11 12  1  0  0  0  0
 12 19  1  0  0  0  0
 17 25  1  0  0  0  0
 19 25  1  0  0  0  0
 20 26  1  0  0  0  0
 21 26  1  0  0  0  0
 22 25  2  0  0  0  0
 23 26  2  0  0  0  0
 25 20  1  1  0  0  0
 26 18  1  1  0  0  0
M  CHG  2  17  -1  21  -1
M  END
>  <CHROM.1>
-125.60200432,-172.89984676,-65.74457510,115.58946065,-171.25223824,179.08880974
-50.77598667,-61.51613788,-7.41674302,-12.35209742,23.29987690,-2.24930173
-0.71148157,-0.98601947

>  <Name>
ligand

>  <RI>
0

>  <Rbt.Current_Directory>
/home/itssahil/PROJECTS/Mol_Feturizer/New_Systems/rnas/3D2X

>  <Rbt.Executable>
rbdock ($Id: //depot/dev/client3/rdock/2013.1/src/exe/rbdock.cxx#4 $)

>  <Rbt.Library>
libRbt.so (2013.1, Build901 2013/11/27)

>  <Rbt.Parameter_File>
/export/apps/rDock/src/rDock_2013.1_src/data/scripts/dock_solv.prm

>  <Rbt.Receptor>
prm/pocket_docking_5.prm

>  <SCORE>
-23.1089

>  <SCORE.INTER>
-20.3145

>  <SCORE.INTER.CONST>
1

>  <SCORE.INTER.POLAR>
0

>  <SCORE.INTER.ROT>
8

>  <SCORE.INTER.SOLV>
13.7855

>  <SCORE.INTER.VDW>
-27.0715

>  <SCORE.INTER.norm>
-0.781327

>  <SCORE.INTRA>
-2.79435

>  <SCORE.INTRA.DIHEDRAL>
-2.66862

>  <SCORE.INTRA.DIHEDRAL.0>
7.88077

>  <SCORE.INTRA.POLAR>
0

>  <SCORE.INTRA.POLAR.0>
0

>  <SCORE.INTRA.REPUL>
0

>  <SCORE.INTRA.REPUL.0>
0

>  <SCORE.INTRA.SOLV>
-2.69741

>  <SCORE.INTRA.SOLV.lig_0>
-63.2542

>  <SCORE.INTRA.VDW>
-0.111342

>  <SCORE.INTRA.VDW.0>
-3.15072

>  <SCORE.INTRA.norm>
-0.107475

>  <SCORE.RESTR>
0

>  <SCORE.RESTR.CAVITY>
0

>  <SCORE.RESTR.norm>
0

>  <SCORE.SYSTEM>
0

>  <SCORE.SYSTEM.CONST>
0

>  <SCORE.SYSTEM.DIHEDRAL>
0

>  <SCORE.SYSTEM.SOLV>
0

>  <SCORE.SYSTEM.norm>
0

>  <SCORE.heavy>
26

>  <SCORE.norm>
-0.888803

>  <RMSD>
3.542

$$$$
ligand
 OpenBabel11021811473D
libRbt.so/2013.1/901 2013/11/27
 26 27  0  0  0  0  0  0  0  0999 V2000
   -6.5162  -14.5477   26.7890 C   0  0  0  0  0  0  0  0  0  0  0  0
  -10.1017  -16.8939   26.4752 C   0  0  0  0  0  0  0  0  0  0  0  0
   -9.4766  -16.8134   25.2352 C   0  0  0  0  0  0  0  0  0  0  0  0
   -8.0160  -16.3928   25.0554 C   0  0  0  0  0  0  0  0  0  0  0  0
   -7.2422  -14.1038   25.5156 C   0  0  1  0  0  0  0  0  0  0  0  0
  -13.5571  -18.1267   25.4393 C   0  0  0  0  0  0  0  0  0  0  0  0
  -12.1064  -17.6472   25.3719 C   0  0  0  0  0  0  0  0  0  0  0  0
  -10.2167  -17.1560   24.1081 C   0  0  0  0  0  0  0  0  0  0  0  0
   -8.4862  -14.4642   23.6433 C   0  0  0  0  0  0  0  0  0  0  0  0
   -7.2326  -12.7833   25.0824 C   0  0  2  0  0  0  0  0  0  0  0  0
   -6.5669  -11.5382   25.6738 C   0  0  0  0  0  0  0  0  0  0  0  0
   -5.3624  -11.0620   24.8585 C   0  0  0  0  0  0  0  0  0  0  0  0
  -11.4308  -17.3149   26.5537 N   0  0  0  0  0  0  0  0  0  0  0  0
   -7.9127  -14.9607   24.7404 N   0  0  0  0  0  0  0  0  0  0  0  0
  -11.4726  -17.5533   24.1941 N   0  0  0  0  0  0  0  0  0  0  0  0
   -9.4887  -16.5998   27.5016 O   0  0  0  0  0  0  0  0  0  0  0  0
   -3.5574  -11.7325   22.3526 O   0  5  0  0  0  0  0  0  0  0  0  0
   -7.5926   -9.6274   21.6623 O   0  0  0  0  0  0  0  0  0  0  0  0
   -5.6979  -10.8669   23.4811 O   0  0  0  0  0  0  0  0  0  0  0  0
   -5.3005  -10.5130   20.9513 O   0  0  0  0  0  0  0  0  0  0  0  0
   -5.9160   -8.0437   20.4905 O   0  5  0  0  0  0  0  0  0  0  0  0
   -3.9191   -9.1933   22.6737 O   0  0  0  0  0  0  0  0  0  0  0  0
   -7.0477   -9.9362   19.1766 O   0  0  0  0  0  0  0  0  0  0  0  0
   -8.2119  -12.7421   23.6427 S   0  0  0  0  0  0  0  0  0  0  0  0
   -4.5780  -10.4884   22.3876 P   0  0  2  0  0  0  0  0  0  0  0  0
   -6.4262   -9.4307   20.5707 P   0  0  2  0  0  0  0  0  0  0  0  0
  2 16  2  0  0  0  0
  2  3  1  0  0  0  0
  2 13  1  0  0  0  0
  3  8  2  0  0  0  0
  3  4  1  0  0  0  0
  4 14  1  0  0  0  0
  5  1  1  6  0  0  0
  5 14  1  0  0  0  0
  5 10  1  0  0  0  0
  6  7  1  0  0  0  0
  7 13  1  0  0  0  0
  7 15  2  0  0  0  0
  8 15  1  0  0  0  0
  9 14  1  0  0  0  0
  9 24  1  0  0  0  0
 10 24  1  0  0  0  0
 10 11  1  1  0  0  0
 11 12  1  0  0  0  0
 12 19  1  0  0  0  0
 17 25  1  0  0  0  0
 19 25  1  0  0  0  0
 20 26  1  0  0  0  0
 21 26  1  0  0  0  0
 22 25  2  0  0  0  0
 23 26  2  0  0  0  0
 25 20  1  6  0  0  0
 26 18  1  1  0  0  0
M  CHG  2  17  -1  21  -1
M  END
>  <CHROM.1>
-95.98318102,107.73400778,53.62227088,120.02445707,-174.72849994,179.25279659
62.67956798,-59.85742881,-7.54945855,-13.00493538,23.67885923,-2.23840385
-0.55195392,-0.91140138

>  <Name>
ligand

>  <RI>
0

>  <Rbt.Current_Directory>
/home/itssahil/PROJECTS/Mol_Feturizer/New_Systems/rnas/3D2X

>  <Rbt.Executable>
rbdock ($Id: //depot/dev/client3/rdock/2013.1/src/exe/rbdock.cxx#4 $)

>  <Rbt.Library>
libRbt.so (2013.1, Build901 2013/11/27)

>  <Rbt.Parameter_File>
/export/apps/rDock/src/rDock_2013.1_src/data/scripts/dock_solv.prm

>  <Rbt.Receptor>
prm/pocket_docking_5.prm

>  <SCORE>
-24.4119

>  <SCORE.INTER>
-20.7087

>  <SCORE.INTER.CONST>
1

>  <SCORE.INTER.POLAR>
0

>  <SCORE.INTER.ROT>
8

>  <SCORE.INTER.SOLV>
12.7271

>  <SCORE.INTER.VDW>
-26.9815

>  <SCORE.INTER.norm>
-0.79649

>  <SCORE.INTRA>
-3.7031

>  <SCORE.INTRA.DIHEDRAL>
-2.28997

>  <SCORE.INTRA.DIHEDRAL.0>
7.88077

>  <SCORE.INTRA.POLAR>
0

>  <SCORE.INTRA.POLAR.0>
0

>  <SCORE.INTRA.REPUL>
0

>  <SCORE.INTRA.REPUL.0>
0

>  <SCORE.INTRA.SOLV>
-2.51945

>  <SCORE.INTRA.SOLV.lig_0>
-63.2542

>  <SCORE.INTRA.VDW>
-1.29839

>  <SCORE.INTRA.VDW.0>
-3.15072

>  <SCORE.INTRA.norm>
-0.142427

>  <SCORE.RESTR>
0

>  <SCORE.RESTR.CAVITY>
0

>  <SCORE.RESTR.norm>
0

>  <SCORE.SYSTEM>
0

>  <SCORE.SYSTEM.CONST>
0

>  <SCORE.SYSTEM.DIHEDRAL>
0

>  <SCORE.SYSTEM.SOLV>
0

>  <SCORE.SYSTEM.norm>
0

>  <SCORE.heavy>
26

>  <SCORE.norm>
-0.938917

>  <RMSD>
3.544

$$$$
ligand
 OpenBabel11021811473D
libRbt.so/2013.1/901 2013/11/27
 26 27  0  0  0  0  0  0  0  0999 V2000
   -6.6363  -17.2927   22.5255 C   0  0  0  0  0  0  0  0  0  0  0  0
  -10.3641  -16.5864   25.7527 C   0  0  0  0  0  0  0  0  0  0  0  0
  -10.1790  -16.4617   24.3798 C   0  0  0  0  0  0  0  0  0  0  0  0
   -8.9092  -15.8823   23.7516 C   0  0  0  0  0  0  0  0  0  0  0  0
   -7.8402  -16.7831   21.7277 C   0  0  1  0  0  0  0  0  0  0  0  0
  -13.8053  -18.2239   25.8500 C   0  0  0  0  0  0  0  0  0  0  0  0
  -12.5158  -17.5848   25.3324 C   0  0  0  0  0  0  0  0  0  0  0  0
  -11.1947  -16.9095   23.5413 C   0  0  0  0  0  0  0  0  0  0  0  0
   -9.8689  -15.7720   21.5151 C   0  0  0  0  0  0  0  0  0  0  0  0
   -7.9459  -16.9642   20.3539 C   0  0  2  0  0  0  0  0  0  0  0  0
   -7.0084  -17.6508   19.3574 C   0  0  0  0  0  0  0  0  0  0  0  0
   -5.7372  -16.8442   19.0819 C   0  0  0  0  0  0  0  0  0  0  0  0
  -11.5422  -17.1534   26.2431 N   0  0  0  0  0  0  0  0  0  0  0  0
   -8.8642  -16.1499   22.3068 N   0  0  0  0  0  0  0  0  0  0  0  0
  -12.3043  -17.4446   24.0159 N   0  0  0  0  0  0  0  0  0  0  0  0
   -9.4944  -16.2033   26.5355 O   0  0  0  0  0  0  0  0  0  0  0  0
   -4.0745  -15.6258   16.7148 O   0  5  0  0  0  0  0  0  0  0  0  0
   -0.3279  -16.2559   18.0241 O   0  0  0  0  0  0  0  0  0  0  0  0
   -4.8307  -17.5559   18.2338 O   0  0  0  0  0  0  0  0  0  0  0  0
   -2.7525  -16.1389   18.8310 O   0  0  0  0  0  0  0  0  0  0  0  0
   -1.6873  -14.0818   17.6811 O   0  5  0  0  0  0  0  0  0  0  0  0
   -2.6683  -17.7899   16.8603 O   0  0  0  0  0  0  0  0  0  0  0  0
   -0.9451  -14.7896   20.0341 O   0  0  0  0  0  0  0  0  0  0  0  0
   -9.4331  -16.1918   19.8797 S   0  0  0  0  0  0  0  0  0  0  0  0
   -3.5267  -16.8451   17.6113 P   0  0  2  0  0  0  0  0  0  0  0  0
   -1.4468  -15.2377   18.5736 P   0  0  2  0  0  0  0  0  0  0  0  0
  2 16  2  0  0  0  0
  2  3  1  0  0  0  0
  2 13  1  0  0  0  0
  3  8  2  0  0  0  0
  3  4  1  0  0  0  0
  4 14  1  0  0  0  0
  5  1  1  1  0  0  0
  5 14  1  0  0  0  0
  5 10  1  0  0  0  0
  6  7  1  0  0  0  0
  7 13  1  0  0  0  0
  7 15  2  0  0  0  0
  8 15  1  0  0  0  0
  9 14  1  0  0  0  0
  9 24  1  0  0  0  0
 10 24  1  0  0  0  0
 10 11  1  6  0  0  0
 11 12  1  0  0  0  0
 12 19  1  0  0  0  0
 17 25  1  0  0  0  0
 19 25  1  0  0  0  0
 20 26  1  0  0  0  0
 21 26  1  0  0  0  0
 22 25  2  0  0  0  0
 23 26  2  0  0  0  0
 25 20  1  1  0  0  0
 26 18  1  6  0  0  0
M  CHG  2  17  -1  21  -1
M  END
>  <CHROM.1>
167.17859262,-72.50047912,175.27594860,-124.08539693,170.53020449,-63.60745290
-60.36030167,-65.79607976,-6.64809324,-16.47893669,20.87745491,-2.53992059
-0.24284848,-1.75299584

>  <Name>
ligand

>  <RI>
0

>  <Rbt.Current_Directory>
/home/itssahil/PROJECTS/Mol_Feturizer/New_Systems/rnas/3D2X

>  <Rbt.Executable>
rbdock ($Id: //depot/dev/client3/rdock/2013.1/src/exe/rbdock.cxx#4 $)

>  <Rbt.Library>
libRbt.so (2013.1, Build901 2013/11/27)

>  <Rbt.Parameter_File>
/export/apps/rDock/src/rDock_2013.1_src/data/scripts/dock_solv.prm

>  <Rbt.Receptor>
prm/pocket_docking_7.prm

>  <SCORE>
-28.2153

>  <SCORE.INTER>
-27.4082

>  <SCORE.INTER.CONST>
1

>  <SCORE.INTER.POLAR>
0

>  <SCORE.INTER.ROT>
8

>  <SCORE.INTER.SOLV>
14.0841

>  <SCORE.INTER.VDW>
-31.9002

>  <SCORE.INTER.norm>
-1.05416

>  <SCORE.INTRA>
-0.807112

>  <SCORE.INTRA.DIHEDRAL>
-2.64781

>  <SCORE.INTRA.DIHEDRAL.0>
7.88077

>  <SCORE.INTRA.POLAR>
0

>  <SCORE.INTRA.POLAR.0>
0

>  <SCORE.INTRA.REPUL>
0

>  <SCORE.INTRA.REPUL.0>
0

>  <SCORE.INTRA.SOLV>
-1.38772

>  <SCORE.INTRA.SOLV.lig_0>
-63.2542

>  <SCORE.INTRA.VDW>
1.21065

>  <SCORE.INTRA.VDW.0>
-3.15072

>  <SCORE.INTRA.norm>
-0.0310428

>  <SCORE.RESTR>
0

>  <SCORE.RESTR.CAVITY>
0

>  <SCORE.RESTR.norm>
0

>  <SCORE.SYSTEM>
0

>  <SCORE.SYSTEM.CONST>
0

>  <SCORE.SYSTEM.DIHEDRAL>
0

>  <SCORE.SYSTEM.SOLV>
0

>  <SCORE.SYSTEM.norm>
0

>  <SCORE.heavy>
26

>  <SCORE.norm>
-1.08521

>  <RMSD>
3.548

$$$$
ligand
 OpenBabel11021811473D
libRbt.so/2013.1/901 2013/11/27
 26 27  0  0  0  0  0  0  0  0999 V2000
   -7.0422  -14.0329   25.6830 C   0  0  0  0  0  0  0  0  0  0  0  0
  -10.3045  -16.7619   26.3799 C   0  0  0  0  0  0  0  0  0  0  0  0
   -9.6858  -16.9595   25.1499 C   0  0  0  0  0  0  0  0  0  0  0  0
   -8.2216  -16.6060   24.8785 C   0  0  0  0  0  0  0  0  0  0  0  0
   -7.5880  -14.3063   24.2784 C   0  0  1  0  0  0  0  0  0  0  0  0
  -13.7798  -18.1467   25.6471 C   0  0  0  0  0  0  0  0  0  0  0  0
  -12.3241  -17.7112   25.4727 C   0  0  0  0  0  0  0  0  0  0  0  0
  -10.4364  -17.5288   24.1262 C   0  0  0  0  0  0  0  0  0  0  0  0
   -8.5364  -15.6153   22.6752 C   0  0  0  0  0  0  0  0  0  0  0  0
   -7.5531  -13.3474   23.2731 C   0  0  2  0  0  0  0  0  0  0  0  0
   -7.0158  -11.9139   23.2721 C   0  0  0  0  0  0  0  0  0  0  0  0
   -6.7701  -11.3704   21.8627 C   0  0  0  0  0  0  0  0  0  0  0  0
  -11.6378  -17.1394   26.5522 N   0  0  0  0  0  0  0  0  0  0  0  0
   -8.1143  -15.4848   23.9337 N   0  0  0  0  0  0  0  0  0  0  0  0
  -11.6963  -17.8824   24.3004 N   0  0  0  0  0  0  0  0  0  0  0  0
   -9.6821  -16.2602   27.3163 O   0  0  0  0  0  0  0  0  0  0  0  0
   -7.6167   -9.1631   19.7083 O   0  5  0  0  0  0  0  0  0  0  0  0
   -3.5167   -7.9347   21.4042 O   0  0  0  0  0  0  0  0  0  0  0  0
   -6.4944   -9.9663   21.8762 O   0  0  0  0  0  0  0  0  0  0  0  0
   -6.0093   -7.6098   20.9301 O   0  0  0  0  0  0  0  0  0  0  0  0
   -4.6667   -5.7143   22.0673 O   0  5  0  0  0  0  0  0  0  0  0  0
   -5.0875   -9.6955   19.7398 O   0  0  0  0  0  0  0  0  0  0  0  0
   -5.1974   -7.8799   23.3389 O   0  0  0  0  0  0  0  0  0  0  0  0
   -8.3139  -14.0762   21.8862 S   0  0  0  0  0  0  0  0  0  0  0  0
   -6.2243   -9.1485   20.5155 P   0  0  2  0  0  0  0  0  0  0  0  0
   -4.8338   -7.1792   21.9382 P   0  0  2  0  0  0  0  0  0  0  0  0
  2 16  2  0  0  0  0
  2  3  1  0  0  0  0
  2 13  1  0  0  0  0
  3  8  2  0  0  0  0
  3  4  1  0  0  0  0
  4 14  1  0  0  0  0
  5  1  1  6  0  0  0
  5 14  1  0  0  0  0
  5 10  1  0  0  0  0
  6  7  1  0  0  0  0
  7 13  1  0  0  0  0
  7 15  2  0  0  0  0
  8 15  1  0  0  0  0
  9 14  1  0  0  0  0
  9 24  1  0  0  0  0
 10 24  1  0  0  0  0
 10 11  1  1  0  0  0
 11 12  1  0  0  0  0
 12 19  1  0  0  0  0
 17 25  1  0  0  0  0
 19 25  1  0  0  0  0
 20 26  1  0  0  0  0
 21 26  1  0  0  0  0
 22 25  2  0  0  0  0
 23 26  2  0  0  0  0
 25 20  1  1  0  0  0
 26 18  1  6  0  0  0
M  CHG  2  17  -1  21  -1
M  END
>  <CHROM.1>
-112.20744028,161.57727820,169.85158245,115.73365057,-178.98420847,171.15664761
66.76024922,47.15772530,-7.71317632,-12.47666316,23.07692828,-2.52153358
-0.93975487,-1.26020028

>  <Name>
ligand

>  <RI>
0

>  <Rbt.Current_Directory>
/home/itssahil/PROJECTS/Mol_Feturizer/New_Systems/rnas/3D2X

>  <Rbt.Executable>
rbdock ($Id: //depot/dev/client3/rdock/2013.1/src/exe/rbdock.cxx#4 $)

>  <Rbt.Library>
libRbt.so (2013.1, Build901 2013/11/27)

>  <Rbt.Parameter_File>
/export/apps/rDock/src/rDock_2013.1_src/data/scripts/dock_solv.prm

>  <Rbt.Receptor>
prm/pocket_docking_7.prm

>  <SCORE>
-22.7056

>  <SCORE.INTER>
-20.6889

>  <SCORE.INTER.CONST>
1

>  <SCORE.INTER.POLAR>
0

>  <SCORE.INTER.ROT>
8

>  <SCORE.INTER.SOLV>
15.427

>  <SCORE.INTER.VDW>
-27.8683

>  <SCORE.INTER.norm>
-0.795728

>  <SCORE.INTRA>
-2.01664

>  <SCORE.INTRA.DIHEDRAL>
-2.61595

>  <SCORE.INTRA.DIHEDRAL.0>
7.88077

>  <SCORE.INTRA.POLAR>
0

>  <SCORE.INTRA.POLAR.0>
0

>  <SCORE.INTRA.REPUL>
0

>  <SCORE.INTRA.REPUL.0>
0

>  <SCORE.INTRA.SOLV>
-1.72366

>  <SCORE.INTRA.SOLV.lig_0>
-63.2542

>  <SCORE.INTRA.VDW>
0.153159

>  <SCORE.INTRA.VDW.0>
-3.15072

>  <SCORE.INTRA.norm>
-0.0775633

>  <SCORE.RESTR>
0

>  <SCORE.RESTR.CAVITY>
0

>  <SCORE.RESTR.norm>
0

>  <SCORE.SYSTEM>
0

>  <SCORE.SYSTEM.CONST>
0

>  <SCORE.SYSTEM.DIHEDRAL>
0

>  <SCORE.SYSTEM.SOLV>
0

>  <SCORE.SYSTEM.norm>
0

>  <SCORE.heavy>
26

>  <SCORE.norm>
-0.873291

>  <RMSD>
3.550

$$$$
ligand
 OpenBabel11021811473D
libRbt.so/2013.1/901 2013/11/27
 26 27  0  0  0  0  0  0  0  0999 V2000
   -6.8276  -17.4676   23.0107 C   0  0  0  0  0  0  0  0  0  0  0  0
   -8.9885  -16.3113   25.9193 C   0  0  0  0  0  0  0  0  0  0  0  0
   -8.8727  -15.9664   24.5768 C   0  0  0  0  0  0  0  0  0  0  0  0
   -9.6287  -16.6838   23.4558 C   0  0  0  0  0  0  0  0  0  0  0  0
   -7.7010  -16.8170   21.9339 C   0  0  1  0  0  0  0  0  0  0  0  0
   -6.7090  -13.7038   27.5121 C   0  0  0  0  0  0  0  0  0  0  0  0
   -7.4736  -14.5210   26.4696 C   0  0  0  0  0  0  0  0  0  0  0  0
   -8.0431  -14.8995   24.2466 C   0  0  0  0  0  0  0  0  0  0  0  0
   -9.6433  -15.9362   21.1373 C   0  0  0  0  0  0  0  0  0  0  0  0
   -7.2254  -16.5590   20.6538 C   0  0  2  0  0  0  0  0  0  0  0  0
   -5.8582  -16.8254   20.0189 C   0  0  0  0  0  0  0  0  0  0  0  0
   -5.9064  -16.8528   18.4894 C   0  0  0  0  0  0  0  0  0  0  0  0
   -8.2853  -15.5857   26.8830 N   0  0  0  0  0  0  0  0  0  0  0  0
   -8.9728  -16.4744   22.1570 N   0  0  0  0  0  0  0  0  0  0  0  0
   -7.3832  -14.2201   25.1662 N   0  0  0  0  0  0  0  0  0  0  0  0
   -9.7095  -17.2490   26.2611 O   0  0  0  0  0  0  0  0  0  0  0  0
   -3.8255  -14.6627   19.5648 O   0  5  0  0  0  0  0  0  0  0  0  0
   -1.8168  -12.8896   18.6362 O   0  0  0  0  0  0  0  0  0  0  0  0
   -4.6626  -16.4438   17.9121 O   0  0  0  0  0  0  0  0  0  0  0  0
   -2.7191  -14.8610   17.2787 O   0  0  0  0  0  0  0  0  0  0  0  0
   -0.6036  -13.6131   16.4690 O   0  5  0  0  0  0  0  0  0  0  0  0
   -5.1215  -13.9565   17.4427 O   0  0  0  0  0  0  0  0  0  0  0  0
   -2.9068  -12.4863   16.3513 O   0  0  0  0  0  0  0  0  0  0  0  0
   -8.5316  -15.7826   19.8026 S   0  0  0  0  0  0  0  0  0  0  0  0
   -4.1503  -14.9202   18.0096 P   0  0  2  0  0  0  0  0  0  0  0  0
   -1.9153  -13.4760   17.1405 P   0  0  2  0  0  0  0  0  0  0  0  0
  2 16  2  0  0  0  0
  2  3  1  0  0  0  0
  2 13  1  0  0  0  0
  3  8  2  0  0  0  0
  3  4  1  0  0  0  0
  4 14  1  0  0  0  0
  5  1  1  6  0  0  0
  5 14  1  0  0  0  0
  5 10  1  0  0  0  0
  6  7  1  0  0  0  0
  7 13  1  0  0  0  0
  7 15  2  0  0  0  0
  8 15  1  0  0  0  0
  9 14  1  0  0  0  0
  9 24  1  0  0  0  0
 10 24  1  0  0  0  0
 10 11  1  1  0  0  0
 11 12  1  0  0  0  0
 12 19  1  0  0  0  0
 17 25  1  0  0  0  0
 19 25  1  0  0  0  0
 20 26  1  0  0  0  0
 21 26  1  0  0  0  0
 22 25  2  0  0  0  0
 23 26  2  0  0  0  0
 25 20  1  6  0  0  0
 26 18  1  1  0  0  0
M  CHG  2  17  -1  21  -1
M  END
>  <CHROM.1>
-158.94995562,159.38770416,151.18876626,57.72993362,-69.19785944,-69.77153559
67.63911280,53.53739902,-5.96780052,-15.23070650,20.87177899,2.33749294,0.56449805
1.32657397

>  <Name>
ligand

>  <RI>
0

>  <Rbt.Current_Directory>
/home/itssahil/PROJECTS/Mol_Feturizer/New_Systems/rnas/3D2X

>  <Rbt.Executable>
rbdock ($Id: //depot/dev/client3/rdock/2013.1/src/exe/rbdock.cxx#4 $)

>  <Rbt.Library>
libRbt.so (2013.1, Build901 2013/11/27)

>  <Rbt.Parameter_File>
/export/apps/rDock/src/rDock_2013.1_src/data/scripts/dock_solv.prm

>  <Rbt.Receptor>
prm/pocket_docking_5.prm

>  <SCORE>
-13.0859

>  <SCORE.INTER>
-14.5803

>  <SCORE.INTER.CONST>
1

>  <SCORE.INTER.POLAR>
0

>  <SCORE.INTER.ROT>
8

>  <SCORE.INTER.SOLV>
13.2318

>  <SCORE.INTER.VDW>
-23.0642

>  <SCORE.INTER.norm>
-0.560783

>  <SCORE.INTRA>
1.49446

>  <SCORE.INTRA.DIHEDRAL>
-0.13067

>  <SCORE.INTRA.DIHEDRAL.0>
7.88077

>  <SCORE.INTRA.POLAR>
0

>  <SCORE.INTRA.POLAR.0>
0

>  <SCORE.INTRA.REPUL>
0

>  <SCORE.INTRA.REPUL.0>
0

>  <SCORE.INTRA.SOLV>
0.378044

>  <SCORE.INTRA.SOLV.lig_0>
-63.2542

>  <SCORE.INTRA.VDW>
1.37077

>  <SCORE.INTRA.VDW.0>
-3.15072

>  <SCORE.INTRA.norm>
0.0574792

>  <SCORE.RESTR>
0

>  <SCORE.RESTR.CAVITY>
0

>  <SCORE.RESTR.norm>
0

>  <SCORE.SYSTEM>
0

>  <SCORE.SYSTEM.CONST>
0

>  <SCORE.SYSTEM.DIHEDRAL>
0

>  <SCORE.SYSTEM.SOLV>
0

>  <SCORE.SYSTEM.norm>
0

>  <SCORE.heavy>
26

>  <SCORE.norm>
-0.503303

>  <RMSD>
3.552

$$$$
ligand
 OpenBabel11021811473D
libRbt.so/2013.1/901 2013/11/27
 26 27  0  0  0  0  0  0  0  0999 V2000
   -6.3620  -17.0707   23.2292 C   0  0  0  0  0  0  0  0  0  0  0  0
  -10.3285  -17.3068   24.2199 C   0  0  0  0  0  0  0  0  0  0  0  0
   -9.6878  -16.8310   25.3592 C   0  0  0  0  0  0  0  0  0  0  0  0
   -8.2458  -16.3181   25.3609 C   0  0  0  0  0  0  0  0  0  0  0  0
   -7.1424  -15.7528   23.2364 C   0  0  1  0  0  0  0  0  0  0  0  0
  -13.7759  -18.1067   25.6369 C   0  0  0  0  0  0  0  0  0  0  0  0
  -12.3155  -17.6642   25.5341 C   0  0  0  0  0  0  0  0  0  0  0  0
  -10.4086  -16.8018   26.5488 C   0  0  0  0  0  0  0  0  0  0  0  0
   -8.6381  -14.2702   24.1011 C   0  0  0  0  0  0  0  0  0  0  0  0
   -7.0188  -14.8159   22.2175 C   0  0  2  0  0  0  0  0  0  0  0  0
   -6.1760  -14.8286   20.9397 C   0  0  0  0  0  0  0  0  0  0  0  0
   -5.1013  -13.7391   20.9235 C   0  0  0  0  0  0  0  0  0  0  0  0
  -11.6569  -17.7296   24.2991 N   0  0  0  0  0  0  0  0  0  0  0  0
   -7.9971  -15.4345   24.2126 N   0  0  0  0  0  0  0  0  0  0  0  0
  -11.6645  -17.2036   26.6119 N   0  0  0  0  0  0  0  0  0  0  0  0
   -9.7320  -17.3534   23.1439 O   0  0  0  0  0  0  0  0  0  0  0  0
   -3.8035  -11.7490   23.2915 O   0  5  0  0  0  0  0  0  0  0  0  0
    0.2510  -12.7503   22.1650 O   0  0  0  0  0  0  0  0  0  0  0  0
   -4.1409  -13.9259   21.9678 O   0  0  0  0  0  0  0  0  0  0  0  0
   -1.9423  -13.4879   23.2554 O   0  0  0  0  0  0  0  0  0  0  0  0
    0.1820  -14.9328   23.5522 O   0  5  0  0  0  0  0  0  0  0  0  0
   -2.4724  -12.1636   21.1148 O   0  0  0  0  0  0  0  0  0  0  0  0
   -0.9996  -14.8044   21.2773 O   0  0  0  0  0  0  0  0  0  0  0  0
   -8.0401  -13.4786   22.6670 S   0  0  0  0  0  0  0  0  0  0  0  0
   -3.0531  -12.7929   22.3232 P   0  0  2  0  0  0  0  0  0  0  0  0
   -0.5722  -14.0521   22.6325 P   0  0  2  0  0  0  0  0  0  0  0  0
  2 16  2  0  0  0  0
  2  3  1  0  0  0  0
  2 13  1  0  0  0  0
  3  8  2  0  0  0  0
  3  4  1  0  0  0  0
  4 14  1  0  0  0  0
  5  1  1  6  0  0  0
  5 14  1  0  0  0  0
  5 10  1  0  0  0  0
  6  7  1  0  0  0  0
  7 13  1  0  0  0  0
  7 15  2  0  0  0  0
  8 15  1  0  0  0  0
  9 14  1  0  0  0  0
  9 24  1  0  0  0  0
 10 24  1  0  0  0  0
 10 11  1  1  0  0  0
 11 12  1  0  0  0  0
 12 19  1  0  0  0  0
 17 25  1  0  0  0  0
 19 25  1  0  0  0  0
 20 26  1  0  0  0  0
 21 26  1  0  0  0  0
 22 25  2  0  0  0  0
 23 26  2  0  0  0  0
 25 20  1  1  0  0  0
 26 18  1  6  0  0  0
M  CHG  2  17  -1  21  -1
M  END
>  <CHROM.1>
44.70685479,-115.07585579,63.40352070,-114.70939384,-169.73177858,-151.37998937
82.87097270,68.61964239,-6.03221056,-14.91673097,23.27586346,-2.69862366
-0.01370305,-0.67619688

>  <Name>
ligand

>  <RI>
0

>  <Rbt.Current_Directory>
/home/itssahil/PROJECTS/Mol_Feturizer/New_Systems/rnas/3D2X

>  <Rbt.Executable>
rbdock ($Id: //depot/dev/client3/rdock/2013.1/src/exe/rbdock.cxx#4 $)

>  <Rbt.Library>
libRbt.so (2013.1, Build901 2013/11/27)

>  <Rbt.Parameter_File>
/export/apps/rDock/src/rDock_2013.1_src/data/scripts/dock_solv.prm

>  <Rbt.Receptor>
prm/pocket_docking_6.prm

>  <SCORE>
-22.2113

>  <SCORE.INTER>
-20.6802

>  <SCORE.INTER.CONST>
1

>  <SCORE.INTER.POLAR>
0

>  <SCORE.INTER.ROT>
8

>  <SCORE.INTER.SOLV>
15.0691

>  <SCORE.INTER.VDW>
-27.7432

>  <SCORE.INTER.norm>
-0.795392

>  <SCORE.INTRA>
-1.53107

>  <SCORE.INTRA.DIHEDRAL>
0.0126104

>  <SCORE.INTRA.DIHEDRAL.0>
7.88077

>  <SCORE.INTRA.POLAR>
0

>  <SCORE.INTRA.POLAR.0>
0

>  <SCORE.INTRA.REPUL>
0

>  <SCORE.INTRA.REPUL.0>
0

>  <SCORE.INTRA.SOLV>
-0.831328

>  <SCORE.INTRA.SOLV.lig_0>
-63.2542

>  <SCORE.INTRA.VDW>
-1.12172

>  <SCORE.INTRA.VDW.0>
-3.15072

>  <SCORE.INTRA.norm>
-0.0588875

>  <SCORE.RESTR>
0

>  <SCORE.RESTR.CAVITY>
0

>  <SCORE.RESTR.norm>
0

>  <SCORE.SYSTEM>
0

>  <SCORE.SYSTEM.CONST>
0

>  <SCORE.SYSTEM.DIHEDRAL>
0

>  <SCORE.SYSTEM.SOLV>
0

>  <SCORE.SYSTEM.norm>
0

>  <SCORE.heavy>
26

>  <SCORE.norm>
-0.854279

>  <RMSD>
3.552

$$$$
ligand
 OpenBabel11021811473D
libRbt.so/2013.1/901 2013/11/27
 26 27  0  0  0  0  0  0  0  0999 V2000
   -8.2801  -14.3889   22.9498 C   0  0  0  0  0  0  0  0  0  0  0  0
   -9.7055  -16.4639   26.6675 C   0  0  0  0  0  0  0  0  0  0  0  0
   -9.0287  -16.4842   25.4526 C   0  0  0  0  0  0  0  0  0  0  0  0
   -7.5769  -16.0272   25.2908 C   0  0  0  0  0  0  0  0  0  0  0  0
   -7.7851  -13.7976   24.2731 C   0  0  1  0  0  0  0  0  0  0  0  0
  -13.0663  -17.9285   25.6221 C   0  0  0  0  0  0  0  0  0  0  0  0
  -11.6315  -17.4019   25.5657 C   0  0  0  0  0  0  0  0  0  0  0  0
   -9.7052  -16.9671   24.3369 C   0  0  0  0  0  0  0  0  0  0  0  0
   -7.0786  -13.9339   26.4331 C   0  0  0  0  0  0  0  0  0  0  0  0
   -7.6426  -12.4283   24.4626 C   0  0  2  0  0  0  0  0  0  0  0  0
   -7.9143  -11.2516   23.5219 C   0  0  0  0  0  0  0  0  0  0  0  0
   -6.8736  -11.1274   22.4066 C   0  0  0  0  0  0  0  0  0  0  0  0
  -11.0214  -16.9264   26.7341 N   0  0  0  0  0  0  0  0  0  0  0  0
   -7.4768  -14.5610   25.3253 N   0  0  0  0  0  0  0  0  0  0  0  0
  -10.9492  -17.4024   24.4115 N   0  0  0  0  0  0  0  0  0  0  0  0
   -9.1497  -16.0443   27.6828 O   0  0  0  0  0  0  0  0  0  0  0  0
   -5.1822   -9.2303   20.4856 O   0  5  0  0  0  0  0  0  0  0  0  0
   -7.6362  -13.2933   20.0284 O   0  0  0  0  0  0  0  0  0  0  0  0
   -7.3514  -10.3255   21.3220 O   0  0  0  0  0  0  0  0  0  0  0  0
   -5.8643  -11.5067   19.5680 O   0  0  0  0  0  0  0  0  0  0  0  0
   -7.6242  -12.0587   17.7551 O   0  5  0  0  0  0  0  0  0  0  0  0
   -7.2266   -9.4245   18.9158 O   0  0  0  0  0  0  0  0  0  0  0  0
   -5.7711  -13.7399   18.3275 O   0  0  0  0  0  0  0  0  0  0  0  0
   -7.0179  -12.2282   26.0760 S   0  0  0  0  0  0  0  0  0  0  0  0
   -6.4620  -10.0785   20.0026 P   0  0  2  0  0  0  0  0  0  0  0  0
   -6.7873  -12.6067   18.8457 P   0  0  2  0  0  0  0  0  0  0  0  0
  2 16  2  0  0  0  0
  2  3  1  0  0  0  0
  2 13  1  0  0  0  0
  3  8  2  0  0  0  0
  3  4  1  0  0  0  0
  4 14  1  0  0  0  0
  5  1  1  1  0  0  0
  5 14  1  0  0  0  0
  5 10  1  0  0  0  0
  6  7  1  0  0  0  0
  7 13  1  0  0  0  0
  7 15  2  0  0  0  0
  8 15  1  0  0  0  0
  9 14  1  0  0  0  0
  9 24  1  0  0  0  0
 10 24  1  0  0  0  0
 10 11  1  6  0  0  0
 11 12  1  0  0  0  0
 12 19  1  0  0  0  0
 17 25  1  0  0  0  0
 19 25  1  0  0  0  0
 20 26  1  0  0  0  0
 21 26  1  0  0  0  0
 22 25  2  0  0  0  0
 23 26  2  0  0  0  0
 25 20  1  6  0  0  0
 26 18  1  1  0  0  0
M  CHG  2  17  -1  21  -1
M  END
>  <CHROM.1>
-75.15728973,-72.86768199,161.54371077,-78.43791741,-178.08253700,-172.32694446
-65.43011876,-79.37914592,-7.91660023,-13.38461532,22.82720942,2.33140784
0.98965830,1.58987695

>  <Name>
ligand

>  <RI>
0

>  <Rbt.Current_Directory>
/home/itssahil/PROJECTS/Mol_Feturizer/New_Systems/rnas/3D2X

>  <Rbt.Executable>
rbdock ($Id: //depot/dev/client3/rdock/2013.1/src/exe/rbdock.cxx#4 $)

>  <Rbt.Library>
libRbt.so (2013.1, Build901 2013/11/27)

>  <Rbt.Parameter_File>
/export/apps/rDock/src/rDock_2013.1_src/data/scripts/dock_solv.prm

>  <Rbt.Receptor>
prm/pocket_docking_6.prm

>  <SCORE>
-25.2945

>  <SCORE.INTER>
-22.4

>  <SCORE.INTER.CONST>
1

>  <SCORE.INTER.POLAR>
0

>  <SCORE.INTER.ROT>
8

>  <SCORE.INTER.SOLV>
14.6089

>  <SCORE.INTER.VDW>
-28.7363

>  <SCORE.INTER.norm>
-0.86154

>  <SCORE.INTRA>
-2.89447

>  <SCORE.INTRA.DIHEDRAL>
-1.30661

>  <SCORE.INTRA.DIHEDRAL.0>
7.88077

>  <SCORE.INTRA.POLAR>
0

>  <SCORE.INTRA.POLAR.0>
0

>  <SCORE.INTRA.REPUL>
0

>  <SCORE.INTRA.REPUL.0>
0

>  <SCORE.INTRA.SOLV>
-2.30456

>  <SCORE.INTRA.SOLV.lig_0>
-63.2542

>  <SCORE.INTRA.VDW>
-1.08889

>  <SCORE.INTRA.VDW.0>
-3.15072

>  <SCORE.INTRA.norm>
-0.111326

>  <SCORE.RESTR>
0

>  <SCORE.RESTR.CAVITY>
0

>  <SCORE.RESTR.norm>
0

>  <SCORE.SYSTEM>
0

>  <SCORE.SYSTEM.CONST>
0

>  <SCORE.SYSTEM.DIHEDRAL>
0

>  <SCORE.SYSTEM.SOLV>
0

>  <SCORE.SYSTEM.norm>
0

>  <SCORE.heavy>
26

>  <SCORE.norm>
-0.972866

>  <RMSD>
3.553

$$$$
ligand
 OpenBabel11021811473D
libRbt.so/2013.1/901 2013/11/27
 26 27  0  0  0  0  0  0  0  0999 V2000
   -6.4660  -14.0761   26.6008 C   0  0  0  0  0  0  0  0  0  0  0  0
  -10.0567  -17.0654   26.6327 C   0  0  0  0  0  0  0  0  0  0  0  0
   -9.4342  -16.7360   25.4333 C   0  0  0  0  0  0  0  0  0  0  0  0
   -7.9819  -16.2615   25.3420 C   0  0  0  0  0  0  0  0  0  0  0  0
   -7.2203  -13.9236   25.2767 C   0  0  1  0  0  0  0  0  0  0  0  0
  -13.4892  -18.1397   25.3691 C   0  0  0  0  0  0  0  0  0  0  0  0
  -12.0477  -17.6293   25.3994 C   0  0  0  0  0  0  0  0  0  0  0  0
  -10.1686  -16.8689   24.2592 C   0  0  0  0  0  0  0  0  0  0  0  0
   -8.4967  -14.6891   23.5538 C   0  0  0  0  0  0  0  0  0  0  0  0
   -7.2310  -12.7292   24.5662 C   0  0  2  0  0  0  0  0  0  0  0  0
   -6.5654  -11.3820   24.8585 C   0  0  0  0  0  0  0  0  0  0  0  0
   -5.2842  -11.1625   24.0507 C   0  0  0  0  0  0  0  0  0  0  0  0
  -11.3776  -17.5183   26.6250 N   0  0  0  0  0  0  0  0  0  0  0  0
   -7.8977  -14.9319   24.7206 N   0  0  0  0  0  0  0  0  0  0  0  0
  -11.4168  -17.2987   24.2635 N   0  0  0  0  0  0  0  0  0  0  0  0
   -9.4485  -16.9631   27.6983 O   0  0  0  0  0  0  0  0  0  0  0  0
   -5.3490   -9.0785   21.4662 O   0  5  0  0  0  0  0  0  0  0  0  0
   -7.4631  -11.1825   17.9408 O   0  0  0  0  0  0  0  0  0  0  0  0
   -5.5011  -11.3548   22.6494 O   0  0  0  0  0  0  0  0  0  0  0  0
   -6.6143  -10.9845   20.3457 O   0  0  0  0  0  0  0  0  0  0  0  0
   -8.2083   -9.1807   19.4002 O   0  5  0  0  0  0  0  0  0  0  0  0
   -7.6004   -9.8816   22.4500 O   0  0  0  0  0  0  0  0  0  0  0  0
   -5.7866   -9.3469   18.5660 O   0  0  0  0  0  0  0  0  0  0  0  0
   -8.2381  -13.0072   23.1727 S   0  0  0  0  0  0  0  0  0  0  0  0
   -6.3495  -10.3004   21.7767 P   0  0  2  0  0  0  0  0  0  0  0  0
   -7.1014  -10.1118   19.0869 P   0  0  2  0  0  0  0  0  0  0  0  0
  2 16  2  0  0  0  0
  2  3  1  0  0  0  0
  2 13  1  0  0  0  0
  3  8  2  0  0  0  0
  3  4  1  0  0  0  0
  4 14  1  0  0  0  0
  5  1  1  6  0  0  0
  5 14  1  0  0  0  0
  5 10  1  0  0  0  0
  6  7  1  0  0  0  0
  7 13  1  0  0  0  0
  7 15  2  0  0  0  0
  8 15  1  0  0  0  0
  9 14  1  0  0  0  0
  9 24  1  0  0  0  0
 10 24  1  0  0  0  0
 10 11  1  1  0  0  0
 11 12  1  0  0  0  0
 12 19  1  0  0  0  0
 17 25  1  0  0  0  0
 19 25  1  0  0  0  0
 20 26  1  0  0  0  0
 21 26  1  0  0  0  0
 22 25  2  0  0  0  0
 23 26  2  0  0  0  0
 25 20  1  6  0  0  0
 26 18  1  6  0  0  0
M  CHG  2  17  -1  21  -1
M  END
>  <CHROM.1>
-121.43541162,100.88713177,52.93899232,129.15482396,71.22762250,-52.38721769
79.42046689,-171.53562527,-7.99739689,-13.08545401,23.13398531,-2.11433351
-0.68754822,-1.04195716

>  <Name>
ligand

>  <RI>
0

>  <Rbt.Current_Directory>
/home/itssahil/PROJECTS/Mol_Feturizer/New_Systems/rnas/3D2X

>  <Rbt.Executable>
rbdock ($Id: //depot/dev/client3/rdock/2013.1/src/exe/rbdock.cxx#4 $)

>  <Rbt.Library>
libRbt.so (2013.1, Build901 2013/11/27)

>  <Rbt.Parameter_File>
/export/apps/rDock/src/rDock_2013.1_src/data/scripts/dock_solv.prm

>  <Rbt.Receptor>
prm/pocket_docking_5.prm

>  <SCORE>
-23.4048

>  <SCORE.INTER>
-23.1997

>  <SCORE.INTER.CONST>
1

>  <SCORE.INTER.POLAR>
0

>  <SCORE.INTER.ROT>
8

>  <SCORE.INTER.SOLV>
17.0495

>  <SCORE.INTER.VDW>
-30.083

>  <SCORE.INTER.norm>
-0.892296

>  <SCORE.INTRA>
-0.205078

>  <SCORE.INTRA.DIHEDRAL>
-1.15029

>  <SCORE.INTRA.DIHEDRAL.0>
7.88077

>  <SCORE.INTRA.POLAR>
0

>  <SCORE.INTRA.POLAR.0>
0

>  <SCORE.INTRA.REPUL>
0

>  <SCORE.INTRA.REPUL.0>
0

>  <SCORE.INTRA.SOLV>
2.2537

>  <SCORE.INTRA.SOLV.lig_0>
-63.2542

>  <SCORE.INTRA.VDW>
-0.756782

>  <SCORE.INTRA.VDW.0>
-3.15072

>  <SCORE.INTRA.norm>
-0.0078876

>  <SCORE.RESTR>
0

>  <SCORE.RESTR.CAVITY>
0

>  <SCORE.RESTR.norm>
0

>  <SCORE.SYSTEM>
0

>  <SCORE.SYSTEM.CONST>
0

>  <SCORE.SYSTEM.DIHEDRAL>
0

>  <SCORE.SYSTEM.SOLV>
0

>  <SCORE.SYSTEM.norm>
0

>  <SCORE.heavy>
26

>  <SCORE.norm>
-0.900184

>  <RMSD>
3.562

$$$$
ligand
 OpenBabel11021811473D
libRbt.so/2013.1/901 2013/11/27
 26 27  0  0  0  0  0  0  0  0999 V2000
   -8.6603  -16.5891   20.1580 C   0  0  0  0  0  0  0  0  0  0  0  0
  -10.3166  -16.7469   25.2839 C   0  0  0  0  0  0  0  0  0  0  0  0
   -9.4054  -16.3159   24.3255 C   0  0  0  0  0  0  0  0  0  0  0  0
   -9.7619  -16.1330   22.8483 C   0  0  0  0  0  0  0  0  0  0  0  0
   -8.3594  -15.3390   20.9901 C   0  0  1  0  0  0  0  0  0  0  0  0
   -8.1458  -16.6341   28.4156 C   0  0  0  0  0  0  0  0  0  0  0  0
   -8.5974  -16.5336   26.9579 C   0  0  0  0  0  0  0  0  0  0  0  0
   -8.1125  -16.0161   24.7428 C   0  0  0  0  0  0  0  0  0  0  0  0
   -8.5622  -14.0128   22.8294 C   0  0  0  0  0  0  0  0  0  0  0  0
   -7.5427  -14.3177   20.5196 C   0  0  2  0  0  0  0  0  0  0  0  0
   -6.8019  -14.1578   19.1895 C   0  0  0  0  0  0  0  0  0  0  0  0
   -6.1578  -12.7789   19.0280 C   0  0  0  0  0  0  0  0  0  0  0  0
   -9.9169  -16.8594   26.6171 N   0  0  0  0  0  0  0  0  0  0  0  0
   -8.8755  -15.1505   22.2078 N   0  0  0  0  0  0  0  0  0  0  0  0
   -7.7457  -16.1255   26.0061 N   0  0  0  0  0  0  0  0  0  0  0  0
  -11.4722  -17.0255   24.9634 O   0  0  0  0  0  0  0  0  0  0  0  0
   -7.9065   -9.3179   19.5815 O   0  5  0  0  0  0  0  0  0  0  0  0
   -4.6440   -7.8076   18.6599 O   0  0  0  0  0  0  0  0  0  0  0  0
   -7.1194  -11.7264   19.1528 O   0  0  0  0  0  0  0  0  0  0  0  0
   -5.4462   -9.9001   19.8933 O   0  0  0  0  0  0  0  0  0  0  0  0
   -5.8056   -7.5713   20.9592 O   0  5  0  0  0  0  0  0  0  0  0  0
   -6.4410   -9.8567   17.5216 O   0  0  0  0  0  0  0  0  0  0  0  0
   -3.4510   -8.5796   20.7934 O   0  0  0  0  0  0  0  0  0  0  0  0
   -7.4507  -13.1448   21.8037 S   0  0  0  0  0  0  0  0  0  0  0  0
   -6.7104  -10.1834   18.9407 P   0  0  2  0  0  0  0  0  0  0  0  0
   -4.9058   -8.4052   20.1313 P   0  0  2  0  0  0  0  0  0  0  0  0
  2 16  2  0  0  0  0
  2  3  1  0  0  0  0
  2 13  1  0  0  0  0
  3  8  2  0  0  0  0
  3  4  1  0  0  0  0
  4 14  1  0  0  0  0
  5  1  1  6  0  0  0
  5 14  1  0  0  0  0
  5 10  1  0  0  0  0
  6  7  1  0  0  0  0
  7 13  1  0  0  0  0
  7 15  2  0  0  0  0
  8 15  1  0  0  0  0
  9 14  1  0  0  0  0
  9 24  1  0  0  0  0
 10 24  1  0  0  0  0
 10 11  1  1  0  0  0
 11 12  1  0  0  0  0
 12 19  1  0  0  0  0
 17 25  1  0  0  0  0
 19 25  1  0  0  0  0
 20 26  1  0  0  0  0
 21 26  1  0  0  0  0
 22 25  2  0  0  0  0
 23 26  2  0  0  0  0
 25 20  1  1  0  0  0
 26 18  1  6  0  0  0
M  CHG  2  17  -1  21  -1
M  END
>  <CHROM.1>
154.66369980,172.59759144,-56.79192065,137.41711124,-176.52210270,-57.91931299
-163.54113134,-54.07004717,-7.39972245,-12.84027770,21.69694028,2.38529524
1.04184867,1.73121675

>  <Name>
ligand

>  <RI>
0

>  <Rbt.Current_Directory>
/home/itssahil/PROJECTS/Mol_Feturizer/New_Systems/rnas/3D2X

>  <Rbt.Executable>
rbdock ($Id: //depot/dev/client3/rdock/2013.1/src/exe/rbdock.cxx#4 $)

>  <Rbt.Library>
libRbt.so (2013.1, Build901 2013/11/27)

>  <Rbt.Parameter_File>
/export/apps/rDock/src/rDock_2013.1_src/data/scripts/dock_solv.prm

>  <Rbt.Receptor>
prm/pocket_docking_6.prm

>  <SCORE>
-19.8848

>  <SCORE.INTER>
-18.5767

>  <SCORE.INTER.CONST>
1

>  <SCORE.INTER.POLAR>
0

>  <SCORE.INTER.ROT>
8

>  <SCORE.INTER.SOLV>
18.6607

>  <SCORE.INTER.VDW>
-27.538

>  <SCORE.INTER.norm>
-0.714488

>  <SCORE.INTRA>
-1.30809

>  <SCORE.INTRA.DIHEDRAL>
-2.67597

>  <SCORE.INTRA.DIHEDRAL.0>
7.88077

>  <SCORE.INTRA.POLAR>
0

>  <SCORE.INTRA.POLAR.0>
0

>  <SCORE.INTRA.REPUL>
0

>  <SCORE.INTRA.REPUL.0>
0

>  <SCORE.INTRA.SOLV>
-1.80833

>  <SCORE.INTRA.SOLV.lig_0>
-63.2542

>  <SCORE.INTRA.VDW>
0.934058

>  <SCORE.INTRA.VDW.0>
-3.15072

>  <SCORE.INTRA.norm>
-0.0503112

>  <SCORE.RESTR>
0

>  <SCORE.RESTR.CAVITY>
0

>  <SCORE.RESTR.norm>
0

>  <SCORE.SYSTEM>
0

>  <SCORE.SYSTEM.CONST>
0

>  <SCORE.SYSTEM.DIHEDRAL>
0

>  <SCORE.SYSTEM.SOLV>
0

>  <SCORE.SYSTEM.norm>
0

>  <SCORE.heavy>
26

>  <SCORE.norm>
-0.764799

>  <RMSD>
3.565

$$$$
ligand
 OpenBabel11021811473D
libRbt.so/2013.1/901 2013/11/27
 26 27  0  0  0  0  0  0  0  0999 V2000
   -6.1893  -17.7583   18.4989 C   0  0  0  0  0  0  0  0  0  0  0  0
   -9.8317  -16.0339   22.0897 C   0  0  0  0  0  0  0  0  0  0  0  0
   -8.7873  -16.7848   21.5604 C   0  0  0  0  0  0  0  0  0  0  0  0
   -8.5533  -16.9581   20.0578 C   0  0  0  0  0  0  0  0  0  0  0  0
   -6.5142  -16.3029   18.8483 C   0  0  1  0  0  0  0  0  0  0  0  0
   -9.1308  -16.3901   25.8199 C   0  0  0  0  0  0  0  0  0  0  0  0
   -9.0202  -16.5365   24.3015 C   0  0  0  0  0  0  0  0  0  0  0  0
   -7.9015  -17.3869   22.4482 C   0  0  0  0  0  0  0  0  0  0  0  0
   -7.7900  -14.6617   19.7767 C   0  0  0  0  0  0  0  0  0  0  0  0
   -5.7084  -15.2475   18.4381 C   0  0  2  0  0  0  0  0  0  0  0  0
   -4.4212  -15.2311   17.6096 C   0  0  0  0  0  0  0  0  0  0  0  0
   -3.2606  -15.9539   18.2972 C   0  0  0  0  0  0  0  0  0  0  0  0
   -9.9568  -15.9026   23.4742 N   0  0  0  0  0  0  0  0  0  0  0  0
   -7.5969  -15.9624   19.5529 N   0  0  0  0  0  0  0  0  0  0  0  0
   -8.0290  -17.2556   23.7555 N   0  0  0  0  0  0  0  0  0  0  0  0
  -10.6422  -15.4829   21.3445 O   0  0  0  0  0  0  0  0  0  0  0  0
   -0.9209  -14.0126   18.6691 O   0  5  0  0  0  0  0  0  0  0  0  0
   -1.4180  -11.5122   17.6324 O   0  0  0  0  0  0  0  0  0  0  0  0
   -2.9292  -15.3512   19.5521 O   0  0  0  0  0  0  0  0  0  0  0  0
   -3.1817  -12.8618   18.9019 O   0  0  0  0  0  0  0  0  0  0  0  0
   -3.7620  -10.4949   18.0362 O   0  5  0  0  0  0  0  0  0  0  0  0
   -1.8772  -13.5188   21.0193 O   0  0  0  0  0  0  0  0  0  0  0  0
   -2.1278  -10.8034   19.9914 O   0  0  0  0  0  0  0  0  0  0  0  0
   -6.4314  -13.8061   19.0962 S   0  0  0  0  0  0  0  0  0  0  0  0
   -2.2078  -13.9136   19.6307 P   0  0  2  0  0  0  0  0  0  0  0  0
   -2.6989  -11.3597   18.5951 P   0  0  2  0  0  0  0  0  0  0  0  0
  2 16  2  0  0  0  0
  2  3  1  0  0  0  0
  2 13  1  0  0  0  0
  3  8  2  0  0  0  0
  3  4  1  0  0  0  0
  4 14  1  0  0  0  0
  5  1  1  6  0  0  0
  5 14  1  0  0  0  0
  5 10  1  0  0  0  0
  6  7  1  0  0  0  0
  7 13  1  0  0  0  0
  7 15  2  0  0  0  0
  8 15  1  0  0  0  0
  9 14  1  0  0  0  0
  9 24  1  0  0  0  0
 10 24  1  0  0  0  0
 10 11  1  1  0  0  0
 11 12  1  0  0  0  0
 12 19  1  0  0  0  0
 17 25  1  0  0  0  0
 19 25  1  0  0  0  0
 20 26  1  0  0  0  0
 21 26  1  0  0  0  0
 22 25  2  0  0  0  0
 23 26  2  0  0  0  0
 25 20  1  6  0  0  0
 26 18  1  6  0  0  0
M  CHG  2  17  -1  21  -1
M  END
>  <CHROM.1>
94.10466711,-63.83005251,-60.61793468,127.33327118,-71.31831089,-58.93837277
-51.72782444,60.29769563,-5.40519266,-14.57082207,20.07468623,2.98448818
0.66547073,1.06080310

>  <Name>
ligand

>  <RI>
0

>  <Rbt.Current_Directory>
/home/itssahil/PROJECTS/Mol_Feturizer/New_Systems/rnas/3D2X

>  <Rbt.Executable>
rbdock ($Id: //depot/dev/client3/rdock/2013.1/src/exe/rbdock.cxx#4 $)

>  <Rbt.Library>
libRbt.so (2013.1, Build901 2013/11/27)

>  <Rbt.Parameter_File>
/export/apps/rDock/src/rDock_2013.1_src/data/scripts/dock_solv.prm

>  <Rbt.Receptor>
prm/pocket_docking_4.prm

>  <SCORE>
-14.8163

>  <SCORE.INTER>
-12.3542

>  <SCORE.INTER.CONST>
1

>  <SCORE.INTER.POLAR>
0

>  <SCORE.INTER.ROT>
8

>  <SCORE.INTER.SOLV>
9.74858

>  <SCORE.INTER.VDW>
-20.419

>  <SCORE.INTER.norm>
-0.475161

>  <SCORE.INTRA>
-2.4621

>  <SCORE.INTRA.DIHEDRAL>
-2.60903

>  <SCORE.INTRA.DIHEDRAL.0>
7.88077

>  <SCORE.INTRA.POLAR>
0

>  <SCORE.INTRA.POLAR.0>
0

>  <SCORE.INTRA.REPUL>
0

>  <SCORE.INTRA.REPUL.0>
0

>  <SCORE.INTRA.SOLV>
0.0779937

>  <SCORE.INTRA.SOLV.lig_0>
-63.2542

>  <SCORE.INTRA.VDW>
-1.19659

>  <SCORE.INTRA.VDW.0>
-3.15072

>  <SCORE.INTRA.norm>
-0.0946963

>  <SCORE.RESTR>
0

>  <SCORE.RESTR.CAVITY>
0

>  <SCORE.RESTR.norm>
0

>  <SCORE.SYSTEM>
0

>  <SCORE.SYSTEM.CONST>
0

>  <SCORE.SYSTEM.DIHEDRAL>
0

>  <SCORE.SYSTEM.SOLV>
0

>  <SCORE.SYSTEM.norm>
0

>  <SCORE.heavy>
26

>  <SCORE.norm>
-0.569857

>  <RMSD>
3.569

$$$$
ligand
 OpenBabel11021811473D
libRbt.so/2013.1/901 2013/11/27
 26 27  0  0  0  0  0  0  0  0999 V2000
   -7.4673  -13.4350   19.7175 C   0  0  0  0  0  0  0  0  0  0  0  0
   -8.2075  -14.8655   23.3874 C   0  0  0  0  0  0  0  0  0  0  0  0
   -9.1952  -15.4642   22.6123 C   0  0  0  0  0  0  0  0  0  0  0  0
   -9.3460  -15.2224   21.1085 C   0  0  0  0  0  0  0  0  0  0  0  0
   -7.3289  -14.9602   19.7255 C   0  0  1  0  0  0  0  0  0  0  0  0
   -8.9514  -16.4154   26.7899 C   0  0  0  0  0  0  0  0  0  0  0  0
   -9.0403  -16.0638   25.3041 C   0  0  0  0  0  0  0  0  0  0  0  0
  -10.0724  -16.3437   23.2387 C   0  0  0  0  0  0  0  0  0  0  0  0
   -7.9570  -17.0645   20.3260 C   0  0  0  0  0  0  0  0  0  0  0  0
   -6.2866  -15.6105   19.0757 C   0  0  2  0  0  0  0  0  0  0  0  0
   -5.1090  -15.0596   18.2675 C   0  0  0  0  0  0  0  0  0  0  0  0
   -3.8424  -15.9073   18.4060 C   0  0  0  0  0  0  0  0  0  0  0  0
   -8.1215  -15.1633   24.7489 N   0  0  0  0  0  0  0  0  0  0  0  0
   -8.1913  -15.7521   20.3689 N   0  0  0  0  0  0  0  0  0  0  0  0
   -9.9815  -16.6183   24.5267 N   0  0  0  0  0  0  0  0  0  0  0  0
   -7.4085  -14.0790   22.8788 O   0  0  0  0  0  0  0  0  0  0  0  0
   -2.9773  -13.1621   19.1660 O   0  5  0  0  0  0  0  0  0  0  0  0
    0.0519  -13.5564   22.3729 O   0  0  0  0  0  0  0  0  0  0  0  0
   -3.1837  -15.6765   19.6552 O   0  0  0  0  0  0  0  0  0  0  0  0
   -2.2826  -14.0492   21.4506 O   0  0  0  0  0  0  0  0  0  0  0  0
   -1.2886  -11.6738   21.2104 O   0  5  0  0  0  0  0  0  0  0  0  0
   -0.8538  -14.6191   19.3890 O   0  0  0  0  0  0  0  0  0  0  0  0
   -2.0171  -12.5557   23.5081 O   0  0  0  0  0  0  0  0  0  0  0  0
   -6.5604  -17.3141   19.3122 S   0  0  0  0  0  0  0  0  0  0  0  0
   -2.2328  -14.3967   19.8814 P   0  0  2  0  0  0  0  0  0  0  0  0
   -1.3749  -12.8759   22.0693 P   0  0  2  0  0  0  0  0  0  0  0  0
  2 16  2  0  0  0  0
  2  3  1  0  0  0  0
  2 13  1  0  0  0  0
  3  8  2  0  0  0  0
  3  4  1  0  0  0  0
  4 14  1  0  0  0  0
  5  1  1  1  0  0  0
  5 14  1  0  0  0  0
  5 10  1  0  0  0  0
  6  7  1  0  0  0  0
  7 13  1  0  0  0  0
  7 15  2  0  0  0  0
  8 15  1  0  0  0  0
  9 14  1  0  0  0  0
  9 24  1  0  0  0  0
 10 24  1  0  0  0  0
 10 11  1  6  0  0  0
 11 12  1  0  0  0  0
 12 19  1  0  0  0  0
 17 25  1  0  0  0  0
 19 25  1  0  0  0  0
 20 26  1  0  0  0  0
 21 26  1  0  0  0  0
 22 25  2  0  0  0  0
 23 26  2  0  0  0  0
 25 20  1  1  0  0  0
 26 18  1  1  0  0  0
M  CHG  2  17  -1  21  -1
M  END
>  <CHROM.1>
65.75501402,146.83107975,-76.94835142,-113.20539716,-80.36793798,-71.82529382
40.82256414,-85.04653684,-5.26090813,-14.84322103,21.32888038,2.92669445
0.37454480,1.31071426

>  <Name>
ligand

>  <RI>
0

>  <Rbt.Current_Directory>
/home/itssahil/PROJECTS/Mol_Feturizer/New_Systems/rnas/3D2X

>  <Rbt.Executable>
rbdock ($Id: //depot/dev/client3/rdock/2013.1/src/exe/rbdock.cxx#4 $)

>  <Rbt.Library>
libRbt.so (2013.1, Build901 2013/11/27)

>  <Rbt.Parameter_File>
/export/apps/rDock/src/rDock_2013.1_src/data/scripts/dock_solv.prm

>  <Rbt.Receptor>
prm/pocket_docking_4.prm

>  <SCORE>
-14.5778

>  <SCORE.INTER>
-15.0332

>  <SCORE.INTER.CONST>
1

>  <SCORE.INTER.POLAR>
0

>  <SCORE.INTER.ROT>
8

>  <SCORE.INTER.SOLV>
7.73896

>  <SCORE.INTER.VDW>
-21.5351

>  <SCORE.INTER.norm>
-0.578198

>  <SCORE.INTRA>
0.455365

>  <SCORE.INTRA.DIHEDRAL>
1.39044

>  <SCORE.INTRA.DIHEDRAL.0>
7.88077

>  <SCORE.INTRA.POLAR>
0

>  <SCORE.INTRA.POLAR.0>
0

>  <SCORE.INTRA.REPUL>
0

>  <SCORE.INTRA.REPUL.0>
0

>  <SCORE.INTRA.SOLV>
0.538222

>  <SCORE.INTRA.SOLV.lig_0>
-63.2542

>  <SCORE.INTRA.VDW>
-0.508964

>  <SCORE.INTRA.VDW.0>
-3.15072

>  <SCORE.INTRA.norm>
0.017514

>  <SCORE.RESTR>
0

>  <SCORE.RESTR.CAVITY>
0

>  <SCORE.RESTR.norm>
0

>  <SCORE.SYSTEM>
0

>  <SCORE.SYSTEM.CONST>
0

>  <SCORE.SYSTEM.DIHEDRAL>
0

>  <SCORE.SYSTEM.SOLV>
0

>  <SCORE.SYSTEM.norm>
0

>  <SCORE.heavy>
26

>  <SCORE.norm>
-0.560684

>  <RMSD>
3.599

$$$$
ligand
 OpenBabel11021811473D
libRbt.so/2013.1/901 2013/11/27
 26 27  0  0  0  0  0  0  0  0999 V2000
   -4.9014  -14.0706   24.1676 C   0  0  0  0  0  0  0  0  0  0  0  0
   -9.5730  -16.7114   23.8604 C   0  0  0  0  0  0  0  0  0  0  0  0
   -8.7064  -16.2762   24.8575 C   0  0  0  0  0  0  0  0  0  0  0  0
   -7.3163  -15.7027   24.5722 C   0  0  0  0  0  0  0  0  0  0  0  0
   -6.3208  -13.5477   23.9277 C   0  0  1  0  0  0  0  0  0  0  0  0
  -12.5887  -17.7407   25.9529 C   0  0  0  0  0  0  0  0  0  0  0  0
  -11.2022  -17.2305   25.5572 C   0  0  0  0  0  0  0  0  0  0  0  0
   -9.1415  -16.3479   26.1770 C   0  0  0  0  0  0  0  0  0  0  0  0
   -8.5868  -13.7537   23.8497 C   0  0  0  0  0  0  0  0  0  0  0  0
   -6.5661  -12.2527   23.4872 C   0  0  2  0  0  0  0  0  0  0  0  0
   -5.6059  -11.1106   23.1451 C   0  0  0  0  0  0  0  0  0  0  0  0
   -5.4237  -10.9162   21.6380 C   0  0  0  0  0  0  0  0  0  0  0  0
  -10.8368  -17.1949   24.2050 N   0  0  0  0  0  0  0  0  0  0  0  0
   -7.4030  -14.3090   24.1127 N   0  0  0  0  0  0  0  0  0  0  0  0
  -10.3389  -16.8064   26.4913 N   0  0  0  0  0  0  0  0  0  0  0  0
   -9.2328  -16.6690   22.6779 O   0  0  0  0  0  0  0  0  0  0  0  0
   -5.5753   -9.0918   19.1380 O   0  5  0  0  0  0  0  0  0  0  0  0
   -8.1378  -12.3742   17.2711 O   0  0  0  0  0  0  0  0  0  0  0  0
   -6.6384  -10.5005   21.0061 O   0  0  0  0  0  0  0  0  0  0  0  0
   -6.1774  -11.5237   18.6771 O   0  0  0  0  0  0  0  0  0  0  0  0
   -6.4418  -10.7191   16.2335 O   0  5  0  0  0  0  0  0  0  0  0  0
   -8.0577   -9.7947   18.9800 O   0  0  0  0  0  0  0  0  0  0  0  0
   -5.7487  -13.1376   16.7417 O   0  0  0  0  0  0  0  0  0  0  0  0
   -8.2984  -12.0930   23.4029 S   0  0  0  0  0  0  0  0  0  0  0  0
   -6.7050  -10.2016   19.4251 P   0  0  2  0  0  0  0  0  0  0  0  0
   -6.6182  -11.8538   17.1671 P   0  0  2  0  0  0  0  0  0  0  0  0
  2 16  2  0  0  0  0
  2  3  1  0  0  0  0
  2 13  1  0  0  0  0
  3  8  2  0  0  0  0
  3  4  1  0  0  0  0
  4 14  1  0  0  0  0
  5  1  1  6  0  0  0
  5 14  1  0  0  0  0
  5 10  1  0  0  0  0
  6  7  1  0  0  0  0
  7 13  1  0  0  0  0
  7 15  2  0  0  0  0
  8 15  1  0  0  0  0
  9 14  1  0  0  0  0
  9 24  1  0  0  0  0
 10 24  1  0  0  0  0
 10 11  1  1  0  0  0
 11 12  1  0  0  0  0
 12 19  1  0  0  0  0
 17 25  1  0  0  0  0
 19 25  1  0  0  0  0
 20 26  1  0  0  0  0
 21 26  1  0  0  0  0
 22 25  2  0  0  0  0
 23 26  2  0  0  0  0
 25 20  1  6  0  0  0
 26 18  1  1  0  0  0
M  CHG  2  17  -1  21  -1
M  END
>  <CHROM.1>
78.01087032,102.81169196,65.00640696,173.14801220,178.87149030,-92.46808100
-55.87514144,-75.23624029,-7.65556349,-13.16007643,21.72969640,-2.16420676
-0.88779911,-1.37804614

>  <Name>
ligand

>  <RI>
0

>  <Rbt.Current_Directory>
/home/itssahil/PROJECTS/Mol_Feturizer/New_Systems/rnas/3D2X

>  <Rbt.Executable>
rbdock ($Id: //depot/dev/client3/rdock/2013.1/src/exe/rbdock.cxx#4 $)

>  <Rbt.Library>
libRbt.so (2013.1, Build901 2013/11/27)

>  <Rbt.Parameter_File>
/export/apps/rDock/src/rDock_2013.1_src/data/scripts/dock_solv.prm

>  <Rbt.Receptor>
prm/pocket_docking_7.prm

>  <SCORE>
-21.7415

>  <SCORE.INTER>
-20.3261

>  <SCORE.INTER.CONST>
1

>  <SCORE.INTER.POLAR>
0

>  <SCORE.INTER.ROT>
8

>  <SCORE.INTER.SOLV>
14.1167

>  <SCORE.INTER.VDW>
-27.1896

>  <SCORE.INTER.norm>
-0.781772

>  <SCORE.INTRA>
-1.41543

>  <SCORE.INTRA.DIHEDRAL>
-1.40039

>  <SCORE.INTRA.DIHEDRAL.0>
7.88077

>  <SCORE.INTRA.POLAR>
0

>  <SCORE.INTRA.POLAR.0>
0

>  <SCORE.INTRA.REPUL>
0

>  <SCORE.INTRA.REPUL.0>
0

>  <SCORE.INTRA.SOLV>
-1.36585

>  <SCORE.INTRA.SOLV.lig_0>
-63.2542

>  <SCORE.INTRA.VDW>
-0.0323114

>  <SCORE.INTRA.VDW.0>
-3.15072

>  <SCORE.INTRA.norm>
-0.0544396

>  <SCORE.RESTR>
0

>  <SCORE.RESTR.CAVITY>
0

>  <SCORE.RESTR.norm>
0

>  <SCORE.SYSTEM>
0

>  <SCORE.SYSTEM.CONST>
0

>  <SCORE.SYSTEM.DIHEDRAL>
0

>  <SCORE.SYSTEM.SOLV>
0

>  <SCORE.SYSTEM.norm>
0

>  <SCORE.heavy>
26

>  <SCORE.norm>
-0.836211

>  <RMSD>
3.611

$$$$
ligand
 OpenBabel11021811473D
libRbt.so/2013.1/901 2013/11/27
 26 27  0  0  0  0  0  0  0  0999 V2000
   -8.3661  -13.8104   23.4234 C   0  0  0  0  0  0  0  0  0  0  0  0
   -9.3734  -17.0149   24.1120 C   0  0  0  0  0  0  0  0  0  0  0  0
   -8.5740  -16.5284   25.1411 C   0  0  0  0  0  0  0  0  0  0  0  0
   -7.1446  -16.0240   24.9290 C   0  0  0  0  0  0  0  0  0  0  0  0
   -7.5456  -13.6080   24.7006 C   0  0  1  0  0  0  0  0  0  0  0  0
  -12.5850  -17.7765   26.0195 C   0  0  0  0  0  0  0  0  0  0  0  0
  -11.1527  -17.3439   25.7023 C   0  0  0  0  0  0  0  0  0  0  0  0
   -9.1164  -16.4800   26.4213 C   0  0  0  0  0  0  0  0  0  0  0  0
   -6.3304  -14.3343   26.4836 C   0  0  0  0  0  0  0  0  0  0  0  0
   -7.3285  -12.3487   25.2470 C   0  0  2  0  0  0  0  0  0  0  0  0
   -7.7967  -10.9638   24.7930 C   0  0  0  0  0  0  0  0  0  0  0  0
   -7.7017  -10.7695   23.2779 C   0  0  0  0  0  0  0  0  0  0  0  0
  -10.6785  -17.4288   24.3866 N   0  0  0  0  0  0  0  0  0  0  0  0
   -7.0047  -14.6291   25.3712 N   0  0  0  0  0  0  0  0  0  0  0  0
  -10.3518  -16.8735   26.6693 N   0  0  0  0  0  0  0  0  0  0  0  0
   -8.9378  -17.0785   22.9622 O   0  0  0  0  0  0  0  0  0  0  0  0
   -4.4454  -11.1831   21.1183 O   0  5  0  0  0  0  0  0  0  0  0  0
   -7.8021  -13.1605   18.4943 O   0  0  0  0  0  0  0  0  0  0  0  0
   -6.3523  -10.8744   22.8133 O   0  0  0  0  0  0  0  0  0  0  0  0
   -6.8075  -11.8929   20.4811 O   0  0  0  0  0  0  0  0  0  0  0  0
   -6.7596  -10.8215   18.1277 O   0  5  0  0  0  0  0  0  0  0  0  0
   -6.2626   -9.3898   20.7144 O   0  0  0  0  0  0  0  0  0  0  0  0
   -5.2656  -12.8361   18.6735 O   0  0  0  0  0  0  0  0  0  0  0  0
   -6.3197  -12.5980   26.6447 S   0  0  0  0  0  0  0  0  0  0  0  0
   -5.9878  -10.7428   21.2502 P   0  0  2  0  0  0  0  0  0  0  0  0
   -6.6711  -12.0862   18.8913 P   0  0  2  0  0  0  0  0  0  0  0  0
  2 16  2  0  0  0  0
  2  3  1  0  0  0  0
  2 13  1  0  0  0  0
  3  8  2  0  0  0  0
  3  4  1  0  0  0  0
  4 14  1  0  0  0  0
  5  1  1  1  0  0  0
  5 14  1  0  0  0  0
  5 10  1  0  0  0  0
  6  7  1  0  0  0  0
  7 13  1  0  0  0  0
  7 15  2  0  0  0  0
  8 15  1  0  0  0  0
  9 14  1  0  0  0  0
  9 24  1  0  0  0  0
 10 24  1  0  0  0  0
 10 11  1  6  0  0  0
 11 12  1  0  0  0  0
 12 19  1  0  0  0  0
 17 25  1  0  0  0  0
 19 25  1  0  0  0  0
 20 26  1  0  0  0  0
 21 26  1  0  0  0  0
 22 25  2  0  0  0  0
 23 26  2  0  0  0  0
 25 20  1  6  0  0  0
 26 18  1  6  0  0  0
M  CHG  2  17  -1  21  -1
M  END
>  <CHROM.1>
121.84858000,-41.65729488,-61.90928996,-71.53574878,178.53370489,-66.82537266
-169.85913729,-171.42890849,-7.55689584,-13.44363019,23.04598548,2.34941078
0.96358619,1.63127655

>  <Name>
ligand

>  <RI>
0

>  <Rbt.Current_Directory>
/home/itssahil/PROJECTS/Mol_Feturizer/New_Systems/rnas/3D2X

>  <Rbt.Executable>
rbdock ($Id: //depot/dev/client3/rdock/2013.1/src/exe/rbdock.cxx#4 $)

>  <Rbt.Library>
libRbt.so (2013.1, Build901 2013/11/27)

>  <Rbt.Parameter_File>
/export/apps/rDock/src/rDock_2013.1_src/data/scripts/dock_solv.prm

>  <Rbt.Receptor>
prm/pocket_docking_7.prm

>  <SCORE>
-19.7514

>  <SCORE.INTER>
-18.3702

>  <SCORE.INTER.CONST>
1

>  <SCORE.INTER.POLAR>
0

>  <SCORE.INTER.ROT>
8

>  <SCORE.INTER.SOLV>
7.73968

>  <SCORE.INTER.VDW>
-23.7601

>  <SCORE.INTER.norm>
-0.706548

>  <SCORE.INTRA>
-1.38115

>  <SCORE.INTRA.DIHEDRAL>
-2.73126

>  <SCORE.INTRA.DIHEDRAL.0>
7.88077

>  <SCORE.INTRA.POLAR>
0

>  <SCORE.INTRA.POLAR.0>
0

>  <SCORE.INTRA.REPUL>
0

>  <SCORE.INTRA.REPUL.0>
0

>  <SCORE.INTRA.SOLV>
0.376672

>  <SCORE.INTRA.SOLV.lig_0>
-63.2542

>  <SCORE.INTRA.VDW>
-0.203858

>  <SCORE.INTRA.VDW.0>
-3.15072

>  <SCORE.INTRA.norm>
-0.0531213

>  <SCORE.RESTR>
0

>  <SCORE.RESTR.CAVITY>
0

>  <SCORE.RESTR.norm>
0

>  <SCORE.SYSTEM>
0

>  <SCORE.SYSTEM.CONST>
0

>  <SCORE.SYSTEM.DIHEDRAL>
0

>  <SCORE.SYSTEM.SOLV>
0

>  <SCORE.SYSTEM.norm>
0

>  <SCORE.heavy>
26

>  <SCORE.norm>
-0.759669

>  <RMSD>
3.686

$$$$
ligand
 OpenBabel11021811473D
libRbt.so/2013.1/901 2013/11/27
 26 27  0  0  0  0  0  0  0  0999 V2000
   -8.7383  -14.2408   23.2696 C   0  0  0  0  0  0  0  0  0  0  0  0
   -9.9197  -16.7761   26.3636 C   0  0  0  0  0  0  0  0  0  0  0  0
   -9.2901  -16.8699   25.1269 C   0  0  0  0  0  0  0  0  0  0  0  0
   -7.8196  -16.5100   24.9023 C   0  0  0  0  0  0  0  0  0  0  0  0
   -7.9203  -15.4066   22.7063 C   0  0  1  0  0  0  0  0  0  0  0  0
  -13.4011  -18.0509   25.4763 C   0  0  0  0  0  0  0  0  0  0  0  0
  -11.9393  -17.6178   25.3556 C   0  0  0  0  0  0  0  0  0  0  0  0
  -10.0356  -17.3371   24.0492 C   0  0  0  0  0  0  0  0  0  0  0  0
   -6.7826  -17.3716   22.8732 C   0  0  0  0  0  0  0  0  0  0  0  0
   -7.5434  -15.4665   21.3699 C   0  0  2  0  0  0  0  0  0  0  0  0
   -7.7966  -14.4981   20.2118 C   0  0  0  0  0  0  0  0  0  0  0  0
   -6.8457  -13.2989   20.2187 C   0  0  0  0  0  0  0  0  0  0  0  0
  -11.2586  -17.1525   26.4885 N   0  0  0  0  0  0  0  0  0  0  0  0
   -7.5089  -16.4241   23.4680 N   0  0  0  0  0  0  0  0  0  0  0  0
  -11.3008  -17.6907   24.1788 N   0  0  0  0  0  0  0  0  0  0  0  0
   -9.3022  -16.3670   27.3471 O   0  0  0  0  0  0  0  0  0  0  0  0
   -6.3967  -10.3361   19.8620 O   0  5  0  0  0  0  0  0  0  0  0  0
   -7.8781  -11.5440   24.1094 O   0  0  0  0  0  0  0  0  0  0  0  0
   -7.1883  -12.3562   21.2393 O   0  0  0  0  0  0  0  0  0  0  0  0
   -7.4317   -9.9518   22.1577 O   0  0  0  0  0  0  0  0  0  0  0  0
   -6.3372   -9.4951   24.4559 O   0  5  0  0  0  0  0  0  0  0  0  0
   -5.1079  -11.0418   21.9886 O   0  0  0  0  0  0  0  0  0  0  0  0
   -8.8632   -9.1775   24.1290 O   0  0  0  0  0  0  0  0  0  0  0  0
   -6.6826  -16.9686   21.1796 S   0  0  0  0  0  0  0  0  0  0  0  0
   -6.4425  -10.9337   21.3557 P   0  0  2  0  0  0  0  0  0  0  0  0
   -7.5379  -10.0100   23.7605 P   0  0  2  0  0  0  0  0  0  0  0  0
  2 16  2  0  0  0  0
  2  3  1  0  0  0  0
  2 13  1  0  0  0  0
  3  8  2  0  0  0  0
  3  4  1  0  0  0  0
  4 14  1  0  0  0  0
  5  1  1  1  0  0  0
  5 14  1  0  0  0  0
  5 10  1  0  0  0  0
  6  7  1  0  0  0  0
  7 13  1  0  0  0  0
  7 15  2  0  0  0  0
  8 15  1  0  0  0  0
  9 14  1  0  0  0  0
  9 24  1  0  0  0  0
 10 24  1  0  0  0  0
 10 11  1  6  0  0  0
 11 12  1  0  0  0  0
 12 19  1  0  0  0  0
 17 25  1  0  0  0  0
 19 25  1  0  0  0  0
 20 26  1  0  0  0  0
 21 26  1  0  0  0  0
 22 25  2  0  0  0  0
 23 26  2  0  0  0  0
 25 20  1  1  0  0  0
 26 18  1  1  0  0  0
M  CHG  2  17  -1  21  -1
M  END
>  <CHROM.1>
-167.64110696,79.65584967,-74.56906345,73.33572269,-173.34193405,-167.78736363
46.21645632,-54.45450460,-8.12439828,-13.95708829,23.18767846,2.36547533
-0.92879440,-2.85382044

>  <Name>
ligand

>  <RI>
0

>  <Rbt.Current_Directory>
/home/itssahil/PROJECTS/Mol_Feturizer/New_Systems/rnas/3D2X

>  <Rbt.Executable>
rbdock ($Id: //depot/dev/client3/rdock/2013.1/src/exe/rbdock.cxx#4 $)

>  <Rbt.Library>
libRbt.so (2013.1, Build901 2013/11/27)

>  <Rbt.Parameter_File>
/export/apps/rDock/src/rDock_2013.1_src/data/scripts/dock_solv.prm

>  <Rbt.Receptor>
prm/pocket_docking_6.prm

>  <SCORE>
-25.4423

>  <SCORE.INTER>
-23.1859

>  <SCORE.INTER.CONST>
1

>  <SCORE.INTER.POLAR>
0

>  <SCORE.INTER.ROT>
8

>  <SCORE.INTER.SOLV>
11.6772

>  <SCORE.INTER.VDW>
-28.283

>  <SCORE.INTER.norm>
-0.891767

>  <SCORE.INTRA>
-2.25635

>  <SCORE.INTRA.DIHEDRAL>
-1.04896

>  <SCORE.INTRA.DIHEDRAL.0>
7.88077

>  <SCORE.INTRA.POLAR>
0

>  <SCORE.INTRA.POLAR.0>
0

>  <SCORE.INTRA.REPUL>
0

>  <SCORE.INTRA.REPUL.0>
0

>  <SCORE.INTRA.SOLV>
-2.46827

>  <SCORE.INTRA.SOLV.lig_0>
-63.2542

>  <SCORE.INTRA.VDW>
-0.49773

>  <SCORE.INTRA.VDW.0>
-3.15072

>  <SCORE.INTRA.norm>
-0.0867825

>  <SCORE.RESTR>
0

>  <SCORE.RESTR.CAVITY>
0

>  <SCORE.RESTR.norm>
0

>  <SCORE.SYSTEM>
0

>  <SCORE.SYSTEM.CONST>
0

>  <SCORE.SYSTEM.DIHEDRAL>
0

>  <SCORE.SYSTEM.SOLV>
0

>  <SCORE.SYSTEM.norm>
0

>  <SCORE.heavy>
26

>  <SCORE.norm>
-0.97855

>  <RMSD>
3.709

$$$$
ligand
 OpenBabel11021811473D
libRbt.so/2013.1/901 2013/11/27
 26 27  0  0  0  0  0  0  0  0999 V2000
   -6.4697  -17.3396   22.6470 C   0  0  0  0  0  0  0  0  0  0  0  0
  -10.0873  -16.4946   25.7589 C   0  0  0  0  0  0  0  0  0  0  0  0
   -9.8745  -16.3183   24.3957 C   0  0  0  0  0  0  0  0  0  0  0  0
   -8.6054  -15.6879   23.8172 C   0  0  0  0  0  0  0  0  0  0  0  0
   -7.5542  -16.6513   21.8129 C   0  0  1  0  0  0  0  0  0  0  0  0
  -13.4890  -18.2150   25.7205 C   0  0  0  0  0  0  0  0  0  0  0  0
  -12.2041  -17.5282   25.2550 C   0  0  0  0  0  0  0  0  0  0  0  0
  -10.8600  -16.7607   23.5190 C   0  0  0  0  0  0  0  0  0  0  0  0
   -9.4225  -15.3786   21.5430 C   0  0  0  0  0  0  0  0  0  0  0  0
   -7.6089  -16.7708   20.4294 C   0  0  2  0  0  0  0  0  0  0  0  0
   -6.7151  -17.5394   19.4527 C   0  0  0  0  0  0  0  0  0  0  0  0
   -5.6252  -16.6653   18.8278 C   0  0  0  0  0  0  0  0  0  0  0  0
  -11.2619  -17.1058   26.2022 N   0  0  0  0  0  0  0  0  0  0  0  0
   -8.5181  -15.9102   22.3666 N   0  0  0  0  0  0  0  0  0  0  0  0
  -11.9666  -17.3378   23.9493 N   0  0  0  0  0  0  0  0  0  0  0  0
   -9.2450  -16.1183   26.5742 O   0  0  0  0  0  0  0  0  0  0  0  0
   -4.5647  -15.7411   16.1380 O   0  5  0  0  0  0  0  0  0  0  0  0
   -1.0856  -15.7631   19.8603 O   0  0  0  0  0  0  0  0  0  0  0  0
   -4.6982  -17.4404   18.0614 O   0  0  0  0  0  0  0  0  0  0  0  0
   -2.7138  -15.7925   17.8876 O   0  0  0  0  0  0  0  0  0  0  0  0
   -1.0384  -17.7392   18.1914 O   0  5  0  0  0  0  0  0  0  0  0  0
   -2.9270  -17.7394   16.2200 O   0  0  0  0  0  0  0  0  0  0  0  0
   -0.2198  -15.4150   17.4728 O   0  0  0  0  0  0  0  0  0  0  0  0
   -8.9575  -15.7961   19.9151 S   0  0  0  0  0  0  0  0  0  0  0  0
   -3.6774  -16.7488   17.0256 P   0  0  2  0  0  0  0  0  0  0  0  0
   -1.2535  -16.2831   18.3463 P   0  0  2  0  0  0  0  0  0  0  0  0
  2 16  2  0  0  0  0
  2  3  1  0  0  0  0
  2 13  1  0  0  0  0
  3  8  2  0  0  0  0
  3  4  1  0  0  0  0
  4 14  1  0  0  0  0
  5  1  1  1  0  0  0
  5 14  1  0  0  0  0
  5 10  1  0  0  0  0
  6  7  1  0  0  0  0
  7 13  1  0  0  0  0
  7 15  2  0  0  0  0
  8 15  1  0  0  0  0
  9 14  1  0  0  0  0
  9 24  1  0  0  0  0
 10 24  1  0  0  0  0
 10 11  1  6  0  0  0
 11 12  1  0  0  0  0
 12 19  1  0  0  0  0
 17 25  1  0  0  0  0
 19 25  1  0  0  0  0
 20 26  1  0  0  0  0
 21 26  1  0  0  0  0
 22 25  2  0  0  0  0
 23 26  2  0  0  0  0
 25 20  1  1  0  0  0
 26 18  1  1  0  0  0
M  CHG  2  17  -1  21  -1
M  END
>  <CHROM.1>
166.88943787,-96.11616563,172.22440456,-115.04956943,165.20697158,-150.11830341
-48.42436459,-138.87434359,-6.45897133,-16.58354367,20.72290107,-2.45847062
-0.06911335,-1.60494260

>  <Name>
ligand

>  <RI>
0

>  <Rbt.Current_Directory>
/home/itssahil/PROJECTS/Mol_Feturizer/New_Systems/rnas/3D2X

>  <Rbt.Executable>
rbdock ($Id: //depot/dev/client3/rdock/2013.1/src/exe/rbdock.cxx#4 $)

>  <Rbt.Library>
libRbt.so (2013.1, Build901 2013/11/27)

>  <Rbt.Parameter_File>
/export/apps/rDock/src/rDock_2013.1_src/data/scripts/dock_solv.prm

>  <Rbt.Receptor>
prm/blind_docking_100.prm

>  <SCORE>
-22.1128

>  <SCORE.INTER>
-23.3782

>  <SCORE.INTER.CONST>
1

>  <SCORE.INTER.POLAR>
0

>  <SCORE.INTER.ROT>
8

>  <SCORE.INTER.SOLV>
16.6493

>  <SCORE.INTER.VDW>
-30.0686

>  <SCORE.INTER.norm>
-0.899162

>  <SCORE.INTRA>
1.17023

>  <SCORE.INTRA.DIHEDRAL>
1.89385

>  <SCORE.INTRA.DIHEDRAL.0>
7.88077

>  <SCORE.INTRA.POLAR>
0

>  <SCORE.INTRA.POLAR.0>
0

>  <SCORE.INTRA.REPUL>
0

>  <SCORE.INTRA.REPUL.0>
0

>  <SCORE.INTRA.SOLV>
-0.921308

>  <SCORE.INTRA.SOLV.lig_0>
-63.2542

>  <SCORE.INTRA.VDW>
0.683962

>  <SCORE.INTRA.VDW.0>
-3.15072

>  <SCORE.INTRA.norm>
0.045009

>  <SCORE.RESTR>
0.0951875

>  <SCORE.RESTR.CAVITY>
0.0951875

>  <SCORE.RESTR.norm>
0.00366106

>  <SCORE.SYSTEM>
0

>  <SCORE.SYSTEM.CONST>
0

>  <SCORE.SYSTEM.DIHEDRAL>
0

>  <SCORE.SYSTEM.SOLV>
0

>  <SCORE.SYSTEM.norm>
0

>  <SCORE.heavy>
26

>  <SCORE.norm>
-0.850491

>  <RMSD>
3.756

$$$$
ligand
 OpenBabel11021811473D
libRbt.so/2013.1/901 2013/11/27
 26 27  0  0  0  0  0  0  0  0999 V2000
   -6.5037  -17.0422   19.2176 C   0  0  0  0  0  0  0  0  0  0  0  0
   -7.8276  -16.7942   23.8028 C   0  0  0  0  0  0  0  0  0  0  0  0
   -8.8259  -16.9088   22.8411 C   0  0  0  0  0  0  0  0  0  0  0  0
   -8.5406  -17.0143   21.3410 C   0  0  0  0  0  0  0  0  0  0  0  0
   -7.0269  -15.7568   19.8653 C   0  0  1  0  0  0  0  0  0  0  0  0
   -9.9241  -16.7378   26.9862 C   0  0  0  0  0  0  0  0  0  0  0  0
   -9.5271  -16.7868   25.5100 C   0  0  0  0  0  0  0  0  0  0  0  0
  -10.1472  -16.9519   23.2744 C   0  0  0  0  0  0  0  0  0  0  0  0
   -8.3531  -14.5857   21.2982 C   0  0  0  0  0  0  0  0  0  0  0  0
   -6.5758  -14.4997   19.4812 C   0  0  2  0  0  0  0  0  0  0  0  0
   -5.5544  -14.0813   18.4204 C   0  0  0  0  0  0  0  0  0  0  0  0
   -5.1711  -12.6025   18.5126 C   0  0  0  0  0  0  0  0  0  0  0  0
   -8.1729  -16.7324   25.1543 N   0  0  0  0  0  0  0  0  0  0  0  0
   -7.9568  -15.7679   20.8246 N   0  0  0  0  0  0  0  0  0  0  0  0
  -10.4622  -16.8932   24.5550 N   0  0  0  0  0  0  0  0  0  0  0  0
   -6.6434  -16.7508   23.4686 O   0  0  0  0  0  0  0  0  0  0  0  0
   -6.7916   -9.5874   16.9059 O   0  5  0  0  0  0  0  0  0  0  0  0
   -5.9619  -10.9646   21.2747 O   0  0  0  0  0  0  0  0  0  0  0  0
   -6.2749  -11.7478   18.1982 O   0  0  0  0  0  0  0  0  0  0  0  0
   -7.1435   -9.6463   19.4282 O   0  0  0  0  0  0  0  0  0  0  0  0
   -5.7852   -8.3840   21.2311 O   0  5  0  0  0  0  0  0  0  0  0  0
   -4.7499   -9.6964   18.4874 O   0  0  0  0  0  0  0  0  0  0  0  0
   -8.0064   -9.5219   21.8312 O   0  0  0  0  0  0  0  0  0  0  0  0
   -7.4006  -13.3585   20.5061 S   0  0  0  0  0  0  0  0  0  0  0  0
   -6.1448  -10.1443   18.2704 P   0  0  2  0  0  0  0  0  0  0  0  0
   -6.6572   -9.5481   20.9570 P   0  0  2  0  0  0  0  0  0  0  0  0
  2 16  2  0  0  0  0
  2  3  1  0  0  0  0
  2 13  1  0  0  0  0
  3  8  2  0  0  0  0
  3  4  1  0  0  0  0
  4 14  1  0  0  0  0
  5  1  1  6  0  0  0
  5 14  1  0  0  0  0
  5 10  1  0  0  0  0
  6  7  1  0  0  0  0
  7 13  1  0  0  0  0
  7 15  2  0  0  0  0
  8 15  1  0  0  0  0
  9 14  1  0  0  0  0
  9 24  1  0  0  0  0
 10 24  1  0  0  0  0
 10 11  1  1  0  0  0
 11 12  1  0  0  0  0
 12 19  1  0  0  0  0
 17 25  1  0  0  0  0
 19 25  1  0  0  0  0
 20 26  1  0  0  0  0
 21 26  1  0  0  0  0
 22 25  2  0  0  0  0
 23 26  2  0  0  0  0
 25 20  1  1  0  0  0
 26 18  1  1  0  0  0
M  CHG  2  17  -1  21  -1
M  END
>  <CHROM.1>
-66.58244802,-169.23646374,-66.32075806,144.33175566,177.92869237,-159.46190378
133.04745289,-49.61933933,-7.24617389,-13.27840750,20.98788270,-2.47373320
1.17017278,0.24600124

>  <Name>
ligand

>  <RI>
0

>  <Rbt.Current_Directory>
/home/itssahil/PROJECTS/Mol_Feturizer/New_Systems/rnas/3D2X

>  <Rbt.Executable>
rbdock ($Id: //depot/dev/client3/rdock/2013.1/src/exe/rbdock.cxx#4 $)

>  <Rbt.Library>
libRbt.so (2013.1, Build901 2013/11/27)

>  <Rbt.Parameter_File>
/export/apps/rDock/src/rDock_2013.1_src/data/scripts/dock_solv.prm

>  <Rbt.Receptor>
prm/pocket_docking_7.prm

>  <SCORE>
-17.4191

>  <SCORE.INTER>
-15.9476

>  <SCORE.INTER.CONST>
1

>  <SCORE.INTER.POLAR>
0

>  <SCORE.INTER.ROT>
8

>  <SCORE.INTER.SOLV>
18.4327

>  <SCORE.INTER.VDW>
-25.7093

>  <SCORE.INTER.norm>
-0.61337

>  <SCORE.INTRA>
-1.47144

>  <SCORE.INTRA.DIHEDRAL>
0.409513

>  <SCORE.INTRA.DIHEDRAL.0>
7.88077

>  <SCORE.INTRA.POLAR>
0

>  <SCORE.INTRA.POLAR.0>
0

>  <SCORE.INTRA.REPUL>
0

>  <SCORE.INTRA.REPUL.0>
0

>  <SCORE.INTRA.SOLV>
-2.40198

>  <SCORE.INTRA.SOLV.lig_0>
-63.2542

>  <SCORE.INTRA.VDW>
-0.475205

>  <SCORE.INTRA.VDW.0>
-3.15072

>  <SCORE.INTRA.norm>
-0.0565938

>  <SCORE.RESTR>
0

>  <SCORE.RESTR.CAVITY>
0

>  <SCORE.RESTR.norm>
0

>  <SCORE.SYSTEM>
0

>  <SCORE.SYSTEM.CONST>
0

>  <SCORE.SYSTEM.DIHEDRAL>
0

>  <SCORE.SYSTEM.SOLV>
0

>  <SCORE.SYSTEM.norm>
0

>  <SCORE.heavy>
26

>  <SCORE.norm>
-0.669964

>  <RMSD>
3.802

$$$$
ligand
 OpenBabel11021811473D
libRbt.so/2013.1/901 2013/11/27
 26 27  0  0  0  0  0  0  0  0999 V2000
   -7.3497  -13.4549   19.4112 C   0  0  0  0  0  0  0  0  0  0  0  0
   -8.6824  -14.7272   22.8978 C   0  0  0  0  0  0  0  0  0  0  0  0
   -9.0282  -15.7645   22.0380 C   0  0  0  0  0  0  0  0  0  0  0  0
   -8.9766  -15.6454   20.5130 C   0  0  0  0  0  0  0  0  0  0  0  0
   -6.8614  -14.9038   19.5000 C   0  0  1  0  0  0  0  0  0  0  0  0
   -9.1697  -16.4250   26.2761 C   0  0  0  0  0  0  0  0  0  0  0  0
   -9.1282  -16.1800   24.7670 C   0  0  0  0  0  0  0  0  0  0  0  0
   -9.4180  -16.9756   22.6007 C   0  0  0  0  0  0  0  0  0  0  0  0
   -7.0767  -17.1006   20.0575 C   0  0  0  0  0  0  0  0  0  0  0  0
   -5.5960  -15.2843   19.0695 C   0  0  2  0  0  0  0  0  0  0  0  0
   -4.4543  -14.4648   18.4625 C   0  0  0  0  0  0  0  0  0  0  0  0
   -3.8533  -13.4591   19.4473 C   0  0  0  0  0  0  0  0  0  0  0  0
   -8.7295  -14.9286   24.2788 N   0  0  0  0  0  0  0  0  0  0  0  0
   -7.6158  -15.8816   20.0096 N   0  0  0  0  0  0  0  0  0  0  0  0
   -9.4584  -17.1551   23.9079 N   0  0  0  0  0  0  0  0  0  0  0  0
   -8.3322  -13.6361   22.4476 O   0  0  0  0  0  0  0  0  0  0  0  0
   -1.4287  -12.4859   21.2092 O   0  5  0  0  0  0  0  0  0  0  0  0
   -3.7101  -12.0958   24.7514 O   0  0  0  0  0  0  0  0  0  0  0  0
   -3.3341  -14.1046   20.6140 O   0  0  0  0  0  0  0  0  0  0  0  0
   -3.7463  -12.1000   22.1936 O   0  0  0  0  0  0  0  0  0  0  0  0
   -2.2242  -10.4270   23.4478 O   0  5  0  0  0  0  0  0  0  0  0  0
   -2.3556  -14.1108   22.9931 O   0  0  0  0  0  0  0  0  0  0  0  0
   -4.7751  -10.1432   23.4770 O   0  0  0  0  0  0  0  0  0  0  0  0
   -5.5009  -17.0056   19.3167 S   0  0  0  0  0  0  0  0  0  0  0  0
   -2.6958  -13.2614   21.8285 P   0  0  2  0  0  0  0  0  0  0  0  0
   -3.5180  -11.1456   23.4665 P   0  0  2  0  0  0  0  0  0  0  0  0
  2 16  2  0  0  0  0
  2  3  1  0  0  0  0
  2 13  1  0  0  0  0
  3  8  2  0  0  0  0
  3  4  1  0  0  0  0
  4 14  1  0  0  0  0
  5  1  1  1  0  0  0
  5 14  1  0  0  0  0
  5 10  1  0  0  0  0
  6  7  1  0  0  0  0
  7 13  1  0  0  0  0
  7 15  2  0  0  0  0
  8 15  1  0  0  0  0
  9 14  1  0  0  0  0
  9 24  1  0  0  0  0
 10 24  1  0  0  0  0
 10 11  1  6  0  0  0
 11 12  1  0  0  0  0
 12 19  1  0  0  0  0
 17 25  1  0  0  0  0
 19 25  1  0  0  0  0
 20 26  1  0  0  0  0
 21 26  1  0  0  0  0
 22 25  2  0  0  0  0
 23 26  2  0  0  0  0
 25 20  1  1  0  0  0
 26 18  1  1  0  0  0
M  CHG  2  17  -1  21  -1
M  END
>  <CHROM.1>
82.89118438,66.53959939,59.15984488,-109.51641082,-177.72775165,-74.31224302
-61.70464169,-68.42929829,-5.63863754,-14.16164744,21.87912702,-2.83798118
0.56307964,1.07687378

>  <Name>
ligand

>  <RI>
0

>  <Rbt.Current_Directory>
/home/itssahil/PROJECTS/Mol_Feturizer/New_Systems/rnas/3D2X

>  <Rbt.Executable>
rbdock ($Id: //depot/dev/client3/rdock/2013.1/src/exe/rbdock.cxx#4 $)

>  <Rbt.Library>
libRbt.so (2013.1, Build901 2013/11/27)

>  <Rbt.Parameter_File>
/export/apps/rDock/src/rDock_2013.1_src/data/scripts/dock_solv.prm

>  <Rbt.Receptor>
prm/pocket_docking_7.prm

>  <SCORE>
-15.1688

>  <SCORE.INTER>
-12.1455

>  <SCORE.INTER.CONST>
1

>  <SCORE.INTER.POLAR>
0

>  <SCORE.INTER.ROT>
8

>  <SCORE.INTER.SOLV>
8.32065

>  <SCORE.INTER.VDW>
-19.8039

>  <SCORE.INTER.norm>
-0.467135

>  <SCORE.INTRA>
-3.02328

>  <SCORE.INTRA.DIHEDRAL>
-2.99909

>  <SCORE.INTRA.DIHEDRAL.0>
7.88077

>  <SCORE.INTRA.POLAR>
0

>  <SCORE.INTRA.POLAR.0>
0

>  <SCORE.INTRA.REPUL>
0

>  <SCORE.INTRA.REPUL.0>
0

>  <SCORE.INTRA.SOLV>
-1.20615

>  <SCORE.INTRA.SOLV.lig_0>
-63.2542

>  <SCORE.INTRA.VDW>
-0.920661

>  <SCORE.INTRA.VDW.0>
-3.15072

>  <SCORE.INTRA.norm>
-0.11628

>  <SCORE.RESTR>
0

>  <SCORE.RESTR.CAVITY>
0

>  <SCORE.RESTR.norm>
0

>  <SCORE.SYSTEM>
0

>  <SCORE.SYSTEM.CONST>
0

>  <SCORE.SYSTEM.DIHEDRAL>
0

>  <SCORE.SYSTEM.SOLV>
0

>  <SCORE.SYSTEM.norm>
0

>  <SCORE.heavy>
26

>  <SCORE.norm>
-0.583415

>  <RMSD>
3.822

$$$$
ligand
 OpenBabel11021811473D
libRbt.so/2013.1/901 2013/11/27
 26 27  0  0  0  0  0  0  0  0999 V2000
   -7.2083  -17.5260   23.0920 C   0  0  0  0  0  0  0  0  0  0  0  0
   -8.4874  -16.0472   26.9937 C   0  0  0  0  0  0  0  0  0  0  0  0
   -8.6125  -15.9809   25.6100 C   0  0  0  0  0  0  0  0  0  0  0  0
   -9.5221  -16.9097   24.8022 C   0  0  0  0  0  0  0  0  0  0  0  0
   -8.4675  -16.8190   22.5820 C   0  0  1  0  0  0  0  0  0  0  0  0
   -6.0627  -13.1723   27.6168 C   0  0  0  0  0  0  0  0  0  0  0  0
   -6.9640  -14.1831   26.9062 C   0  0  0  0  0  0  0  0  0  0  0  0
   -7.8882  -15.0031   24.9356 C   0  0  0  0  0  0  0  0  0  0  0  0
  -10.5609  -15.9554   22.8160 C   0  0  0  0  0  0  0  0  0  0  0  0
   -8.6075  -16.4248   21.2567 C   0  0  2  0  0  0  0  0  0  0  0  0
   -7.6629  -16.5720   20.0610 C   0  0  0  0  0  0  0  0  0  0  0  0
   -6.7202  -15.3777   19.8956 C   0  0  0  0  0  0  0  0  0  0  0  0
   -7.6566  -15.1420   27.6573 N   0  0  0  0  0  0  0  0  0  0  0  0
   -9.5088  -16.5543   23.3759 N   0  0  0  0  0  0  0  0  0  0  0  0
   -7.1061  -14.1520   25.5733 N   0  0  0  0  0  0  0  0  0  0  0  0
   -9.1072  -16.8961   27.6348 O   0  0  0  0  0  0  0  0  0  0  0  0
   -5.1058  -13.2469   18.7692 O   0  5  0  0  0  0  0  0  0  0  0  0
   -4.9954  -10.9995   17.4207 O   0  0  0  0  0  0  0  0  0  0  0  0
   -7.4011  -14.2330   19.3724 O   0  0  0  0  0  0  0  0  0  0  0  0
   -7.2043  -12.2543   17.7203 O   0  0  0  0  0  0  0  0  0  0  0  0
   -6.8204  -10.8317   15.5949 O   0  5  0  0  0  0  0  0  0  0  0  0
   -6.7565  -11.8941   20.2275 O   0  0  0  0  0  0  0  0  0  0  0  0
   -7.1597   -9.7031   17.8751 O   0  0  0  0  0  0  0  0  0  0  0  0
  -10.1547  -15.6322   21.1513 S   0  0  0  0  0  0  0  0  0  0  0  0
   -6.6290  -12.8462   19.1004 P   0  0  2  0  0  0  0  0  0  0  0  0
   -6.5602  -10.9444   17.0474 P   0  0  2  0  0  0  0  0  0  0  0  0
  2 16  2  0  0  0  0
  2  3  1  0  0  0  0
  2 13  1  0  0  0  0
  3  8  2  0  0  0  0
  3  4  1  0  0  0  0
  4 14  1  0  0  0  0
  5  1  1  6  0  0  0
  5 14  1  0  0  0  0
  5 10  1  0  0  0  0
  6  7  1  0  0  0  0
  7 13  1  0  0  0  0
  7 15  2  0  0  0  0
  8 15  1  0  0  0  0
  9 14  1  0  0  0  0
  9 24  1  0  0  0  0
 10 24  1  0  0  0  0
 10 11  1  1  0  0  0
 11 12  1  0  0  0  0
 12 19  1  0  0  0  0
 17 25  1  0  0  0  0
 19 25  1  0  0  0  0
 20 26  1  0  0  0  0
 21 26  1  0  0  0  0
 22 25  2  0  0  0  0
 23 26  2  0  0  0  0
 25 20  1  6  0  0  0
 26 18  1  1  0  0  0
M  CHG  2  17  -1  21  -1
M  END
>  <CHROM.1>
176.66779969,-90.58556589,-74.44887667,73.61614088,-179.77839488,-61.66206717
28.95050014,32.61148178,-7.60825359,-14.16816472,21.58317371,1.92318171,0.98018662
1.74725901

>  <Name>
ligand

>  <RI>
0

>  <Rbt.Current_Directory>
/home/itssahil/PROJECTS/Mol_Feturizer/New_Systems/rnas/3D2X

>  <Rbt.Executable>
rbdock ($Id: //depot/dev/client3/rdock/2013.1/src/exe/rbdock.cxx#4 $)

>  <Rbt.Library>
libRbt.so (2013.1, Build901 2013/11/27)

>  <Rbt.Parameter_File>
/export/apps/rDock/src/rDock_2013.1_src/data/scripts/dock_solv.prm

>  <Rbt.Receptor>
prm/pocket_docking_5.prm

>  <SCORE>
-18.9401

>  <SCORE.INTER>
-18.7177

>  <SCORE.INTER.CONST>
1

>  <SCORE.INTER.POLAR>
0

>  <SCORE.INTER.ROT>
8

>  <SCORE.INTER.SOLV>
18.0975

>  <SCORE.INTER.VDW>
-27.4443

>  <SCORE.INTER.norm>
-0.719911

>  <SCORE.INTRA>
-0.222467

>  <SCORE.INTRA.DIHEDRAL>
0.0259363

>  <SCORE.INTRA.DIHEDRAL.0>
7.88077

>  <SCORE.INTRA.POLAR>
0

>  <SCORE.INTRA.POLAR.0>
0

>  <SCORE.INTRA.REPUL>
0

>  <SCORE.INTRA.REPUL.0>
0

>  <SCORE.INTRA.SOLV>
-1.13296

>  <SCORE.INTRA.SOLV.lig_0>
-63.2542

>  <SCORE.INTRA.VDW>
0.331045

>  <SCORE.INTRA.VDW.0>
-3.15072

>  <SCORE.INTRA.norm>
-0.00855643

>  <SCORE.RESTR>
0

>  <SCORE.RESTR.CAVITY>
0

>  <SCORE.RESTR.norm>
0

>  <SCORE.SYSTEM>
0

>  <SCORE.SYSTEM.CONST>
0

>  <SCORE.SYSTEM.DIHEDRAL>
0

>  <SCORE.SYSTEM.SOLV>
0

>  <SCORE.SYSTEM.norm>
0

>  <SCORE.heavy>
26

>  <SCORE.norm>
-0.728467

>  <RMSD>
3.865

$$$$
ligand
 OpenBabel11021811473D
libRbt.so/2013.1/901 2013/11/27
 26 27  0  0  0  0  0  0  0  0999 V2000
   -6.0825  -14.7594   23.9815 C   0  0  0  0  0  0  0  0  0  0  0  0
   -8.9570  -16.8292   27.5492 C   0  0  0  0  0  0  0  0  0  0  0  0
   -8.3002  -16.1341   26.5391 C   0  0  0  0  0  0  0  0  0  0  0  0
   -6.8945  -15.5497   26.6971 C   0  0  0  0  0  0  0  0  0  0  0  0
   -6.4888  -13.7554   25.0643 C   0  0  1  0  0  0  0  0  0  0  0  0
  -12.1999  -17.7523   25.7704 C   0  0  0  0  0  0  0  0  0  0  0  0
  -10.8152  -17.1682   26.0540 C   0  0  0  0  0  0  0  0  0  0  0  0
   -8.9517  -15.9865   25.3187 C   0  0  0  0  0  0  0  0  0  0  0  0
   -7.2149  -13.1762   27.1429 C   0  0  0  0  0  0  0  0  0  0  0  0
   -6.5112  -12.3857   24.8304 C   0  0  2  0  0  0  0  0  0  0  0  0
   -6.1849  -11.5774   23.5720 C   0  0  0  0  0  0  0  0  0  0  0  0
   -6.9733  -12.0407   22.3448 C   0  0  0  0  0  0  0  0  0  0  0  0
  -10.2284  -17.3558   27.3125 N   0  0  0  0  0  0  0  0  0  0  0  0
   -6.8595  -14.1377   26.2896 N   0  0  0  0  0  0  0  0  0  0  0  0
  -10.1536  -16.4891   25.1059 N   0  0  0  0  0  0  0  0  0  0  0  0
   -8.4221  -16.9848   28.6471 O   0  0  0  0  0  0  0  0  0  0  0  0
   -5.9499   -8.7809   21.6442 O   0  5  0  0  0  0  0  0  0  0  0  0
   -7.1167   -9.0551   17.1746 O   0  0  0  0  0  0  0  0  0  0  0  0
   -6.7544  -11.1844   21.2194 O   0  0  0  0  0  0  0  0  0  0  0  0
   -7.5213   -9.2437   19.6933 O   0  0  0  0  0  0  0  0  0  0  0  0
   -5.1401   -9.6038   18.7507 O   0  5  0  0  0  0  0  0  0  0  0  0
   -8.4115   -9.4249   22.0999 O   0  0  0  0  0  0  0  0  0  0  0  0
   -6.9843  -11.3390   18.3310 O   0  0  0  0  0  0  0  0  0  0  0  0
   -6.9809  -11.6479   26.3365 S   0  0  0  0  0  0  0  0  0  0  0  0
   -7.2386   -9.6486   21.2237 P   0  0  2  0  0  0  0  0  0  0  0  0
   -6.5875   -9.7906   18.5049 P   0  0  2  0  0  0  0  0  0  0  0  0
  2 16  2  0  0  0  0
  2  3  1  0  0  0  0
  2 13  1  0  0  0  0
  3  8  2  0  0  0  0
  3  4  1  0  0  0  0
  4 14  1  0  0  0  0
  5  1  1  6  0  0  0
  5 14  1  0  0  0  0
  5 10  1  0  0  0  0
  6  7  1  0  0  0  0
  7 13  1  0  0  0  0
  7 15  2  0  0  0  0
  8 15  1  0  0  0  0
  9 14  1  0  0  0  0
  9 24  1  0  0  0  0
 10 24  1  0  0  0  0
 10 11  1  1  0  0  0
 11 12  1  0  0  0  0
 12 19  1  0  0  0  0
 17 25  1  0  0  0  0
 19 25  1  0  0  0  0
 20 26  1  0  0  0  0
 21 26  1  0  0  0  0
 22 25  2  0  0  0  0
 23 26  2  0  0  0  0
 25 20  1  6  0  0  0
 26 18  1  6  0  0  0
M  CHG  2  17  -1  21  -1
M  END
>  <CHROM.1>
-129.39738445,53.85276550,173.98464085,-95.57839226,-65.39757622,74.64886716
96.74932124,-174.93944848,-7.56226403,-12.66392635,23.35925393,-1.93786982
-0.87587728,-1.12645755

>  <Name>
ligand

>  <RI>
0

>  <Rbt.Current_Directory>
/home/itssahil/PROJECTS/Mol_Feturizer/New_Systems/rnas/3D2X

>  <Rbt.Executable>
rbdock ($Id: //depot/dev/client3/rdock/2013.1/src/exe/rbdock.cxx#4 $)

>  <Rbt.Library>
libRbt.so (2013.1, Build901 2013/11/27)

>  <Rbt.Parameter_File>
/export/apps/rDock/src/rDock_2013.1_src/data/scripts/dock_solv.prm

>  <Rbt.Receptor>
prm/pocket_docking_6.prm

>  <SCORE>
-23.8041

>  <SCORE.INTER>
-23.7277

>  <SCORE.INTER.CONST>
1

>  <SCORE.INTER.POLAR>
0

>  <SCORE.INTER.ROT>
8

>  <SCORE.INTER.SOLV>
17.72

>  <SCORE.INTER.VDW>
-30.6585

>  <SCORE.INTER.norm>
-0.912604

>  <SCORE.INTRA>
-0.123505

>  <SCORE.INTRA.DIHEDRAL>
-1.04628

>  <SCORE.INTRA.DIHEDRAL.0>
7.88077

>  <SCORE.INTRA.POLAR>
0

>  <SCORE.INTRA.POLAR.0>
0

>  <SCORE.INTRA.REPUL>
0

>  <SCORE.INTRA.REPUL.0>
0

>  <SCORE.INTRA.SOLV>
0.839204

>  <SCORE.INTRA.SOLV.lig_0>
-63.2542

>  <SCORE.INTRA.VDW>
-0.0199674

>  <SCORE.INTRA.VDW.0>
-3.15072

>  <SCORE.INTRA.norm>
-0.0047502

>  <SCORE.RESTR>
0.0470823

>  <SCORE.RESTR.CAVITY>
0.0470823

>  <SCORE.RESTR.norm>
0.00181086

>  <SCORE.SYSTEM>
0

>  <SCORE.SYSTEM.CONST>
0

>  <SCORE.SYSTEM.DIHEDRAL>
0

>  <SCORE.SYSTEM.SOLV>
0

>  <SCORE.SYSTEM.norm>
0

>  <SCORE.heavy>
26

>  <SCORE.norm>
-0.915544

>  <RMSD>
3.872

$$$$
ligand
 OpenBabel11021811473D
libRbt.so/2013.1/901 2013/11/27
 26 27  0  0  0  0  0  0  0  0999 V2000
   -7.0638  -17.5392   23.3168 C   0  0  0  0  0  0  0  0  0  0  0  0
   -8.3980  -15.8664   27.0423 C   0  0  0  0  0  0  0  0  0  0  0  0
   -8.5357  -15.8295   25.6586 C   0  0  0  0  0  0  0  0  0  0  0  0
   -9.4414  -16.7848   24.8778 C   0  0  0  0  0  0  0  0  0  0  0  0
   -8.2903  -16.8556   22.7052 C   0  0  1  0  0  0  0  0  0  0  0  0
   -6.0011  -12.9523   27.5860 C   0  0  0  0  0  0  0  0  0  0  0  0
   -6.8969  -13.9874   26.9038 C   0  0  0  0  0  0  0  0  0  0  0  0
   -7.8284  -14.8575   24.9584 C   0  0  0  0  0  0  0  0  0  0  0  0
  -10.3804  -15.9568   22.7879 C   0  0  0  0  0  0  0  0  0  0  0  0
   -8.3676  -16.5508   21.3515 C   0  0  2  0  0  0  0  0  0  0  0  0
   -7.3740  -16.7883   20.2114 C   0  0  0  0  0  0  0  0  0  0  0  0
   -7.0493  -15.5140   19.4285 C   0  0  0  0  0  0  0  0  0  0  0  0
   -7.5720  -14.9387   27.6801 N   0  0  0  0  0  0  0  0  0  0  0  0
   -9.3616  -16.5271   23.4327 N   0  0  0  0  0  0  0  0  0  0  0  0
   -7.0507  -13.9849   25.5719 N   0  0  0  0  0  0  0  0  0  0  0  0
   -9.0025  -16.7091   27.7057 O   0  0  0  0  0  0  0  0  0  0  0  0
   -4.7531  -13.1942   19.2895 O   0  5  0  0  0  0  0  0  0  0  0  0
   -5.2585  -11.0643   17.6960 O   0  0  0  0  0  0  0  0  0  0  0  0
   -6.7792  -14.4109   20.2991 O   0  0  0  0  0  0  0  0  0  0  0  0
   -7.0762  -12.7424   18.3468 O   0  0  0  0  0  0  0  0  0  0  0  0
   -7.1736  -11.5843   16.0364 O   0  5  0  0  0  0  0  0  0  0  0  0
   -6.4815  -11.8872   20.6988 O   0  0  0  0  0  0  0  0  0  0  0  0
   -7.6417  -10.2549   18.1816 O   0  0  0  0  0  0  0  0  0  0  0  0
   -9.8982  -15.7515   21.1248 S   0  0  0  0  0  0  0  0  0  0  0  0
   -6.2882  -12.9879   19.7270 P   0  0  2  0  0  0  0  0  0  0  0  0
   -6.8091  -11.4272   17.4622 P   0  0  2  0  0  0  0  0  0  0  0  0
  2 16  2  0  0  0  0
  2  3  1  0  0  0  0
  2 13  1  0  0  0  0
  3  8  2  0  0  0  0
  3  4  1  0  0  0  0
  4 14  1  0  0  0  0
  5  1  1  6  0  0  0
  5 14  1  0  0  0  0
  5 10  1  0  0  0  0
  6  7  1  0  0  0  0
  7 13  1  0  0  0  0
  7 15  2  0  0  0  0
  8 15  1  0  0  0  0
  9 14  1  0  0  0  0
  9 24  1  0  0  0  0
 10 24  1  0  0  0  0
 10 11  1  1  0  0  0
 11 12  1  0  0  0  0
 12 19  1  0  0  0  0
 17 25  1  0  0  0  0
 19 25  1  0  0  0  0
 20 26  1  0  0  0  0
 21 26  1  0  0  0  0
 22 25  2  0  0  0  0
 23 26  2  0  0  0  0
 25 20  1  6  0  0  0
 26 18  1  1  0  0  0
M  CHG  2  17  -1  21  -1
M  END
>  <CHROM.1>
-178.80503109,-126.50580681,45.96383900,72.56180672,174.70815010,-66.22537097
-73.89848586,32.23539149,-7.52353060,-14.26378173,21.80675044,1.91033289
1.00415080,1.71324876

>  <Name>
ligand

>  <RI>
0

>  <Rbt.Current_Directory>
/home/itssahil/PROJECTS/Mol_Feturizer/New_Systems/rnas/3D2X

>  <Rbt.Executable>
rbdock ($Id: //depot/dev/client3/rdock/2013.1/src/exe/rbdock.cxx#4 $)

>  <Rbt.Library>
libRbt.so (2013.1, Build901 2013/11/27)

>  <Rbt.Parameter_File>
/export/apps/rDock/src/rDock_2013.1_src/data/scripts/dock_solv.prm

>  <Rbt.Receptor>
prm/pocket_docking_6.prm

>  <SCORE>
-17.9544

>  <SCORE.INTER>
-17.0314

>  <SCORE.INTER.CONST>
1

>  <SCORE.INTER.POLAR>
0

>  <SCORE.INTER.ROT>
8

>  <SCORE.INTER.SOLV>
15.6514

>  <SCORE.INTER.VDW>
-25.5047

>  <SCORE.INTER.norm>
-0.655053

>  <SCORE.INTRA>
-0.92307

>  <SCORE.INTRA.DIHEDRAL>
-0.520949

>  <SCORE.INTRA.DIHEDRAL.0>
7.88077

>  <SCORE.INTRA.POLAR>
0

>  <SCORE.INTRA.POLAR.0>
0

>  <SCORE.INTRA.REPUL>
0

>  <SCORE.INTRA.REPUL.0>
0

>  <SCORE.INTRA.SOLV>
-1.49493

>  <SCORE.INTRA.SOLV.lig_0>
-63.2542

>  <SCORE.INTRA.VDW>
0.0848713

>  <SCORE.INTRA.VDW.0>
-3.15072

>  <SCORE.INTRA.norm>
-0.0355027

>  <SCORE.RESTR>
0

>  <SCORE.RESTR.CAVITY>
0

>  <SCORE.RESTR.norm>
0

>  <SCORE.SYSTEM>
0

>  <SCORE.SYSTEM.CONST>
0

>  <SCORE.SYSTEM.DIHEDRAL>
0

>  <SCORE.SYSTEM.SOLV>
0

>  <SCORE.SYSTEM.norm>
0

>  <SCORE.heavy>
26

>  <SCORE.norm>
-0.690555

>  <RMSD>
3.898

$$$$
ligand
 OpenBabel11021811473D
libRbt.so/2013.1/901 2013/11/27
 26 27  0  0  0  0  0  0  0  0999 V2000
   -6.3624  -17.2268   19.1111 C   0  0  0  0  0  0  0  0  0  0  0  0
   -9.7219  -16.3112   23.2792 C   0  0  0  0  0  0  0  0  0  0  0  0
   -8.5855  -16.7402   22.6016 C   0  0  0  0  0  0  0  0  0  0  0  0
   -8.5244  -16.9031   21.0809 C   0  0  0  0  0  0  0  0  0  0  0  0
   -6.8975  -15.8629   19.5573 C   0  0  1  0  0  0  0  0  0  0  0  0
   -8.4281  -16.2756   26.8650 C   0  0  0  0  0  0  0  0  0  0  0  0
   -8.4937  -16.4502   25.3470 C   0  0  0  0  0  0  0  0  0  0  0  0
   -7.4438  -17.0113   23.3489 C   0  0  0  0  0  0  0  0  0  0  0  0
   -8.2841  -14.5023   20.7444 C   0  0  0  0  0  0  0  0  0  0  0  0
   -6.3976  -14.6707   19.0472 C   0  0  2  0  0  0  0  0  0  0  0  0
   -5.3048  -14.4036   18.0090 C   0  0  0  0  0  0  0  0  0  0  0  0
   -5.0196  -12.9127   17.8137 C   0  0  0  0  0  0  0  0  0  0  0  0
   -9.6844  -16.1613   24.6670 N   0  0  0  0  0  0  0  0  0  0  0  0
   -7.8842  -15.7401   20.4496 N   0  0  0  0  0  0  0  0  0  0  0  0
   -7.4194  -16.8656   24.6607 N   0  0  0  0  0  0  0  0  0  0  0  0
  -10.7571  -16.0601   22.6619 O   0  0  0  0  0  0  0  0  0  0  0  0
   -6.6987  -10.5394   15.3361 O   0  5  0  0  0  0  0  0  0  0  0  0
   -5.6353   -8.2414   19.1024 O   0  0  0  0  0  0  0  0  0  0  0  0
   -6.1063  -12.2453   17.1646 O   0  0  0  0  0  0  0  0  0  0  0  0
   -7.0462   -9.9174   17.7818 O   0  0  0  0  0  0  0  0  0  0  0  0
   -7.7443   -9.2742   20.1875 O   0  5  0  0  0  0  0  0  0  0  0  0
   -4.6531  -10.1438   16.8660 O   0  0  0  0  0  0  0  0  0  0  0  0
   -5.6600  -10.7146   19.7762 O   0  0  0  0  0  0  0  0  0  0  0  0
   -7.2597  -13.3980   19.8659 S   0  0  0  0  0  0  0  0  0  0  0  0
   -6.0318  -10.6799   16.7941 P   0  0  2  0  0  0  0  0  0  0  0  0
   -6.6050   -9.5146   19.2740 P   0  0  2  0  0  0  0  0  0  0  0  0
  2 16  2  0  0  0  0
  2  3  1  0  0  0  0
  2 13  1  0  0  0  0
  3  8  2  0  0  0  0
  3  4  1  0  0  0  0
  4 14  1  0  0  0  0
  5  1  1  6  0  0  0
  5 14  1  0  0  0  0
  5 10  1  0  0  0  0
  6  7  1  0  0  0  0
  7 13  1  0  0  0  0
  7 15  2  0  0  0  0
  8 15  1  0  0  0  0
  9 14  1  0  0  0  0
  9 24  1  0  0  0  0
 10 24  1  0  0  0  0
 10 11  1  1  0  0  0
 11 12  1  0  0  0  0
 12 19  1  0  0  0  0
 17 25  1  0  0  0  0
 19 25  1  0  0  0  0
 20 26  1  0  0  0  0
 21 26  1  0  0  0  0
 22 25  2  0  0  0  0
 23 26  2  0  0  0  0
 25 20  1  1  0  0  0
 26 18  1  6  0  0  0
M  CHG  2  17  -1  21  -1
M  END
>  <CHROM.1>
99.09343002,-176.37291141,-69.65168199,130.34079992,-177.71899088,-165.43601456
139.45818562,75.49145119,-7.13909454,-13.31588013,20.11080826,-2.49328395
1.20550952,0.12303424

>  <Name>
ligand

>  <RI>
0

>  <Rbt.Current_Directory>
/home/itssahil/PROJECTS/Mol_Feturizer/New_Systems/rnas/3D2X

>  <Rbt.Executable>
rbdock ($Id: //depot/dev/client3/rdock/2013.1/src/exe/rbdock.cxx#4 $)

>  <Rbt.Library>
libRbt.so (2013.1, Build901 2013/11/27)

>  <Rbt.Parameter_File>
/export/apps/rDock/src/rDock_2013.1_src/data/scripts/dock_solv.prm

>  <Rbt.Receptor>
prm/pocket_docking_5.prm

>  <SCORE>
-17.4655

>  <SCORE.INTER>
-16.9325

>  <SCORE.INTER.CONST>
1

>  <SCORE.INTER.POLAR>
0

>  <SCORE.INTER.ROT>
8

>  <SCORE.INTER.SOLV>
21.2897

>  <SCORE.INTER.VDW>
-27.3182

>  <SCORE.INTER.norm>
-0.651249

>  <SCORE.INTRA>
-0.533024

>  <SCORE.INTRA.DIHEDRAL>
0.185254

>  <SCORE.INTRA.DIHEDRAL.0>
7.88077

>  <SCORE.INTRA.POLAR>
0

>  <SCORE.INTRA.POLAR.0>
0

>  <SCORE.INTRA.REPUL>
0

>  <SCORE.INTRA.REPUL.0>
0

>  <SCORE.INTRA.SOLV>
-0.000943635

>  <SCORE.INTRA.SOLV.lig_0>
-63.2542

>  <SCORE.INTRA.VDW>
-0.625179

>  <SCORE.INTRA.VDW.0>
-3.15072

>  <SCORE.INTRA.norm>
-0.0205009

>  <SCORE.RESTR>
0

>  <SCORE.RESTR.CAVITY>
0

>  <SCORE.RESTR.norm>
0

>  <SCORE.SYSTEM>
0

>  <SCORE.SYSTEM.CONST>
0

>  <SCORE.SYSTEM.DIHEDRAL>
0

>  <SCORE.SYSTEM.SOLV>
0

>  <SCORE.SYSTEM.norm>
0

>  <SCORE.heavy>
26

>  <SCORE.norm>
-0.67175

>  <RMSD>
3.905

$$$$
ligand
 OpenBabel11021811473D
libRbt.so/2013.1/901 2013/11/27
 26 27  0  0  0  0  0  0  0  0999 V2000
   -7.1988  -14.1291   19.6904 C   0  0  0  0  0  0  0  0  0  0  0  0
   -7.8191  -16.9103   22.3349 C   0  0  0  0  0  0  0  0  0  0  0  0
   -8.9182  -16.4542   21.6148 C   0  0  0  0  0  0  0  0  0  0  0  0
   -8.9753  -16.4415   20.0853 C   0  0  0  0  0  0  0  0  0  0  0  0
   -6.8127  -15.5618   19.3108 C   0  0  1  0  0  0  0  0  0  0  0  0
   -9.0866  -16.4688   25.9029 C   0  0  0  0  0  0  0  0  0  0  0  0
   -9.0163  -16.4554   24.3752 C   0  0  0  0  0  0  0  0  0  0  0  0
  -10.0268  -16.0097   22.3283 C   0  0  0  0  0  0  0  0  0  0  0  0
   -7.1811  -17.8032   19.1569 C   0  0  0  0  0  0  0  0  0  0  0  0
   -5.5766  -15.8712   18.7560 C   0  0  2  0  0  0  0  0  0  0  0  0
   -4.3801  -14.9804   18.4120 C   0  0  0  0  0  0  0  0  0  0  0  0
   -3.3133  -14.9652   19.5093 C   0  0  0  0  0  0  0  0  0  0  0  0
   -7.8602  -16.9150   23.7306 N   0  0  0  0  0  0  0  0  0  0  0  0
   -7.6339  -16.5977   19.5045 N   0  0  0  0  0  0  0  0  0  0  0  0
  -10.0549  -16.0191   23.6480 N   0  0  0  0  0  0  0  0  0  0  0  0
   -6.8140  -17.3125   21.7484 O   0  0  0  0  0  0  0  0  0  0  0  0
   -4.7202  -12.3119   22.0281 O   0  5  0  0  0  0  0  0  0  0  0  0
   -2.6108  -12.6400   23.7052 O   0  0  0  0  0  0  0  0  0  0  0  0
   -3.7685  -14.2835   20.6823 O   0  0  0  0  0  0  0  0  0  0  0  0
   -2.3129  -12.2110   21.2011 O   0  0  0  0  0  0  0  0  0  0  0  0
   -1.1745  -14.2615   22.2910 O   0  5  0  0  0  0  0  0  0  0  0  0
   -4.2377  -12.0462   19.5026 O   0  0  0  0  0  0  0  0  0  0  0  0
   -0.3375  -11.8871   22.7908 O   0  0  0  0  0  0  0  0  0  0  0  0
   -5.6021  -17.5855   18.4499 S   0  0  0  0  0  0  0  0  0  0  0  0
   -3.7897  -12.6755   20.7662 P   0  0  2  0  0  0  0  0  0  0  0  0
   -1.5856  -12.8527   22.4827 P   0  0  2  0  0  0  0  0  0  0  0  0
  2 16  2  0  0  0  0
  2  3  1  0  0  0  0
  2 13  1  0  0  0  0
  3  8  2  0  0  0  0
  3  4  1  0  0  0  0
  4 14  1  0  0  0  0
  5  1  1  1  0  0  0
  5 14  1  0  0  0  0
  5 10  1  0  0  0  0
  6  7  1  0  0  0  0
  7 13  1  0  0  0  0
  7 15  2  0  0  0  0
  8 15  1  0  0  0  0
  9 14  1  0  0  0  0
  9 24  1  0  0  0  0
 10 24  1  0  0  0  0
 10 11  1  6  0  0  0
 11 12  1  0  0  0  0
 12 19  1  0  0  0  0
 17 25  1  0  0  0  0
 19 25  1  0  0  0  0
 20 26  1  0  0  0  0
 21 26  1  0  0  0  0
 22 25  2  0  0  0  0
 23 26  2  0  0  0  0
 25 20  1  1  0  0  0
 26 18  1  1  0  0  0
M  CHG  2  17  -1  21  -1
M  END
>  <CHROM.1>
-16.05065058,96.30085856,-69.46717061,-85.31137886,-78.66846457,60.80260385
164.72415804,-54.65591656,-5.38494827,-14.87736120,21.24038349,-2.99379254
0.54292607,1.25694632

>  <Name>
ligand

>  <RI>
0

>  <Rbt.Current_Directory>
/home/itssahil/PROJECTS/Mol_Feturizer/New_Systems/rnas/3D2X

>  <Rbt.Executable>
rbdock ($Id: //depot/dev/client3/rdock/2013.1/src/exe/rbdock.cxx#4 $)

>  <Rbt.Library>
libRbt.so (2013.1, Build901 2013/11/27)

>  <Rbt.Parameter_File>
/export/apps/rDock/src/rDock_2013.1_src/data/scripts/dock_solv.prm

>  <Rbt.Receptor>
prm/pocket_docking_5.prm

>  <SCORE>
-14.9041

>  <SCORE.INTER>
-14.3992

>  <SCORE.INTER.CONST>
1

>  <SCORE.INTER.POLAR>
0

>  <SCORE.INTER.ROT>
8

>  <SCORE.INTER.SOLV>
9.93559

>  <SCORE.INTER.VDW>
-21.8446

>  <SCORE.INTER.norm>
-0.553814

>  <SCORE.INTRA>
-0.504903

>  <SCORE.INTRA.DIHEDRAL>
-0.177093

>  <SCORE.INTRA.DIHEDRAL.0>
7.88077

>  <SCORE.INTRA.POLAR>
0

>  <SCORE.INTRA.POLAR.0>
0

>  <SCORE.INTRA.REPUL>
0

>  <SCORE.INTRA.REPUL.0>
0

>  <SCORE.INTRA.SOLV>
1.02683

>  <SCORE.INTRA.SOLV.lig_0>
-63.2542

>  <SCORE.INTRA.VDW>
-0.92977

>  <SCORE.INTRA.VDW.0>
-3.15072

>  <SCORE.INTRA.norm>
-0.0194193

>  <SCORE.RESTR>
0

>  <SCORE.RESTR.CAVITY>
0

>  <SCORE.RESTR.norm>
0

>  <SCORE.SYSTEM>
0

>  <SCORE.SYSTEM.CONST>
0

>  <SCORE.SYSTEM.DIHEDRAL>
0

>  <SCORE.SYSTEM.SOLV>
0

>  <SCORE.SYSTEM.norm>
0

>  <SCORE.heavy>
26

>  <SCORE.norm>
-0.573234

>  <RMSD>
3.908

$$$$
ligand
 OpenBabel11021811473D
libRbt.so/2013.1/901 2013/11/27
 26 27  0  0  0  0  0  0  0  0999 V2000
   -6.4148  -14.3595   26.6988 C   0  0  0  0  0  0  0  0  0  0  0  0
   -9.9615  -17.0745   26.6099 C   0  0  0  0  0  0  0  0  0  0  0  0
   -9.3509  -16.8359   25.3832 C   0  0  0  0  0  0  0  0  0  0  0  0
   -7.8756  -16.4549   25.2380 C   0  0  0  0  0  0  0  0  0  0  0  0
   -7.0771  -14.1305   25.3370 C   0  0  1  0  0  0  0  0  0  0  0  0
  -13.4827  -17.9921   25.4734 C   0  0  0  0  0  0  0  0  0  0  0  0
  -12.0131  -17.5694   25.4483 C   0  0  0  0  0  0  0  0  0  0  0  0
  -10.1212  -16.9747   24.2331 C   0  0  0  0  0  0  0  0  0  0  0  0
   -8.2473  -14.7900   23.4988 C   0  0  0  0  0  0  0  0  0  0  0  0
   -7.0231  -12.9036   24.6865 C   0  0  2  0  0  0  0  0  0  0  0  0
   -6.3587  -11.5840   25.0873 C   0  0  0  0  0  0  0  0  0  0  0  0
   -4.8967  -11.7558   25.5061 C   0  0  0  0  0  0  0  0  0  0  0  0
  -11.3068  -17.4463   26.6522 N   0  0  0  0  0  0  0  0  0  0  0  0
   -7.7308  -15.0989   24.6891 N   0  0  0  0  0  0  0  0  0  0  0  0
  -11.3923  -17.3272   24.2848 N   0  0  0  0  0  0  0  0  0  0  0  0
   -9.3216  -16.9632   27.6559 O   0  0  0  0  0  0  0  0  0  0  0  0
   -2.8913   -9.2696   24.9210 O   0  5  0  0  0  0  0  0  0  0  0  0
   -0.7307  -10.7232   24.0270 O   0  0  0  0  0  0  0  0  0  0  0  0
   -4.0017  -11.5308   24.4125 O   0  0  0  0  0  0  0  0  0  0  0  0
   -2.7647  -10.2183   22.5602 O   0  0  0  0  0  0  0  0  0  0  0  0
   -1.7436  -12.5944   22.5556 O   0  5  0  0  0  0  0  0  0  0  0  0
   -5.0206   -9.3698   23.4590 O   0  0  0  0  0  0  0  0  0  0  0  0
   -0.4869  -10.6335   21.4768 O   0  0  0  0  0  0  0  0  0  0  0  0
   -7.9393  -13.0967   23.2180 S   0  0  0  0  0  0  0  0  0  0  0  0
   -3.7571  -10.0555   23.8150 P   0  0  2  0  0  0  0  0  0  0  0  0
   -1.4555  -11.1460   22.6534 P   0  0  2  0  0  0  0  0  0  0  0  0
  2 16  2  0  0  0  0
  2  3  1  0  0  0  0
  2 13  1  0  0  0  0
  3  8  2  0  0  0  0
  3  4  1  0  0  0  0
  4 14  1  0  0  0  0
  5  1  1  6  0  0  0
  5 14  1  0  0  0  0
  5 10  1  0  0  0  0
  6  7  1  0  0  0  0
  7 13  1  0  0  0  0
  7 15  2  0  0  0  0
  8 15  1  0  0  0  0
  9 14  1  0  0  0  0
  9 24  1  0  0  0  0
 10 24  1  0  0  0  0
 10 11  1  1  0  0  0
 11 12  1  0  0  0  0
 12 19  1  0  0  0  0
 17 25  1  0  0  0  0
 19 25  1  0  0  0  0
 20 26  1  0  0  0  0
 21 26  1  0  0  0  0
 22 25  2  0  0  0  0
 23 26  2  0  0  0  0
 25 20  1  6  0  0  0
 26 18  1  1  0  0  0
M  CHG  2  17  -1  21  -1
M  END
>  <CHROM.1>
-115.29173858,50.19810362,94.19434007,121.63510696,71.36620585,66.75279487
71.87031928,-48.15226869,-6.20415892,-13.33743975,24.39567472,-2.83357986
-0.62121725,-1.42037693

>  <Name>
ligand

>  <RI>
0

>  <Rbt.Current_Directory>
/home/itssahil/PROJECTS/Mol_Feturizer/New_Systems/rnas/3D2X

>  <Rbt.Executable>
rbdock ($Id: //depot/dev/client3/rdock/2013.1/src/exe/rbdock.cxx#4 $)

>  <Rbt.Library>
libRbt.so (2013.1, Build901 2013/11/27)

>  <Rbt.Parameter_File>
/export/apps/rDock/src/rDock_2013.1_src/data/scripts/dock_solv.prm

>  <Rbt.Receptor>
prm/pocket_docking_6.prm

>  <SCORE>
-19.4618

>  <SCORE.INTER>
-19.741

>  <SCORE.INTER.CONST>
1

>  <SCORE.INTER.POLAR>
0

>  <SCORE.INTER.ROT>
8

>  <SCORE.INTER.SOLV>
8.01047

>  <SCORE.INTER.VDW>
-24.7641

>  <SCORE.INTER.norm>
-0.759267

>  <SCORE.INTRA>
0.279144

>  <SCORE.INTRA.DIHEDRAL>
1.41418

>  <SCORE.INTRA.DIHEDRAL.0>
7.88077

>  <SCORE.INTRA.POLAR>
0

>  <SCORE.INTRA.POLAR.0>
0

>  <SCORE.INTRA.REPUL>
0

>  <SCORE.INTRA.REPUL.0>
0

>  <SCORE.INTRA.SOLV>
-1.10676

>  <SCORE.INTRA.SOLV.lig_0>
-63.2542

>  <SCORE.INTRA.VDW>
0.125435

>  <SCORE.INTRA.VDW.0>
-3.15072

>  <SCORE.INTRA.norm>
0.0107363

>  <SCORE.RESTR>
0

>  <SCORE.RESTR.CAVITY>
0

>  <SCORE.RESTR.norm>
0

>  <SCORE.SYSTEM>
0

>  <SCORE.SYSTEM.CONST>
0

>  <SCORE.SYSTEM.DIHEDRAL>
0

>  <SCORE.SYSTEM.SOLV>
0

>  <SCORE.SYSTEM.norm>
0

>  <SCORE.heavy>
26

>  <SCORE.norm>
-0.748531

>  <RMSD>
3.924

$$$$
ligand
 OpenBabel11021811473D
libRbt.so/2013.1/901 2013/11/27
 26 27  0  0  0  0  0  0  0  0999 V2000
   -7.1553  -17.4657   22.9988 C   0  0  0  0  0  0  0  0  0  0  0  0
   -8.4019  -15.9440   26.9928 C   0  0  0  0  0  0  0  0  0  0  0  0
   -8.5076  -15.9352   25.6059 C   0  0  0  0  0  0  0  0  0  0  0  0
   -9.3948  -16.9067   24.8239 C   0  0  0  0  0  0  0  0  0  0  0  0
   -8.4502  -16.7779   22.5564 C   0  0  1  0  0  0  0  0  0  0  0  0
   -6.0193  -13.0175   27.5326 C   0  0  0  0  0  0  0  0  0  0  0  0
   -6.8986  -14.0669   26.8510 C   0  0  0  0  0  0  0  0  0  0  0  0
   -7.7847  -14.9769   24.9026 C   0  0  0  0  0  0  0  0  0  0  0  0
  -10.5452  -15.9552   22.8988 C   0  0  0  0  0  0  0  0  0  0  0  0
   -8.6611  -16.3753   21.2431 C   0  0  2  0  0  0  0  0  0  0  0  0
   -7.7727  -16.4949   20.0022 C   0  0  0  0  0  0  0  0  0  0  0  0
   -6.7844  -15.3348   19.8626 C   0  0  0  0  0  0  0  0  0  0  0  0
   -7.5912  -15.0028   27.6307 N   0  0  0  0  0  0  0  0  0  0  0  0
   -9.4567  -16.5392   23.4019 N   0  0  0  0  0  0  0  0  0  0  0  0
   -7.0217  -14.0915   25.5161 N   0  0  0  0  0  0  0  0  0  0  0  0
   -9.0213  -16.7735   27.6591 O   0  0  0  0  0  0  0  0  0  0  0  0
   -5.6133  -13.0026   18.0994 O   0  5  0  0  0  0  0  0  0  0  0  0
   -8.6291   -9.2893   18.5581 O   0  0  0  0  0  0  0  0  0  0  0  0
   -7.4455  -14.1132   19.5186 O   0  0  0  0  0  0  0  0  0  0  0  0
   -7.6697  -11.6519   18.7600 O   0  0  0  0  0  0  0  0  0  0  0  0
   -6.2908   -9.6355   19.6093 O   0  5  0  0  0  0  0  0  0  0  0  0
   -5.9524  -12.2974   20.5630 O   0  0  0  0  0  0  0  0  0  0  0  0
   -6.6494  -10.0029   17.0944 O   0  0  0  0  0  0  0  0  0  0  0  0
  -10.2257  -15.6106   21.2195 S   0  0  0  0  0  0  0  0  0  0  0  0
   -6.6274  -12.7402   19.3214 P   0  0  2  0  0  0  0  0  0  0  0  0
   -7.2457  -10.1116   18.5836 P   0  0  2  0  0  0  0  0  0  0  0  0
  2 16  2  0  0  0  0
  2  3  1  0  0  0  0
  2 13  1  0  0  0  0
  3  8  2  0  0  0  0
  3  4  1  0  0  0  0
  4 14  1  0  0  0  0
  5  1  1  6  0  0  0
  5 14  1  0  0  0  0
  5 10  1  0  0  0  0
  6  7  1  0  0  0  0
  7 13  1  0  0  0  0
  7 15  2  0  0  0  0
  8 15  1  0  0  0  0
  9 14  1  0  0  0  0
  9 24  1  0  0  0  0
 10 24  1  0  0  0  0
 10 11  1  1  0  0  0
 11 12  1  0  0  0  0
 12 19  1  0  0  0  0
 17 25  1  0  0  0  0
 19 25  1  0  0  0  0
 20 26  1  0  0  0  0
 21 26  1  0  0  0  0
 22 25  2  0  0  0  0
 23 26  2  0  0  0  0
 25 20  1  6  0  0  0
 26 18  1  1  0  0  0
M  CHG  2  17  -1  21  -1
M  END
>  <CHROM.1>
171.78649023,-86.09094091,-70.58237815,75.83553199,179.64809757,-74.30659642
61.51641480,-159.11839248,-7.74936356,-13.94208971,21.90562275,1.93762302
1.14297352,1.81418124

>  <Name>
ligand

>  <RI>
0

>  <Rbt.Current_Directory>
/home/itssahil/PROJECTS/Mol_Feturizer/New_Systems/rnas/3D2X

>  <Rbt.Executable>
rbdock ($Id: //depot/dev/client3/rdock/2013.1/src/exe/rbdock.cxx#4 $)

>  <Rbt.Library>
libRbt.so (2013.1, Build901 2013/11/27)

>  <Rbt.Parameter_File>
/export/apps/rDock/src/rDock_2013.1_src/data/scripts/dock_solv.prm

>  <Rbt.Receptor>
prm/pocket_docking_5.prm

>  <SCORE>
-23.2627

>  <SCORE.INTER>
-22.446

>  <SCORE.INTER.CONST>
1

>  <SCORE.INTER.POLAR>
0

>  <SCORE.INTER.ROT>
8

>  <SCORE.INTER.SOLV>
13.5029

>  <SCORE.INTER.VDW>
-28.3983

>  <SCORE.INTER.norm>
-0.863307

>  <SCORE.INTRA>
-0.816686

>  <SCORE.INTRA.DIHEDRAL>
-1.55009

>  <SCORE.INTRA.DIHEDRAL.0>
7.88077

>  <SCORE.INTRA.POLAR>
0

>  <SCORE.INTRA.POLAR.0>
0

>  <SCORE.INTRA.REPUL>
0

>  <SCORE.INTRA.REPUL.0>
0

>  <SCORE.INTRA.SOLV>
0.285557

>  <SCORE.INTRA.SOLV.lig_0>
-63.2542

>  <SCORE.INTRA.VDW>
-0.184421

>  <SCORE.INTRA.VDW.0>
-3.15072

>  <SCORE.INTRA.norm>
-0.031411

>  <SCORE.RESTR>
0

>  <SCORE.RESTR.CAVITY>
0

>  <SCORE.RESTR.norm>
0

>  <SCORE.SYSTEM>
0

>  <SCORE.SYSTEM.CONST>
0

>  <SCORE.SYSTEM.DIHEDRAL>
0

>  <SCORE.SYSTEM.SOLV>
0

>  <SCORE.SYSTEM.norm>
0

>  <SCORE.heavy>
26

>  <SCORE.norm>
-0.894718

>  <RMSD>
3.929

$$$$
ligand
 OpenBabel11021811473D
libRbt.so/2013.1/901 2013/11/27
 26 27  0  0  0  0  0  0  0  0999 V2000
   -6.6782  -14.0234   23.8504 C   0  0  0  0  0  0  0  0  0  0  0  0
   -9.0346  -16.7224   27.2408 C   0  0  0  0  0  0  0  0  0  0  0  0
   -8.3448  -16.3920   26.0790 C   0  0  0  0  0  0  0  0  0  0  0  0
   -6.8805  -15.9468   26.0681 C   0  0  0  0  0  0  0  0  0  0  0  0
   -6.6659  -13.6117   25.3255 C   0  0  1  0  0  0  0  0  0  0  0  0
  -12.4186  -17.7102   25.7898 C   0  0  0  0  0  0  0  0  0  0  0  0
  -10.9707  -17.2302   25.9003 C   0  0  0  0  0  0  0  0  0  0  0  0
   -9.0205  -16.4957   24.8673 C   0  0  0  0  0  0  0  0  0  0  0  0
   -6.7665  -14.0257   27.5620 C   0  0  0  0  0  0  0  0  0  0  0  0
   -6.5671  -12.2829   25.7206 C   0  0  2  0  0  0  0  0  0  0  0  0
   -6.4636  -10.9965   24.8972 C   0  0  0  0  0  0  0  0  0  0  0  0
   -5.2105  -10.9497   24.0198 C   0  0  0  0  0  0  0  0  0  0  0  0
  -10.3622  -17.1477   27.1598 N   0  0  0  0  0  0  0  0  0  0  0  0
   -6.7647  -14.5025   26.3163 N   0  0  0  0  0  0  0  0  0  0  0  0
  -10.2756  -16.8994   24.8024 N   0  0  0  0  0  0  0  0  0  0  0  0
   -8.4800  -16.6453   28.3373 O   0  0  0  0  0  0  0  0  0  0  0  0
   -2.4388  -12.2995   23.3136 O   0  5  0  0  0  0  0  0  0  0  0  0
   -0.0547   -9.5071   22.7451 O   0  0  0  0  0  0  0  0  0  0  0  0
   -4.0142  -10.9211   24.8045 O   0  0  0  0  0  0  0  0  0  0  0  0
   -2.5877   -9.7789   22.9759 O   0  0  0  0  0  0  0  0  0  0  0  0
   -1.3748  -10.7905   20.9280 O   0  5  0  0  0  0  0  0  0  0  0  0
   -1.4682  -10.7027   25.0996 O   0  0  0  0  0  0  0  0  0  0  0  0
   -1.6326   -8.2478   21.1654 O   0  0  0  0  0  0  0  0  0  0  0  0
   -6.5444  -12.2991   27.4620 S   0  0  0  0  0  0  0  0  0  0  0  0
   -2.5576  -10.9105   24.1181 P   0  0  2  0  0  0  0  0  0  0  0  0
   -1.4086   -9.6659   21.8894 P   0  0  2  0  0  0  0  0  0  0  0  0
  2 16  2  0  0  0  0
  2  3  1  0  0  0  0
  2 13  1  0  0  0  0
  3  8  2  0  0  0  0
  3  4  1  0  0  0  0
  4 14  1  0  0  0  0
  5  1  1  6  0  0  0
  5 14  1  0  0  0  0
  5 10  1  0  0  0  0
  6  7  1  0  0  0  0
  7 13  1  0  0  0  0
  7 15  2  0  0  0  0
  8 15  1  0  0  0  0
  9 14  1  0  0  0  0
  9 24  1  0  0  0  0
 10 24  1  0  0  0  0
 10 11  1  6  0  0  0
 11 12  1  0  0  0  0
 12 19  1  0  0  0  0
 17 25  1  0  0  0  0
 19 25  1  0  0  0  0
 20 26  1  0  0  0  0
 21 26  1  0  0  0  0
 22 25  2  0  0  0  0
 23 26  2  0  0  0  0
 25 20  1  6  0  0  0
 26 18  1  1  0  0  0
M  CHG  2  17  -1  21  -1
M  END
>  <CHROM.1>
-85.12321351,-61.61121920,-64.66566791,-95.61877324,178.30954534,-56.10445398
-62.95290059,-56.12483775,-5.48655467,-12.90853542,24.80467683,2.88268605
0.72805303,1.42422892

>  <Name>
ligand

>  <RI>
0

>  <Rbt.Current_Directory>
/home/itssahil/PROJECTS/Mol_Feturizer/New_Systems/rnas/3D2X

>  <Rbt.Executable>
rbdock ($Id: //depot/dev/client3/rdock/2013.1/src/exe/rbdock.cxx#4 $)

>  <Rbt.Library>
libRbt.so (2013.1, Build901 2013/11/27)

>  <Rbt.Parameter_File>
/export/apps/rDock/src/rDock_2013.1_src/data/scripts/dock_solv.prm

>  <Rbt.Receptor>
prm/pocket_docking_7.prm

>  <SCORE>
-21.5292

>  <SCORE.INTER>
-18.5471

>  <SCORE.INTER.CONST>
1

>  <SCORE.INTER.POLAR>
0

>  <SCORE.INTER.ROT>
8

>  <SCORE.INTER.SOLV>
11.3205

>  <SCORE.INTER.VDW>
-25.0716

>  <SCORE.INTER.norm>
-0.713351

>  <SCORE.INTRA>
-2.9821

>  <SCORE.INTRA.DIHEDRAL>
-2.84506

>  <SCORE.INTRA.DIHEDRAL.0>
7.88077

>  <SCORE.INTRA.POLAR>
0

>  <SCORE.INTRA.POLAR.0>
0

>  <SCORE.INTRA.REPUL>
0

>  <SCORE.INTRA.REPUL.0>
0

>  <SCORE.INTRA.SOLV>
-1.36131

>  <SCORE.INTRA.SOLV.lig_0>
-63.2542

>  <SCORE.INTRA.VDW>
-0.878919

>  <SCORE.INTRA.VDW.0>
-3.15072

>  <SCORE.INTRA.norm>
-0.114696

>  <SCORE.RESTR>
0

>  <SCORE.RESTR.CAVITY>
0

>  <SCORE.RESTR.norm>
0

>  <SCORE.SYSTEM>
0

>  <SCORE.SYSTEM.CONST>
0

>  <SCORE.SYSTEM.DIHEDRAL>
0

>  <SCORE.SYSTEM.SOLV>
0

>  <SCORE.SYSTEM.norm>
0

>  <SCORE.heavy>
26

>  <SCORE.norm>
-0.828047

>  <RMSD>
3.944

$$$$
ligand
 OpenBabel11021811473D
libRbt.so/2013.1/901 2013/11/27
 26 27  0  0  0  0  0  0  0  0999 V2000
   -5.8266  -13.9293   21.8021 C   0  0  0  0  0  0  0  0  0  0  0  0
  -10.6124  -16.1388   22.8187 C   0  0  0  0  0  0  0  0  0  0  0  0
   -9.4200  -15.9228   23.5014 C   0  0  0  0  0  0  0  0  0  0  0  0
   -8.2916  -15.0390   22.9644 C   0  0  0  0  0  0  0  0  0  0  0  0
   -6.5507  -15.1517   21.2304 C   0  0  1  0  0  0  0  0  0  0  0  0
  -12.4500  -18.3682   25.3058 C   0  0  0  0  0  0  0  0  0  0  0  0
  -11.3695  -17.5051   24.6526 C   0  0  0  0  0  0  0  0  0  0  0  0
   -9.2619  -16.5258   24.7451 C   0  0  0  0  0  0  0  0  0  0  0  0
   -8.1964  -16.7247   21.2082 C   0  0  0  0  0  0  0  0  0  0  0  0
   -6.0799  -15.8342   20.1151 C   0  0  2  0  0  0  0  0  0  0  0  0
   -4.8445  -15.5985   19.2423 C   0  0  0  0  0  0  0  0  0  0  0  0
   -5.1876  -15.0205   17.8673 C   0  0  0  0  0  0  0  0  0  0  0  0
  -11.6037  -16.9369   23.3934 N   0  0  0  0  0  0  0  0  0  0  0  0
   -7.6662  -15.6418   21.7784 N   0  0  0  0  0  0  0  0  0  0  0  0
  -10.2061  -17.2781   25.2792 N   0  0  0  0  0  0  0  0  0  0  0  0
  -10.7988  -15.6277   21.7142 O   0  0  0  0  0  0  0  0  0  0  0  0
   -2.0481  -15.5657   18.3035 O   0  5  0  0  0  0  0  0  0  0  0  0
   -5.3960  -16.1354   15.0440 O   0  0  0  0  0  0  0  0  0  0  0  0
   -4.0680  -14.3513   17.2788 O   0  0  0  0  0  0  0  0  0  0  0  0
   -3.1633  -16.5330   16.2274 O   0  0  0  0  0  0  0  0  0  0  0  0
   -3.1819  -15.7342   13.7677 O   0  5  0  0  0  0  0  0  0  0  0  0
   -1.8167  -14.3499   16.0341 O   0  0  0  0  0  0  0  0  0  0  0  0
   -3.9181  -18.1183   14.3696 O   0  0  0  0  0  0  0  0  0  0  0  0
   -7.2318  -17.1033   19.8058 S   0  0  0  0  0  0  0  0  0  0  0  0
   -2.7173  -15.1431   16.9020 P   0  0  2  0  0  0  0  0  0  0  0  0
   -3.8671  -16.5653   14.7827 P   0  0  2  0  0  0  0  0  0  0  0  0
  2 16  2  0  0  0  0
  2  3  1  0  0  0  0
  2 13  1  0  0  0  0
  3  8  2  0  0  0  0
  3  4  1  0  0  0  0
  4 14  1  0  0  0  0
  5  1  1  1  0  0  0
  5 14  1  0  0  0  0
  5 10  1  0  0  0  0
  6  7  1  0  0  0  0
  7 13  1  0  0  0  0
  7 15  2  0  0  0  0
  8 15  1  0  0  0  0
  9 14  1  0  0  0  0
  9 24  1  0  0  0  0
 10 24  1  0  0  0  0
 10 11  1  6  0  0  0
 11 12  1  0  0  0  0
 12 19  1  0  0  0  0
 17 25  1  0  0  0  0
 19 25  1  0  0  0  0
 20 26  1  0  0  0  0
 21 26  1  0  0  0  0
 22 25  2  0  0  0  0
 23 26  2  0  0  0  0
 25 20  1  6  0  0  0
 26 18  1  1  0  0  0
M  CHG  2  17  -1  21  -1
M  END
>  <CHROM.1>
-67.94236135,-107.08626445,158.06699472,-171.17042000,63.18865623,-179.16435637
-68.62921211,-77.98528544,-6.35159896,-16.04824475,19.46175852,-2.43159813
-0.52665647,-1.99198436

>  <Name>
ligand

>  <RI>
0

>  <Rbt.Current_Directory>
/home/itssahil/PROJECTS/Mol_Feturizer/New_Systems/rnas/3D2X

>  <Rbt.Executable>
rbdock ($Id: //depot/dev/client3/rdock/2013.1/src/exe/rbdock.cxx#4 $)

>  <Rbt.Library>
libRbt.so (2013.1, Build901 2013/11/27)

>  <Rbt.Parameter_File>
/export/apps/rDock/src/rDock_2013.1_src/data/scripts/dock_solv.prm

>  <Rbt.Receptor>
prm/pocket_docking_7.prm

>  <SCORE>
-15.8942

>  <SCORE.INTER>
-15.7988

>  <SCORE.INTER.CONST>
1

>  <SCORE.INTER.POLAR>
0

>  <SCORE.INTER.ROT>
8

>  <SCORE.INTER.SOLV>
15.2493

>  <SCORE.INTER.VDW>
-24.549

>  <SCORE.INTER.norm>
-0.607648

>  <SCORE.INTRA>
-0.0953836

>  <SCORE.INTRA.DIHEDRAL>
-0.478496

>  <SCORE.INTRA.DIHEDRAL.0>
7.88077

>  <SCORE.INTRA.POLAR>
0

>  <SCORE.INTRA.POLAR.0>
0

>  <SCORE.INTRA.REPUL>
0

>  <SCORE.INTRA.REPUL.0>
0

>  <SCORE.INTRA.SOLV>
-0.978669

>  <SCORE.INTRA.SOLV.lig_0>
-63.2542

>  <SCORE.INTRA.VDW>
0.633199

>  <SCORE.INTRA.VDW.0>
-3.15072

>  <SCORE.INTRA.norm>
-0.0036686

>  <SCORE.RESTR>
0

>  <SCORE.RESTR.CAVITY>
0

>  <SCORE.RESTR.norm>
0

>  <SCORE.SYSTEM>
0

>  <SCORE.SYSTEM.CONST>
0

>  <SCORE.SYSTEM.DIHEDRAL>
0

>  <SCORE.SYSTEM.SOLV>
0

>  <SCORE.SYSTEM.norm>
0

>  <SCORE.heavy>
26

>  <SCORE.norm>
-0.611317

>  <RMSD>
3.946

$$$$
ligand
 OpenBabel11021811473D
libRbt.so/2013.1/901 2013/11/27
 26 27  0  0  0  0  0  0  0  0999 V2000
   -7.2003  -17.3571   22.8039 C   0  0  0  0  0  0  0  0  0  0  0  0
   -8.4834  -15.8729   27.0345 C   0  0  0  0  0  0  0  0  0  0  0  0
   -8.4995  -15.9254   25.6447 C   0  0  0  0  0  0  0  0  0  0  0  0
   -9.2790  -16.9772   24.8517 C   0  0  0  0  0  0  0  0  0  0  0  0
   -8.5550  -16.7027   22.5171 C   0  0  1  0  0  0  0  0  0  0  0  0
   -6.3065  -12.7938   27.5944 C   0  0  0  0  0  0  0  0  0  0  0  0
   -7.0805  -13.9188   26.9055 C   0  0  0  0  0  0  0  0  0  0  0  0
   -7.7867  -14.9555   24.9470 C   0  0  0  0  0  0  0  0  0  0  0  0
  -10.6375  -15.9835   23.0905 C   0  0  0  0  0  0  0  0  0  0  0  0
   -8.9017  -16.2473   21.2506 C   0  0  2  0  0  0  0  0  0  0  0  0
   -8.1291  -16.2717   19.9294 C   0  0  0  0  0  0  0  0  0  0  0  0
   -6.9756  -15.2663   19.8947 C   0  0  0  0  0  0  0  0  0  0  0  0
   -7.7691  -14.8616   27.6803 N   0  0  0  0  0  0  0  0  0  0  0  0
   -9.4864  -16.5456   23.4618 N   0  0  0  0  0  0  0  0  0  0  0  0
   -7.1152  -14.0036   25.5679 N   0  0  0  0  0  0  0  0  0  0  0  0
   -9.0978  -16.7098   27.6962 O   0  0  0  0  0  0  0  0  0  0  0  0
   -4.9913  -13.3818   21.0457 O   0  5  0  0  0  0  0  0  0  0  0  0
   -8.2036  -12.6195   17.7476 O   0  0  0  0  0  0  0  0  0  0  0  0
   -7.3897  -13.9687   20.3333 O   0  0  0  0  0  0  0  0  0  0  0  0
   -5.9681  -12.3092   18.9518 O   0  0  0  0  0  0  0  0  0  0  0  0
   -7.5154  -10.2699   18.5831 O   0  5  0  0  0  0  0  0  0  0  0  0
   -6.8750  -11.6247   21.2595 O   0  0  0  0  0  0  0  0  0  0  0  0
   -6.2915  -11.3522   16.6035 O   0  0  0  0  0  0  0  0  0  0  0  0
  -10.4885  -15.5471   21.4088 S   0  0  0  0  0  0  0  0  0  0  0  0
   -6.3463  -12.7479   20.4519 P   0  0  2  0  0  0  0  0  0  0  0  0
   -7.0321  -11.5491   18.0170 P   0  0  2  0  0  0  0  0  0  0  0  0
  2 16  2  0  0  0  0
  2  3  1  0  0  0  0
  2 13  1  0  0  0  0
  3  8  2  0  0  0  0
  3  4  1  0  0  0  0
  4 14  1  0  0  0  0
  5  1  1  6  0  0  0
  5 14  1  0  0  0  0
  5 10  1  0  0  0  0
  6  7  1  0  0  0  0
  7 13  1  0  0  0  0
  7 15  2  0  0  0  0
  8 15  1  0  0  0  0
  9 14  1  0  0  0  0
  9 24  1  0  0  0  0
 10 24  1  0  0  0  0
 10 11  1  1  0  0  0
 11 12  1  0  0  0  0
 12 19  1  0  0  0  0
 17 25  1  0  0  0  0
 19 25  1  0  0  0  0
 20 26  1  0  0  0  0
 21 26  1  0  0  0  0
 22 25  2  0  0  0  0
 23 26  2  0  0  0  0
 25 20  1  6  0  0  0
 26 18  1  6  0  0  0
M  CHG  2  17  -1  21  -1
M  END
>  <CHROM.1>
161.10242708,-72.64970555,-48.27023393,82.65488559,177.25203097,-176.65078956
-39.69341706,-66.23117866,-7.75338861,-14.21314327,22.06131704,1.86134891
0.93019658,1.77386532

>  <Name>
ligand

>  <RI>
0

>  <Rbt.Current_Directory>
/home/itssahil/PROJECTS/Mol_Feturizer/New_Systems/rnas/3D2X

>  <Rbt.Executable>
rbdock ($Id: //depot/dev/client3/rdock/2013.1/src/exe/rbdock.cxx#4 $)

>  <Rbt.Library>
libRbt.so (2013.1, Build901 2013/11/27)

>  <Rbt.Parameter_File>
/export/apps/rDock/src/rDock_2013.1_src/data/scripts/dock_solv.prm

>  <Rbt.Receptor>
prm/pocket_docking_5.prm

>  <SCORE>
-21.6046

>  <SCORE.INTER>
-18.4793

>  <SCORE.INTER.CONST>
1

>  <SCORE.INTER.POLAR>
0

>  <SCORE.INTER.ROT>
8

>  <SCORE.INTER.SOLV>
13.4228

>  <SCORE.INTER.VDW>
-25.7271

>  <SCORE.INTER.norm>
-0.710742

>  <SCORE.INTRA>
-3.12895

>  <SCORE.INTRA.DIHEDRAL>
-2.16499

>  <SCORE.INTRA.DIHEDRAL.0>
7.88077

>  <SCORE.INTRA.POLAR>
0

>  <SCORE.INTRA.POLAR.0>
0

>  <SCORE.INTRA.REPUL>
0

>  <SCORE.INTRA.REPUL.0>
0

>  <SCORE.INTRA.SOLV>
-2.65085

>  <SCORE.INTRA.SOLV.lig_0>
-63.2542

>  <SCORE.INTRA.VDW>
-0.721028

>  <SCORE.INTRA.VDW.0>
-3.15072

>  <SCORE.INTRA.norm>
-0.120344

>  <SCORE.RESTR>
0.00363948

>  <SCORE.RESTR.CAVITY>
0.00363948

>  <SCORE.RESTR.norm>
0.00013998

>  <SCORE.SYSTEM>
0

>  <SCORE.SYSTEM.CONST>
0

>  <SCORE.SYSTEM.DIHEDRAL>
0

>  <SCORE.SYSTEM.SOLV>
0

>  <SCORE.SYSTEM.norm>
0

>  <SCORE.heavy>
26

>  <SCORE.norm>
-0.830946

>  <RMSD>
3.976

$$$$
ligand
 OpenBabel11021811473D
libRbt.so/2013.1/901 2013/11/27
 26 27  0  0  0  0  0  0  0  0999 V2000
   -8.6400  -14.1072   23.1515 C   0  0  0  0  0  0  0  0  0  0  0  0
   -9.0206  -16.2777   26.5710 C   0  0  0  0  0  0  0  0  0  0  0  0
   -8.6450  -16.3715   25.2350 C   0  0  0  0  0  0  0  0  0  0  0  0
   -9.6236  -16.7104   24.1080 C   0  0  0  0  0  0  0  0  0  0  0  0
   -8.5350  -15.3986   22.3348 C   0  0  1  0  0  0  0  0  0  0  0  0
   -5.6992  -15.2990   28.1658 C   0  0  0  0  0  0  0  0  0  0  0  0
   -6.7509  -15.6927   27.1275 C   0  0  0  0  0  0  0  0  0  0  0  0
   -7.3152  -16.1208   24.9122 C   0  0  0  0  0  0  0  0  0  0  0  0
   -8.8172  -17.6331   22.0025 C   0  0  0  0  0  0  0  0  0  0  0  0
   -7.9510  -15.4296   21.0741 C   0  0  2  0  0  0  0  0  0  0  0  0
   -7.3108  -14.3189   20.2374 C   0  0  0  0  0  0  0  0  0  0  0  0
   -6.3721  -14.8547   19.1538 C   0  0  0  0  0  0  0  0  0  0  0  0
   -8.0698  -15.9346   27.5344 N   0  0  0  0  0  0  0  0  0  0  0  0
   -8.9837  -16.5710   22.7919 N   0  0  0  0  0  0  0  0  0  0  0  0
   -6.4247  -15.7966   25.8312 N   0  0  0  0  0  0  0  0  0  0  0  0
  -10.1856  -16.4918   26.9066 O   0  0  0  0  0  0  0  0  0  0  0  0
   -3.7234  -15.2082   17.6693 O   0  5  0  0  0  0  0  0  0  0  0  0
   -6.3710  -15.4973   13.7029 O   0  0  0  0  0  0  0  0  0  0  0  0
   -5.7272  -13.7955   18.4397 O   0  0  0  0  0  0  0  0  0  0  0  0
   -5.6744  -14.8369   16.0740 O   0  0  0  0  0  0  0  0  0  0  0  0
   -4.2008  -14.1372   14.0672 O   0  5  0  0  0  0  0  0  0  0  0  0
   -4.1266  -12.8658   16.6534 O   0  0  0  0  0  0  0  0  0  0  0  0
   -4.3287  -16.5949   14.7962 O   0  0  0  0  0  0  0  0  0  0  0  0
   -8.0965  -17.0731   20.5166 S   0  0  0  0  0  0  0  0  0  0  0  0
   -4.7725  -14.0913   17.1770 P   0  0  2  0  0  0  0  0  0  0  0  0
   -5.0853  -15.1871   14.6202 P   0  0  2  0  0  0  0  0  0  0  0  0
  2 16  2  0  0  0  0
  2  3  1  0  0  0  0
  2 13  1  0  0  0  0
  3  8  2  0  0  0  0
  3  4  1  0  0  0  0
  4 14  1  0  0  0  0
  5  1  1  1  0  0  0
  5 14  1  0  0  0  0
  5 10  1  0  0  0  0
  6  7  1  0  0  0  0
  7 13  1  0  0  0  0
  7 15  2  0  0  0  0
  8 15  1  0  0  0  0
  9 14  1  0  0  0  0
  9 24  1  0  0  0  0
 10 24  1  0  0  0  0
 10 11  1  6  0  0  0
 11 12  1  0  0  0  0
 12 19  1  0  0  0  0
 17 25  1  0  0  0  0
 19 25  1  0  0  0  0
 20 26  1  0  0  0  0
 21 26  1  0  0  0  0
 22 25  2  0  0  0  0
 23 26  2  0  0  0  0
 25 20  1  6  0  0  0
 26 18  1  6  0  0  0
M  CHG  2  17  -1  21  -1
M  END
>  <CHROM.1>
172.75853235,159.72423916,-176.54451389,-63.62589055,-175.43583588,-72.84913048
-51.02756654,-163.40817879,-6.73570839,-15.42796752,20.50541441,1.92603632
0.54837159,1.49970940

>  <Name>
ligand

>  <RI>
0

>  <Rbt.Current_Directory>
/home/itssahil/PROJECTS/Mol_Feturizer/New_Systems/rnas/3D2X

>  <Rbt.Executable>
rbdock ($Id: //depot/dev/client3/rdock/2013.1/src/exe/rbdock.cxx#4 $)

>  <Rbt.Library>
libRbt.so (2013.1, Build901 2013/11/27)

>  <Rbt.Parameter_File>
/export/apps/rDock/src/rDock_2013.1_src/data/scripts/dock_solv.prm

>  <Rbt.Receptor>
prm/pocket_docking_7.prm

>  <SCORE>
-19.2184

>  <SCORE.INTER>
-19.8754

>  <SCORE.INTER.CONST>
1

>  <SCORE.INTER.POLAR>
0

>  <SCORE.INTER.ROT>
8

>  <SCORE.INTER.SOLV>
11.5435

>  <SCORE.INTER.VDW>
-26.0315

>  <SCORE.INTER.norm>
-0.764439

>  <SCORE.INTRA>
0.657019

>  <SCORE.INTRA.DIHEDRAL>
-2.18843

>  <SCORE.INTRA.DIHEDRAL.0>
7.88077

>  <SCORE.INTRA.POLAR>
0

>  <SCORE.INTRA.POLAR.0>
0

>  <SCORE.INTRA.REPUL>
0

>  <SCORE.INTRA.REPUL.0>
0

>  <SCORE.INTRA.SOLV>
0.126547

>  <SCORE.INTRA.SOLV.lig_0>
-63.2542

>  <SCORE.INTRA.VDW>
1.68796

>  <SCORE.INTRA.VDW.0>
-3.15072

>  <SCORE.INTRA.norm>
0.02527

>  <SCORE.RESTR>
0

>  <SCORE.RESTR.CAVITY>
0

>  <SCORE.RESTR.norm>
0

>  <SCORE.SYSTEM>
0

>  <SCORE.SYSTEM.CONST>
0

>  <SCORE.SYSTEM.DIHEDRAL>
0

>  <SCORE.SYSTEM.SOLV>
0

>  <SCORE.SYSTEM.norm>
0

>  <SCORE.heavy>
26

>  <SCORE.norm>
-0.739169

>  <RMSD>
3.992

$$$$
ligand
 OpenBabel11021811473D
libRbt.so/2013.1/901 2013/11/27
 26 27  0  0  0  0  0  0  0  0999 V2000
   -6.9939  -17.5220   22.9936 C   0  0  0  0  0  0  0  0  0  0  0  0
   -8.0740  -14.9540   24.5710 C   0  0  0  0  0  0  0  0  0  0  0  0
   -8.8603  -16.0976   24.6643 C   0  0  0  0  0  0  0  0  0  0  0  0
   -9.7408  -16.6083   23.5212 C   0  0  0  0  0  0  0  0  0  0  0  0
   -7.8501  -16.7871   21.9580 C   0  0  1  0  0  0  0  0  0  0  0  0
   -6.4092  -14.9666   28.0004 C   0  0  0  0  0  0  0  0  0  0  0  0
   -7.2892  -15.3583   26.8124 C   0  0  0  0  0  0  0  0  0  0  0  0
   -8.8215  -16.8209   25.8520 C   0  0  0  0  0  0  0  0  0  0  0  0
   -9.7564  -15.7763   21.2316 C   0  0  0  0  0  0  0  0  0  0  0  0
   -7.3842  -16.5076   20.6789 C   0  0  2  0  0  0  0  0  0  0  0  0
   -6.0446  -16.8223   20.0081 C   0  0  0  0  0  0  0  0  0  0  0  0
   -6.2052  -17.4640   18.6280 C   0  0  0  0  0  0  0  0  0  0  0  0
   -7.2762  -14.5731   25.6519 N   0  0  0  0  0  0  0  0  0  0  0  0
   -9.0977  -16.3862   22.2181 N   0  0  0  0  0  0  0  0  0  0  0  0
   -8.0631  -16.4518   26.8675 N   0  0  0  0  0  0  0  0  0  0  0  0
   -8.0754  -14.2799   23.5408 O   0  0  0  0  0  0  0  0  0  0  0  0
   -2.9610  -16.8918   16.4999 O   0  5  0  0  0  0  0  0  0  0  0  0
   -3.0965  -14.2097   15.4373 O   0  0  0  0  0  0  0  0  0  0  0  0
   -4.9471  -17.6131   17.9627 O   0  0  0  0  0  0  0  0  0  0  0  0
   -5.0219  -15.4001   16.6285 O   0  0  0  0  0  0  0  0  0  0  0  0
   -5.4985  -13.2694   15.2423 O   0  5  0  0  0  0  0  0  0  0  0  0
   -3.4929  -15.6181   18.6854 O   0  0  0  0  0  0  0  0  0  0  0  0
   -4.2240  -13.1202   17.4653 O   0  0  0  0  0  0  0  0  0  0  0  0
   -8.6618  -15.6326   19.8818 S   0  0  0  0  0  0  0  0  0  0  0  0
   -4.0699  -16.3355   17.5253 P   0  0  2  0  0  0  0  0  0  0  0  0
   -4.5291  -13.9552   16.1255 P   0  0  2  0  0  0  0  0  0  0  0  0
  2 16  2  0  0  0  0
  2  3  1  0  0  0  0
  2 13  1  0  0  0  0
  3  8  2  0  0  0  0
  3  4  1  0  0  0  0
  4 14  1  0  0  0  0
  5  1  1  6  0  0  0
  5 14  1  0  0  0  0
  5 10  1  0  0  0  0
  6  7  1  0  0  0  0
  7 13  1  0  0  0  0
  7 15  2  0  0  0  0
  8 15  1  0  0  0  0
  9 14  1  0  0  0  0
  9 24  1  0  0  0  0
 10 24  1  0  0  0  0
 10 11  1  1  0  0  0
 11 12  1  0  0  0  0
 12 19  1  0  0  0  0
 17 25  1  0  0  0  0
 19 25  1  0  0  0  0
 20 26  1  0  0  0  0
 21 26  1  0  0  0  0
 22 25  2  0  0  0  0
 23 26  2  0  0  0  0
 25 20  1  6  0  0  0
 26 18  1  6  0  0  0
M  CHG  2  17  -1  21  -1
M  END
>  <CHROM.1>
36.23944041,130.87354037,173.61851037,52.04067530,-64.68212915,-73.83065982
-165.74361876,51.26048969,-6.40191833,-15.65982993,20.51024428,2.00696020
0.29010797,1.52526864

>  <Name>
ligand

>  <RI>
0

>  <Rbt.Current_Directory>
/home/itssahil/PROJECTS/Mol_Feturizer/New_Systems/rnas/3D2X

>  <Rbt.Executable>
rbdock ($Id: //depot/dev/client3/rdock/2013.1/src/exe/rbdock.cxx#4 $)

>  <Rbt.Library>
libRbt.so (2013.1, Build901 2013/11/27)

>  <Rbt.Parameter_File>
/export/apps/rDock/src/rDock_2013.1_src/data/scripts/dock_solv.prm

>  <Rbt.Receptor>
prm/pocket_docking_4.prm

>  <SCORE>
-17.9434

>  <SCORE.INTER>
-17.7267

>  <SCORE.INTER.CONST>
1

>  <SCORE.INTER.POLAR>
0

>  <SCORE.INTER.ROT>
8

>  <SCORE.INTER.SOLV>
10.3519

>  <SCORE.INTER.VDW>
-24.2017

>  <SCORE.INTER.norm>
-0.681796

>  <SCORE.INTRA>
-0.229852

>  <SCORE.INTRA.DIHEDRAL>
-2.10428

>  <SCORE.INTRA.DIHEDRAL.0>
7.88077

>  <SCORE.INTRA.POLAR>
0

>  <SCORE.INTRA.POLAR.0>
0

>  <SCORE.INTRA.REPUL>
0

>  <SCORE.INTRA.REPUL.0>
0

>  <SCORE.INTRA.SOLV>
0.133637

>  <SCORE.INTRA.SOLV.lig_0>
-63.2542

>  <SCORE.INTRA.VDW>
0.755469

>  <SCORE.INTRA.VDW.0>
-3.15072

>  <SCORE.INTRA.norm>
-0.00884046

>  <SCORE.RESTR>
0.0131261

>  <SCORE.RESTR.CAVITY>
0.0131261

>  <SCORE.RESTR.norm>
0.000504849

>  <SCORE.SYSTEM>
0

>  <SCORE.SYSTEM.CONST>
0

>  <SCORE.SYSTEM.DIHEDRAL>
0

>  <SCORE.SYSTEM.SOLV>
0

>  <SCORE.SYSTEM.norm>
0

>  <SCORE.heavy>
26

>  <SCORE.norm>
-0.690132

>  <RMSD>
4.019

$$$$
ligand
 OpenBabel11021811473D
libRbt.so/2013.1/901 2013/11/27
 26 27  0  0  0  0  0  0  0  0999 V2000
   -7.5304  -17.0463   21.1495 C   0  0  0  0  0  0  0  0  0  0  0  0
   -8.6299  -15.9257   25.8158 C   0  0  0  0  0  0  0  0  0  0  0  0
   -8.0696  -15.4814   24.6227 C   0  0  0  0  0  0  0  0  0  0  0  0
   -8.8185  -15.4884   23.2879 C   0  0  0  0  0  0  0  0  0  0  0  0
   -7.4304  -15.5219   21.2576 C   0  0  1  0  0  0  0  0  0  0  0  0
   -5.7629  -15.2426   28.2337 C   0  0  0  0  0  0  0  0  0  0  0  0
   -6.5857  -15.3408   26.9482 C   0  0  0  0  0  0  0  0  0  0  0  0
   -6.7701  -14.9858   24.6570 C   0  0  0  0  0  0  0  0  0  0  0  0
   -7.8913  -13.5080   22.2141 C   0  0  0  0  0  0  0  0  0  0  0  0
   -6.7231  -14.7610   20.3344 C   0  0  2  0  0  0  0  0  0  0  0  0
   -5.9396  -15.1724   19.0853 C   0  0  0  0  0  0  0  0  0  0  0  0
   -4.6185  -14.4147   18.9340 C   0  0  0  0  0  0  0  0  0  0  0  0
   -7.8872  -15.8578   26.9963 N   0  0  0  0  0  0  0  0  0  0  0  0
   -8.0286  -14.8346   22.2346 N   0  0  0  0  0  0  0  0  0  0  0  0
   -6.0772  -14.9258   25.7790 N   0  0  0  0  0  0  0  0  0  0  0  0
   -9.7764  -16.3741   25.8361 O   0  0  0  0  0  0  0  0  0  0  0  0
   -2.2677  -12.6408   20.1652 O   0  5  0  0  0  0  0  0  0  0  0  0
   -0.6724  -12.6707   22.4590 O   0  0  0  0  0  0  0  0  0  0  0  0
   -3.6793  -14.7776   19.9508 O   0  0  0  0  0  0  0  0  0  0  0  0
   -1.4488  -14.7914   21.2577 O   0  0  0  0  0  0  0  0  0  0  0  0
   -2.9451  -13.7365   23.0843 O   0  5  0  0  0  0  0  0  0  0  0  0
   -1.4428  -14.5985   18.6927 O   0  0  0  0  0  0  0  0  0  0  0  0
   -0.7480  -14.9049   23.7134 O   0  0  0  0  0  0  0  0  0  0  0  0
   -6.8441  -13.1106   20.8776 S   0  0  0  0  0  0  0  0  0  0  0  0
   -2.1650  -14.2300   19.9320 P   0  0  2  0  0  0  0  0  0  0  0  0
   -1.5543  -14.0029   22.6543 P   0  0  2  0  0  0  0  0  0  0  0  0
  2 16  2  0  0  0  0
  2  3  1  0  0  0  0
  2 13  1  0  0  0  0
  3  8  2  0  0  0  0
  3  4  1  0  0  0  0
  4 14  1  0  0  0  0
  5  1  1  6  0  0  0
  5 14  1  0  0  0  0
  5 10  1  0  0  0  0
  6  7  1  0  0  0  0
  7 13  1  0  0  0  0
  7 15  2  0  0  0  0
  8 15  1  0  0  0  0
  9 14  1  0  0  0  0
  9 24  1  0  0  0  0
 10 24  1  0  0  0  0
 10 11  1  1  0  0  0
 11 12  1  0  0  0  0
 12 19  1  0  0  0  0
 17 25  1  0  0  0  0
 19 25  1  0  0  0  0
 20 26  1  0  0  0  0
 21 26  1  0  0  0  0
 22 25  2  0  0  0  0
 23 26  2  0  0  0  0
 25 20  1  1  0  0  0
 26 18  1  6  0  0  0
M  CHG  2  17  -1  21  -1
M  END
>  <CHROM.1>
174.07536542,-138.46980698,68.02366650,106.84203920,173.98554023,25.91227192
66.07702697,-70.07605941,-5.01550423,-14.63602595,22.45308857,2.47974477
0.17805942,1.66664199

>  <Name>
ligand

>  <RI>
0

>  <Rbt.Current_Directory>
/home/itssahil/PROJECTS/Mol_Feturizer/New_Systems/rnas/3D2X

>  <Rbt.Executable>
rbdock ($Id: //depot/dev/client3/rdock/2013.1/src/exe/rbdock.cxx#4 $)

>  <Rbt.Library>
libRbt.so (2013.1, Build901 2013/11/27)

>  <Rbt.Parameter_File>
/export/apps/rDock/src/rDock_2013.1_src/data/scripts/dock_solv.prm

>  <Rbt.Receptor>
prm/pocket_docking_5.prm

>  <SCORE>
-12.8279

>  <SCORE.INTER>
-11.4989

>  <SCORE.INTER.CONST>
1

>  <SCORE.INTER.POLAR>
0

>  <SCORE.INTER.ROT>
8

>  <SCORE.INTER.SOLV>
13.6599

>  <SCORE.INTER.VDW>
-21.1526

>  <SCORE.INTER.norm>
-0.442266

>  <SCORE.INTRA>
-1.32897

>  <SCORE.INTRA.DIHEDRAL>
-1.04946

>  <SCORE.INTRA.DIHEDRAL.0>
7.88077

>  <SCORE.INTRA.POLAR>
0

>  <SCORE.INTRA.POLAR.0>
0

>  <SCORE.INTRA.REPUL>
0

>  <SCORE.INTRA.REPUL.0>
0

>  <SCORE.INTRA.SOLV>
-1.43827

>  <SCORE.INTRA.SOLV.lig_0>
-63.2542

>  <SCORE.INTRA.VDW>
-0.0850996

>  <SCORE.INTRA.VDW.0>
-3.15072

>  <SCORE.INTRA.norm>
-0.0511141

>  <SCORE.RESTR>
0

>  <SCORE.RESTR.CAVITY>
0

>  <SCORE.RESTR.norm>
0

>  <SCORE.SYSTEM>
0

>  <SCORE.SYSTEM.CONST>
0

>  <SCORE.SYSTEM.DIHEDRAL>
0

>  <SCORE.SYSTEM.SOLV>
0

>  <SCORE.SYSTEM.norm>
0

>  <SCORE.heavy>
26

>  <SCORE.norm>
-0.49338

>  <RMSD>
4.054

$$$$
ligand
 OpenBabel11021811473D
libRbt.so/2013.1/901 2013/11/27
 26 27  0  0  0  0  0  0  0  0999 V2000
   -6.9000  -14.0172   23.8500 C   0  0  0  0  0  0  0  0  0  0  0  0
   -9.2649  -16.8668   27.2012 C   0  0  0  0  0  0  0  0  0  0  0  0
   -8.6026  -16.4042   26.0690 C   0  0  0  0  0  0  0  0  0  0  0  0
   -7.1521  -15.9160   26.0838 C   0  0  0  0  0  0  0  0  0  0  0  0
   -6.9639  -13.5860   25.3182 C   0  0  1  0  0  0  0  0  0  0  0  0
  -12.6404  -17.8107   25.7020 C   0  0  0  0  0  0  0  0  0  0  0  0
  -11.2055  -17.3001   25.8412 C   0  0  0  0  0  0  0  0  0  0  0  0
   -9.2932  -16.4100   24.8613 C   0  0  0  0  0  0  0  0  0  0  0  0
   -7.1537  -13.9731   27.5536 C   0  0  0  0  0  0  0  0  0  0  0  0
   -6.9167  -12.2501   25.6982 C   0  0  2  0  0  0  0  0  0  0  0  0
   -6.8092  -10.9724   24.8619 C   0  0  0  0  0  0  0  0  0  0  0  0
   -8.1174  -10.6111   24.1545 C   0  0  0  0  0  0  0  0  0  0  0  0
  -10.5807  -17.3221   27.0952 N   0  0  0  0  0  0  0  0  0  0  0  0
   -7.0842  -14.4660   26.3162 N   0  0  0  0  0  0  0  0  0  0  0  0
  -10.5370  -16.8432   24.7725 N   0  0  0  0  0  0  0  0  0  0  0  0
   -8.6963  -16.8801   28.2932 O   0  0  0  0  0  0  0  0  0  0  0  0
   -6.7642  -11.3008   21.7380 O   0  5  0  0  0  0  0  0  0  0  0  0
   -8.3354   -8.8125   18.1825 O   0  0  0  0  0  0  0  0  0  0  0  0
   -7.9351   -9.5506   23.2112 O   0  0  0  0  0  0  0  0  0  0  0  0
   -7.8065   -9.2483   20.6469 O   0  0  0  0  0  0  0  0  0  0  0  0
   -5.8744   -8.8295   18.9795 O   0  5  0  0  0  0  0  0  0  0  0  0
   -5.6936   -8.9742   22.0883 O   0  0  0  0  0  0  0  0  0  0  0  0
   -7.2237  -11.0112   18.8900 O   0  0  0  0  0  0  0  0  0  0  0  0
   -6.9712  -12.2427   27.4389 S   0  0  0  0  0  0  0  0  0  0  0  0
   -6.9662   -9.7163   21.9357 P   0  0  2  0  0  0  0  0  0  0  0  0
   -7.2162   -9.4267   19.1626 P   0  0  2  0  0  0  0  0  0  0  0  0
  2 16  2  0  0  0  0
  2  3  1  0  0  0  0
  2 13  1  0  0  0  0
  3  8  2  0  0  0  0
  3  4  1  0  0  0  0
  4 14  1  0  0  0  0
  5  1  1  6  0  0  0
  5 14  1  0  0  0  0
  5 10  1  0  0  0  0
  6  7  1  0  0  0  0
  7 13  1  0  0  0  0
  7 15  2  0  0  0  0
  8 15  1  0  0  0  0
  9 14  1  0  0  0  0
  9 24  1  0  0  0  0
 10 24  1  0  0  0  0
 10 11  1  1  0  0  0
 11 12  1  0  0  0  0
 12 19  1  0  0  0  0
 17 25  1  0  0  0  0
 19 25  1  0  0  0  0
 20 26  1  0  0  0  0
 21 26  1  0  0  0  0
 22 25  2  0  0  0  0
 23 26  2  0  0  0  0
 25 20  1  6  0  0  0
 26 18  1  6  0  0  0
M  CHG  2  17  -1  21  -1
M  END
>  <CHROM.1>
-91.73755049,74.67951131,-170.31914648,-96.95066772,62.45881548,-61.16854464
18.87486546,-178.75463532,-7.87142220,-12.62924302,23.77409486,-1.95207829
-0.88957527,-1.05730093

>  <Name>
ligand

>  <RI>
0

>  <Rbt.Current_Directory>
/home/itssahil/PROJECTS/Mol_Feturizer/New_Systems/rnas/3D2X

>  <Rbt.Executable>
rbdock ($Id: //depot/dev/client3/rdock/2013.1/src/exe/rbdock.cxx#4 $)

>  <Rbt.Library>
libRbt.so (2013.1, Build901 2013/11/27)

>  <Rbt.Parameter_File>
/export/apps/rDock/src/rDock_2013.1_src/data/scripts/dock_solv.prm

>  <Rbt.Receptor>
prm/pocket_docking_8.prm

>  <SCORE>
-26.6957

>  <SCORE.INTER>
-27.3773

>  <SCORE.INTER.CONST>
1

>  <SCORE.INTER.POLAR>
0

>  <SCORE.INTER.ROT>
8

>  <SCORE.INTER.SOLV>
17.1872

>  <SCORE.INTER.VDW>
-32.9139

>  <SCORE.INTER.norm>
-1.05297

>  <SCORE.INTRA>
0.681579

>  <SCORE.INTRA.DIHEDRAL>
-0.625109

>  <SCORE.INTRA.DIHEDRAL.0>
7.88077

>  <SCORE.INTRA.POLAR>
0

>  <SCORE.INTRA.POLAR.0>
0

>  <SCORE.INTRA.REPUL>
0

>  <SCORE.INTRA.REPUL.0>
0

>  <SCORE.INTRA.SOLV>
2.57927

>  <SCORE.INTRA.SOLV.lig_0>
-63.2542

>  <SCORE.INTRA.VDW>
-0.295504

>  <SCORE.INTRA.VDW.0>
-3.15072

>  <SCORE.INTRA.norm>
0.0262146

>  <SCORE.RESTR>
0

>  <SCORE.RESTR.CAVITY>
0

>  <SCORE.RESTR.norm>
0

>  <SCORE.SYSTEM>
0

>  <SCORE.SYSTEM.CONST>
0

>  <SCORE.SYSTEM.DIHEDRAL>
0

>  <SCORE.SYSTEM.SOLV>
0

>  <SCORE.SYSTEM.norm>
0

>  <SCORE.heavy>
26

>  <SCORE.norm>
-1.02676

>  <RMSD>
4.057

$$$$
ligand
 OpenBabel11021811473D
libRbt.so/2013.1/901 2013/11/27
 26 27  0  0  0  0  0  0  0  0999 V2000
   -7.1650  -16.5351   21.6744 C   0  0  0  0  0  0  0  0  0  0  0  0
  -10.0118  -17.3371   24.0037 C   0  0  0  0  0  0  0  0  0  0  0  0
   -9.1551  -16.7163   24.9067 C   0  0  0  0  0  0  0  0  0  0  0  0
   -7.7345  -16.2727   24.5495 C   0  0  0  0  0  0  0  0  0  0  0  0
   -7.4927  -15.1998   22.3493 C   0  0  1  0  0  0  0  0  0  0  0  0
  -13.1250  -17.7537   26.1640 C   0  0  0  0  0  0  0  0  0  0  0  0
  -11.7077  -17.3967   25.7135 C   0  0  0  0  0  0  0  0  0  0  0  0
   -9.6290  -16.4692   26.1912 C   0  0  0  0  0  0  0  0  0  0  0  0
   -8.0493  -13.8938   24.1290 C   0  0  0  0  0  0  0  0  0  0  0  0
   -7.5538  -14.0079   21.6372 C   0  0  2  0  0  0  0  0  0  0  0  0
   -7.3458  -13.7167   20.1488 C   0  0  0  0  0  0  0  0  0  0  0  0
   -5.8908  -13.8866   19.7058 C   0  0  0  0  0  0  0  0  0  0  0  0
  -11.3042  -17.6840   24.4028 N   0  0  0  0  0  0  0  0  0  0  0  0
   -7.7536  -15.1054   23.6561 N   0  0  0  0  0  0  0  0  0  0  0  0
  -10.8530  -16.8011   26.5576 N   0  0  0  0  0  0  0  0  0  0  0  0
   -9.6378  -17.5780   22.8557 O   0  0  0  0  0  0  0  0  0  0  0  0
   -3.0552  -15.3463   19.6685 O   0  5  0  0  0  0  0  0  0  0  0  0
   -6.5963  -18.2035   18.5940 O   0  0  0  0  0  0  0  0  0  0  0  0
   -5.6019  -15.2398   19.3410 O   0  0  0  0  0  0  0  0  0  0  0  0
   -4.2338  -17.2361   18.4321 O   0  0  0  0  0  0  0  0  0  0  0  0
   -5.7584  -17.2425   16.3430 O   0  5  0  0  0  0  0  0  0  0  0  0
   -4.0446  -14.9254   17.3178 O   0  0  0  0  0  0  0  0  0  0  0  0
   -4.7902  -19.4370   17.2569 O   0  0  0  0  0  0  0  0  0  0  0  0
   -7.9053  -12.7662   22.8067 S   0  0  0  0  0  0  0  0  0  0  0  0
   -4.2265  -15.6373   18.6037 P   0  0  2  0  0  0  0  0  0  0  0  0
   -5.3745  -17.9726   17.5719 P   0  0  2  0  0  0  0  0  0  0  0  0
  2 16  2  0  0  0  0
  2  3  1  0  0  0  0
  2 13  1  0  0  0  0
  3  8  2  0  0  0  0
  3  4  1  0  0  0  0
  4 14  1  0  0  0  0
  5  1  1  6  0  0  0
  5 14  1  0  0  0  0
  5 10  1  0  0  0  0
  6  7  1  0  0  0  0
  7 13  1  0  0  0  0
  7 15  2  0  0  0  0
  8 15  1  0  0  0  0
  9 14  1  0  0  0  0
  9 24  1  0  0  0  0
 10 24  1  0  0  0  0
 10 11  1  1  0  0  0
 11 12  1  0  0  0  0
 12 19  1  0  0  0  0
 17 25  1  0  0  0  0
 19 25  1  0  0  0  0
 20 26  1  0  0  0  0
 21 26  1  0  0  0  0
 22 25  2  0  0  0  0
 23 26  2  0  0  0  0
 25 20  1  6  0  0  0
 26 18  1  1  0  0  0
M  CHG  2  17  -1  21  -1
M  END
>  <CHROM.1>
71.60569751,-69.47209619,86.71755214,-104.42611794,169.35027279,173.03290614
65.81355368,-85.95923295,-7.21556517,-16.11566368,21.28568102,2.73328830
0.83056673,0.51398668

>  <Name>
ligand

>  <RI>
0

>  <Rbt.Current_Directory>
/home/itssahil/PROJECTS/Mol_Feturizer/New_Systems/rnas/3D2X

>  <Rbt.Executable>
rbdock ($Id: //depot/dev/client3/rdock/2013.1/src/exe/rbdock.cxx#4 $)

>  <Rbt.Library>
libRbt.so (2013.1, Build901 2013/11/27)

>  <Rbt.Parameter_File>
/export/apps/rDock/src/rDock_2013.1_src/data/scripts/dock_solv.prm

>  <Rbt.Receptor>
prm/pocket_docking_7.prm

>  <SCORE>
-23.3243

>  <SCORE.INTER>
-21.7023

>  <SCORE.INTER.CONST>
1

>  <SCORE.INTER.POLAR>
0

>  <SCORE.INTER.ROT>
8

>  <SCORE.INTER.SOLV>
18.3565

>  <SCORE.INTER.VDW>
-29.5204

>  <SCORE.INTER.norm>
-0.834704

>  <SCORE.INTRA>
-1.62204

>  <SCORE.INTRA.DIHEDRAL>
0.216935

>  <SCORE.INTRA.DIHEDRAL.0>
7.88077

>  <SCORE.INTRA.POLAR>
0

>  <SCORE.INTRA.POLAR.0>
0

>  <SCORE.INTRA.REPUL>
0

>  <SCORE.INTRA.REPUL.0>
0

>  <SCORE.INTRA.SOLV>
-1.61747

>  <SCORE.INTRA.SOLV.lig_0>
-63.2542

>  <SCORE.INTRA.VDW>
-0.921768

>  <SCORE.INTRA.VDW.0>
-3.15072

>  <SCORE.INTRA.norm>
-0.062386

>  <SCORE.RESTR>
0

>  <SCORE.RESTR.CAVITY>
0

>  <SCORE.RESTR.norm>
0

>  <SCORE.SYSTEM>
0

>  <SCORE.SYSTEM.CONST>
0

>  <SCORE.SYSTEM.DIHEDRAL>
0

>  <SCORE.SYSTEM.SOLV>
0

>  <SCORE.SYSTEM.norm>
0

>  <SCORE.heavy>
26

>  <SCORE.norm>
-0.89709

>  <RMSD>
4.102

$$$$
ligand
 OpenBabel11021811473D
libRbt.so/2013.1/901 2013/11/27
 26 27  0  0  0  0  0  0  0  0999 V2000
   -7.3173  -13.8290   23.8026 C   0  0  0  0  0  0  0  0  0  0  0  0
   -9.2046  -16.8094   27.1458 C   0  0  0  0  0  0  0  0  0  0  0  0
   -8.5798  -16.3084   26.0086 C   0  0  0  0  0  0  0  0  0  0  0  0
   -7.1451  -15.7751   26.0031 C   0  0  0  0  0  0  0  0  0  0  0  0
   -7.1887  -13.4261   25.2746 C   0  0  1  0  0  0  0  0  0  0  0  0
  -12.5785  -17.8350   25.6974 C   0  0  0  0  0  0  0  0  0  0  0  0
  -11.1576  -17.2819   25.8169 C   0  0  0  0  0  0  0  0  0  0  0  0
   -9.2939  -16.3167   24.8146 C   0  0  0  0  0  0  0  0  0  0  0  0
   -7.0313  -13.8596   27.5041 C   0  0  0  0  0  0  0  0  0  0  0  0
   -7.1544  -12.0960   25.6759 C   0  0  2  0  0  0  0  0  0  0  0  0
   -7.2346  -10.8008   24.8639 C   0  0  0  0  0  0  0  0  0  0  0  0
   -5.9451  -10.4966   24.0979 C   0  0  0  0  0  0  0  0  0  0  0  0
  -10.5075  -17.3041   27.0580 N   0  0  0  0  0  0  0  0  0  0  0  0
   -7.1177  -14.3276   26.2581 N   0  0  0  0  0  0  0  0  0  0  0  0
  -10.5251  -16.7874   24.7431 N   0  0  0  0  0  0  0  0  0  0  0  0
   -8.6141  -16.8221   28.2260 O   0  0  0  0  0  0  0  0  0  0  0  0
   -2.8668  -11.4147   23.8647 O   0  5  0  0  0  0  0  0  0  0  0  0
   -2.7843   -7.9407   20.9345 O   0  0  0  0  0  0  0  0  0  0  0  0
   -4.8532  -10.2280   24.9829 O   0  0  0  0  0  0  0  0  0  0  0  0
   -3.4881   -9.0573   23.1257 O   0  0  0  0  0  0  0  0  0  0  0  0
   -1.1476   -7.9731   22.9376 O   0  5  0  0  0  0  0  0  0  0  0  0
   -2.4576   -9.4182   25.4547 O   0  0  0  0  0  0  0  0  0  0  0  0
   -1.6871  -10.1380   21.6686 O   0  0  0  0  0  0  0  0  0  0  0  0
   -6.9554  -12.1203   27.4060 S   0  0  0  0  0  0  0  0  0  0  0  0
   -3.3599   -9.9903   24.4291 P   0  0  2  0  0  0  0  0  0  0  0  0
   -2.2049   -8.7188   22.2188 P   0  0  2  0  0  0  0  0  0  0  0  0
  2 16  2  0  0  0  0
  2  3  1  0  0  0  0
  2 13  1  0  0  0  0
  3  8  2  0  0  0  0
  3  4  1  0  0  0  0
  4 14  1  0  0  0  0
  5  1  1  1  0  0  0
  5 14  1  0  0  0  0
  5 10  1  0  0  0  0
  6  7  1  0  0  0  0
  7 13  1  0  0  0  0
  7 15  2  0  0  0  0
  8 15  1  0  0  0  0
  9 14  1  0  0  0  0
  9 24  1  0  0  0  0
 10 24  1  0  0  0  0
 10 11  1  6  0  0  0
 11 12  1  0  0  0  0
 12 19  1  0  0  0  0
 17 25  1  0  0  0  0
 19 25  1  0  0  0  0
 20 26  1  0  0  0  0
 21 26  1  0  0  0  0
 22 25  2  0  0  0  0
 23 26  2  0  0  0  0
 25 20  1  6  0  0  0
 26 18  1  6  0  0  0
M  CHG  2  17  -1  21  -1
M  END
>  <CHROM.1>
-91.72978220,-74.25540548,-65.58555052,-89.64199199,175.24707093,-62.17060044
-69.09882058,172.70919412,-6.03497996,-12.47946465,24.89108441,2.82485246
0.79854389,1.57512378

>  <Name>
ligand

>  <RI>
0

>  <Rbt.Current_Directory>
/home/itssahil/PROJECTS/Mol_Feturizer/New_Systems/rnas/3D2X

>  <Rbt.Executable>
rbdock ($Id: //depot/dev/client3/rdock/2013.1/src/exe/rbdock.cxx#4 $)

>  <Rbt.Library>
libRbt.so (2013.1, Build901 2013/11/27)

>  <Rbt.Parameter_File>
/export/apps/rDock/src/rDock_2013.1_src/data/scripts/dock_solv.prm

>  <Rbt.Receptor>
prm/pocket_docking_8.prm

>  <SCORE>
-19.4139

>  <SCORE.INTER>
-17.4323

>  <SCORE.INTER.CONST>
1

>  <SCORE.INTER.POLAR>
0

>  <SCORE.INTER.ROT>
8

>  <SCORE.INTER.SOLV>
10.5119

>  <SCORE.INTER.VDW>
-24.0589

>  <SCORE.INTER.norm>
-0.670475

>  <SCORE.INTRA>
-1.98157

>  <SCORE.INTRA.DIHEDRAL>
-2.66603

>  <SCORE.INTRA.DIHEDRAL.0>
7.88077

>  <SCORE.INTRA.POLAR>
0

>  <SCORE.INTRA.POLAR.0>
0

>  <SCORE.INTRA.REPUL>
0

>  <SCORE.INTRA.REPUL.0>
0

>  <SCORE.INTRA.SOLV>
0.444888

>  <SCORE.INTRA.SOLV.lig_0>
-63.2542

>  <SCORE.INTRA.VDW>
-0.870999

>  <SCORE.INTRA.VDW.0>
-3.15072

>  <SCORE.INTRA.norm>
-0.0762143

>  <SCORE.RESTR>
0

>  <SCORE.RESTR.CAVITY>
0

>  <SCORE.RESTR.norm>
0

>  <SCORE.SYSTEM>
0

>  <SCORE.SYSTEM.CONST>
0

>  <SCORE.SYSTEM.DIHEDRAL>
0

>  <SCORE.SYSTEM.SOLV>
0

>  <SCORE.SYSTEM.norm>
0

>  <SCORE.heavy>
26

>  <SCORE.norm>
-0.746689

>  <RMSD>
4.125

$$$$
ligand
 OpenBabel11021811473D
libRbt.so/2013.1/901 2013/11/27
 26 27  0  0  0  0  0  0  0  0999 V2000
   -6.8659  -17.2769   23.4837 C   0  0  0  0  0  0  0  0  0  0  0  0
   -7.6922  -14.6299   25.3447 C   0  0  0  0  0  0  0  0  0  0  0  0
   -8.2219  -15.8442   25.7686 C   0  0  0  0  0  0  0  0  0  0  0  0
   -9.3001  -16.6072   24.9953 C   0  0  0  0  0  0  0  0  0  0  0  0
   -8.1032  -16.6375   22.8467 C   0  0  1  0  0  0  0  0  0  0  0  0
   -5.1287  -13.9864   28.0919 C   0  0  0  0  0  0  0  0  0  0  0  0
   -6.2387  -14.6379   27.2658 C   0  0  0  0  0  0  0  0  0  0  0  0
   -7.7250  -16.3978   26.9442 C   0  0  0  0  0  0  0  0  0  0  0  0
  -10.2252  -15.8137   22.8860 C   0  0  0  0  0  0  0  0  0  0  0  0
   -8.1637  -16.3360   21.4914 C   0  0  2  0  0  0  0  0  0  0  0  0
   -7.1393  -16.5383   20.3719 C   0  0  0  0  0  0  0  0  0  0  0  0
   -7.1127  -15.3801   19.3718 C   0  0  0  0  0  0  0  0  0  0  0  0
   -6.6889  -14.0133   26.0951 N   0  0  0  0  0  0  0  0  0  0  0  0
   -9.2001  -16.3471   23.5519 N   0  0  0  0  0  0  0  0  0  0  0  0
   -6.7759  -15.8063   27.6455 N   0  0  0  0  0  0  0  0  0  0  0  0
   -8.1003  -14.0996   24.3113 O   0  0  0  0  0  0  0  0  0  0  0  0
   -7.8967  -12.6340   18.1908 O   0  5  0  0  0  0  0  0  0  0  0  0
   -8.0341   -9.9387   18.6666 O   0  0  0  0  0  0  0  0  0  0  0  0
   -6.8782  -14.1256   20.0190 O   0  0  0  0  0  0  0  0  0  0  0  0
   -6.7747  -11.5491   20.2041 O   0  0  0  0  0  0  0  0  0  0  0  0
   -6.8398   -9.0269   20.7724 O   0  5  0  0  0  0  0  0  0  0  0  0
   -5.3307  -12.7792   18.4668 O   0  0  0  0  0  0  0  0  0  0  0  0
   -5.4736   -9.8777   18.7730 O   0  0  0  0  0  0  0  0  0  0  0  0
   -9.7168  -15.5917   21.2328 S   0  0  0  0  0  0  0  0  0  0  0  0
   -6.6313  -12.7765   19.1752 P   0  0  2  0  0  0  0  0  0  0  0  0
   -6.7900  -10.0284   19.6839 P   0  0  2  0  0  0  0  0  0  0  0  0
  2 16  2  0  0  0  0
  2  3  1  0  0  0  0
  2 13  1  0  0  0  0
  3  8  2  0  0  0  0
  3  4  1  0  0  0  0
  4 14  1  0  0  0  0
  5  1  1  6  0  0  0
  5 14  1  0  0  0  0
  5 10  1  0  0  0  0
  6  7  1  0  0  0  0
  7 13  1  0  0  0  0
  7 15  2  0  0  0  0
  8 15  1  0  0  0  0
  9 14  1  0  0  0  0
  9 24  1  0  0  0  0
 10 24  1  0  0  0  0
 10 11  1  1  0  0  0
 11 12  1  0  0  0  0
 12 19  1  0  0  0  0
 17 25  1  0  0  0  0
 19 25  1  0  0  0  0
 20 26  1  0  0  0  0
 21 26  1  0  0  0  0
 22 25  2  0  0  0  0
 23 26  2  0  0  0  0
 25 20  1  1  0  0  0
 26 18  1  6  0  0  0
M  CHG  2  17  -1  21  -1
M  END
>  <CHROM.1>
29.66202845,-141.63630975,55.75480166,59.80989712,172.66792795,-59.54122550
54.93784862,58.67499048,-7.41858457,-13.87928825,22.06613028,1.80715769,1.12643461
1.95151902

>  <Name>
ligand

>  <RI>
0

>  <Rbt.Current_Directory>
/home/itssahil/PROJECTS/Mol_Feturizer/New_Systems/rnas/3D2X

>  <Rbt.Executable>
rbdock ($Id: //depot/dev/client3/rdock/2013.1/src/exe/rbdock.cxx#4 $)

>  <Rbt.Library>
libRbt.so (2013.1, Build901 2013/11/27)

>  <Rbt.Parameter_File>
/export/apps/rDock/src/rDock_2013.1_src/data/scripts/dock_solv.prm

>  <Rbt.Receptor>
prm/pocket_docking_6.prm

>  <SCORE>
-20.4446

>  <SCORE.INTER>
-19.1898

>  <SCORE.INTER.CONST>
1

>  <SCORE.INTER.POLAR>
0

>  <SCORE.INTER.ROT>
8

>  <SCORE.INTER.SOLV>
14.4417

>  <SCORE.INTER.VDW>
-26.5404

>  <SCORE.INTER.norm>
-0.738069

>  <SCORE.INTRA>
-1.2548

>  <SCORE.INTRA.DIHEDRAL>
-2.20912

>  <SCORE.INTRA.DIHEDRAL.0>
7.88077

>  <SCORE.INTRA.POLAR>
0

>  <SCORE.INTRA.POLAR.0>
0

>  <SCORE.INTRA.REPUL>
0

>  <SCORE.INTRA.REPUL.0>
0

>  <SCORE.INTRA.SOLV>
-0.104682

>  <SCORE.INTRA.SOLV.lig_0>
-63.2542

>  <SCORE.INTRA.VDW>
-0.0978992

>  <SCORE.INTRA.VDW.0>
-3.15072

>  <SCORE.INTRA.norm>
-0.0482615

>  <SCORE.RESTR>
0

>  <SCORE.RESTR.CAVITY>
0

>  <SCORE.RESTR.norm>
0

>  <SCORE.SYSTEM>
0

>  <SCORE.SYSTEM.CONST>
0

>  <SCORE.SYSTEM.DIHEDRAL>
0

>  <SCORE.SYSTEM.SOLV>
0

>  <SCORE.SYSTEM.norm>
0

>  <SCORE.heavy>
26

>  <SCORE.norm>
-0.78633

>  <RMSD>
4.140

$$$$
ligand
 OpenBabel11021811473D
libRbt.so/2013.1/901 2013/11/27
 26 27  0  0  0  0  0  0  0  0999 V2000
   -7.2679  -13.8150   19.8296 C   0  0  0  0  0  0  0  0  0  0  0  0
  -10.0689  -15.8309   22.0697 C   0  0  0  0  0  0  0  0  0  0  0  0
   -8.9614  -16.3810   21.4330 C   0  0  0  0  0  0  0  0  0  0  0  0
   -8.7614  -16.3490   19.9159 C   0  0  0  0  0  0  0  0  0  0  0  0
   -6.6362  -15.1754   19.5202 C   0  0  1  0  0  0  0  0  0  0  0  0
   -9.1995  -16.5277   25.7154 C   0  0  0  0  0  0  0  0  0  0  0  0
   -9.1257  -16.4824   24.1884 C   0  0  0  0  0  0  0  0  0  0  0  0
   -7.9791  -16.9682   22.2240 C   0  0  0  0  0  0  0  0  0  0  0  0
   -6.6715  -17.4416   19.3048 C   0  0  0  0  0  0  0  0  0  0  0  0
   -5.2944  -15.3070   19.1832 C   0  0  2  0  0  0  0  0  0  0  0  0
   -4.1866  -14.2592   19.0478 C   0  0  0  0  0  0  0  0  0  0  0  0
   -3.8850  -13.5372   20.3631 C   0  0  0  0  0  0  0  0  0  0  0  0
  -10.1600  -15.8772   23.4623 N   0  0  0  0  0  0  0  0  0  0  0  0
   -7.3327  -16.3143   19.5711 N   0  0  0  0  0  0  0  0  0  0  0  0
   -8.0753  -17.0059   23.5400 N   0  0  0  0  0  0  0  0  0  0  0  0
  -10.9654  -15.3013   21.4126 O   0  0  0  0  0  0  0  0  0  0  0  0
   -1.1742  -14.6217   23.0031 O   0  5  0  0  0  0  0  0  0  0  0  0
    0.2255  -12.4111   24.0475 O   0  0  0  0  0  0  0  0  0  0  0  0
   -2.8287  -14.1748   21.0881 O   0  0  0  0  0  0  0  0  0  0  0  0
   -1.5038  -12.2368   22.1707 O   0  0  0  0  0  0  0  0  0  0  0  0
   -0.1606  -10.1403   22.8701 O   0  5  0  0  0  0  0  0  0  0  0  0
   -3.3990  -13.3917   23.4711 O   0  0  0  0  0  0  0  0  0  0  0  0
   -1.9550  -11.1170   24.4240 O   0  0  0  0  0  0  0  0  0  0  0  0
   -5.0393  -17.0022   18.8762 S   0  0  0  0  0  0  0  0  0  0  0  0
   -2.3036  -13.5936   22.4951 P   0  0  2  0  0  0  0  0  0  0  0  0
   -0.7985  -11.3901   23.3408 P   0  0  2  0  0  0  0  0  0  0  0  0
  2 16  2  0  0  0  0
  2  3  1  0  0  0  0
  2 13  1  0  0  0  0
  3  8  2  0  0  0  0
  3  4  1  0  0  0  0
  4 14  1  0  0  0  0
  5  1  1  1  0  0  0
  5 14  1  0  0  0  0
  5 10  1  0  0  0  0
  6  7  1  0  0  0  0
  7 13  1  0  0  0  0
  7 15  2  0  0  0  0
  8 15  1  0  0  0  0
  9 14  1  0  0  0  0
  9 24  1  0  0  0  0
 10 24  1  0  0  0  0
 10 11  1  6  0  0  0
 11 12  1  0  0  0  0
 12 19  1  0  0  0  0
 17 25  1  0  0  0  0
 19 25  1  0  0  0  0
 20 26  1  0  0  0  0
 21 26  1  0  0  0  0
 22 25  2  0  0  0  0
 23 26  2  0  0  0  0
 25 20  1  6  0  0  0
 26 18  1  1  0  0  0
M  CHG  2  17  -1  21  -1
M  END
>  <CHROM.1>
149.85259890,62.79462544,92.67872097,-84.97061801,178.93019390,-66.37720662
177.56144648,57.49559510,-5.00908701,-14.51986095,21.82195779,-2.82551335
0.42643673,1.23308614

>  <Name>
ligand

>  <RI>
0

>  <Rbt.Current_Directory>
/home/itssahil/PROJECTS/Mol_Feturizer/New_Systems/rnas/3D2X

>  <Rbt.Executable>
rbdock ($Id: //depot/dev/client3/rdock/2013.1/src/exe/rbdock.cxx#4 $)

>  <Rbt.Library>
libRbt.so (2013.1, Build901 2013/11/27)

>  <Rbt.Parameter_File>
/export/apps/rDock/src/rDock_2013.1_src/data/scripts/dock_solv.prm

>  <Rbt.Receptor>
prm/pocket_docking_6.prm

>  <SCORE>
-19.0162

>  <SCORE.INTER>
-18.0844

>  <SCORE.INTER.CONST>
1

>  <SCORE.INTER.POLAR>
0

>  <SCORE.INTER.ROT>
8

>  <SCORE.INTER.SOLV>
17.6925

>  <SCORE.INTER.VDW>
-26.8871

>  <SCORE.INTER.norm>
-0.695555

>  <SCORE.INTRA>
-0.931798

>  <SCORE.INTRA.DIHEDRAL>
0.0230333

>  <SCORE.INTRA.DIHEDRAL.0>
7.88077

>  <SCORE.INTRA.POLAR>
0

>  <SCORE.INTRA.POLAR.0>
0

>  <SCORE.INTRA.REPUL>
0

>  <SCORE.INTRA.REPUL.0>
0

>  <SCORE.INTRA.SOLV>
-1.06621

>  <SCORE.INTRA.SOLV.lig_0>
-63.2542

>  <SCORE.INTRA.VDW>
-0.41021

>  <SCORE.INTRA.VDW.0>
-3.15072

>  <SCORE.INTRA.norm>
-0.0358384

>  <SCORE.RESTR>
0

>  <SCORE.RESTR.CAVITY>
0

>  <SCORE.RESTR.norm>
0

>  <SCORE.SYSTEM>
0

>  <SCORE.SYSTEM.CONST>
0

>  <SCORE.SYSTEM.DIHEDRAL>
0

>  <SCORE.SYSTEM.SOLV>
0

>  <SCORE.SYSTEM.norm>
0

>  <SCORE.heavy>
26

>  <SCORE.norm>
-0.731394

>  <RMSD>
4.143

$$$$
ligand
 OpenBabel11021811473D
libRbt.so/2013.1/901 2013/11/27
 26 27  0  0  0  0  0  0  0  0999 V2000
   -6.5799  -14.8634   22.5675 C   0  0  0  0  0  0  0  0  0  0  0  0
   -9.9582  -17.0628   26.0585 C   0  0  0  0  0  0  0  0  0  0  0  0
   -9.6564  -16.9639   24.7043 C   0  0  0  0  0  0  0  0  0  0  0  0
   -8.2493  -16.6767   24.1750 C   0  0  0  0  0  0  0  0  0  0  0  0
   -7.4592  -15.9597   21.9587 C   0  0  1  0  0  0  0  0  0  0  0  0
  -13.6769  -17.8847   25.8897 C   0  0  0  0  0  0  0  0  0  0  0  0
  -12.2448  -17.5451   25.4737 C   0  0  0  0  0  0  0  0  0  0  0  0
  -10.6869  -17.1599   23.7903 C   0  0  0  0  0  0  0  0  0  0  0  0
   -8.9128  -17.7083   22.0701 C   0  0  0  0  0  0  0  0  0  0  0  0
   -7.5205  -16.1810   20.5881 C   0  0  2  0  0  0  0  0  0  0  0  0
   -6.8068  -15.4846   19.4265 C   0  0  0  0  0  0  0  0  0  0  0  0
   -5.7993  -16.3916   18.7162 C   0  0  0  0  0  0  0  0  0  0  0  0
  -11.2640  -17.3568   26.4565 N   0  0  0  0  0  0  0  0  0  0  0  0
   -8.2051  -16.7755   22.7089 N   0  0  0  0  0  0  0  0  0  0  0  0
  -11.9177  -17.4379   24.1779 N   0  0  0  0  0  0  0  0  0  0  0  0
   -9.0805  -16.8962   26.9056 O   0  0  0  0  0  0  0  0  0  0  0  0
   -6.4532  -19.7634   16.8584 O   0  5  0  0  0  0  0  0  0  0  0  0
   -6.3212  -15.6949   13.8373 O   0  0  0  0  0  0  0  0  0  0  0  0
   -6.4392  -17.5096   18.0931 O   0  0  0  0  0  0  0  0  0  0  0  0
   -6.1696  -17.6121   15.5240 O   0  0  0  0  0  0  0  0  0  0  0  0
   -4.9348  -15.3900   16.0000 O   0  5  0  0  0  0  0  0  0  0  0  0
   -4.2623  -18.4062   17.0565 O   0  0  0  0  0  0  0  0  0  0  0  0
   -4.1160  -16.9650   14.1460 O   0  0  0  0  0  0  0  0  0  0  0  0
   -8.6653  -17.4735   20.3600 S   0  0  0  0  0  0  0  0  0  0  0  0
   -5.7325  -18.3248   16.8976 P   0  0  2  0  0  0  0  0  0  0  0  0
   -5.3610  -16.3456   14.9533 P   0  0  2  0  0  0  0  0  0  0  0  0
  2 16  2  0  0  0  0
  2  3  1  0  0  0  0
  2 13  1  0  0  0  0
  3  8  2  0  0  0  0
  3  4  1  0  0  0  0
  4 14  1  0  0  0  0
  5  1  1  1  0  0  0
  5 14  1  0  0  0  0
  5 10  1  0  0  0  0
  6  7  1  0  0  0  0
  7 13  1  0  0  0  0
  7 15  2  0  0  0  0
  8 15  1  0  0  0  0
  9 14  1  0  0  0  0
  9 24  1  0  0  0  0
 10 24  1  0  0  0  0
 10 11  1  6  0  0  0
 11 12  1  0  0  0  0
 12 19  1  0  0  0  0
 17 25  1  0  0  0  0
 19 25  1  0  0  0  0
 20 26  1  0  0  0  0
 21 26  1  0  0  0  0
 22 25  2  0  0  0  0
 23 26  2  0  0  0  0
 25 20  1  6  0  0  0
 26 18  1  6  0  0  0
M  CHG  2  17  -1  21  -1
M  END
>  <CHROM.1>
173.78188997,112.63825808,63.78933779,143.01411034,159.09743710,-162.43499752
159.08987637,-164.75175062,-7.66336399,-17.05126606,20.13426405,-2.18731473
-0.58319453,-1.93008667

>  <Name>
ligand

>  <RI>
0

>  <Rbt.Current_Directory>
/home/itssahil/PROJECTS/Mol_Feturizer/New_Systems/rnas/3D2X

>  <Rbt.Executable>
rbdock ($Id: //depot/dev/client3/rdock/2013.1/src/exe/rbdock.cxx#4 $)

>  <Rbt.Library>
libRbt.so (2013.1, Build901 2013/11/27)

>  <Rbt.Parameter_File>
/export/apps/rDock/src/rDock_2013.1_src/data/scripts/dock_solv.prm

>  <Rbt.Receptor>
prm/blind_docking_60.prm

>  <SCORE>
-25.2967

>  <SCORE.INTER>
-29.2322

>  <SCORE.INTER.CONST>
1

>  <SCORE.INTER.POLAR>
0

>  <SCORE.INTER.ROT>
8

>  <SCORE.INTER.SOLV>
17.9096

>  <SCORE.INTER.VDW>
-34.3913

>  <SCORE.INTER.norm>
-1.12432

>  <SCORE.INTRA>
3.22206

>  <SCORE.INTRA.DIHEDRAL>
1.48682

>  <SCORE.INTRA.DIHEDRAL.0>
7.88077

>  <SCORE.INTRA.POLAR>
0

>  <SCORE.INTRA.POLAR.0>
0

>  <SCORE.INTRA.REPUL>
0

>  <SCORE.INTRA.REPUL.0>
0

>  <SCORE.INTRA.SOLV>
0.417101

>  <SCORE.INTRA.SOLV.lig_0>
-63.2542

>  <SCORE.INTRA.VDW>
2.2701

>  <SCORE.INTRA.VDW.0>
-3.15072

>  <SCORE.INTRA.norm>
0.123925

>  <SCORE.RESTR>
0.713488

>  <SCORE.RESTR.CAVITY>
0.713488

>  <SCORE.RESTR.norm>
0.0274419

>  <SCORE.SYSTEM>
0

>  <SCORE.SYSTEM.CONST>
0

>  <SCORE.SYSTEM.DIHEDRAL>
0

>  <SCORE.SYSTEM.SOLV>
0

>  <SCORE.SYSTEM.norm>
0

>  <SCORE.heavy>
26

>  <SCORE.norm>
-0.972949

>  <RMSD>
4.163

$$$$
ligand
 OpenBabel11021811473D
libRbt.so/2013.1/901 2013/11/27
 26 27  0  0  0  0  0  0  0  0999 V2000
   -6.4944  -14.0520   27.1746 C   0  0  0  0  0  0  0  0  0  0  0  0
   -9.8410  -17.1048   24.2989 C   0  0  0  0  0  0  0  0  0  0  0  0
   -9.2833  -16.6945   25.5053 C   0  0  0  0  0  0  0  0  0  0  0  0
   -7.8565  -16.1555   25.6321 C   0  0  0  0  0  0  0  0  0  0  0  0
   -7.1570  -13.8045   25.8162 C   0  0  1  0  0  0  0  0  0  0  0  0
  -13.3500  -18.0638   25.4390 C   0  0  0  0  0  0  0  0  0  0  0  0
  -11.8968  -17.5875   25.4582 C   0  0  0  0  0  0  0  0  0  0  0  0
  -10.0769  -16.7591   26.6462 C   0  0  0  0  0  0  0  0  0  0  0  0
   -8.2867  -14.4490   23.9476 C   0  0  0  0  0  0  0  0  0  0  0  0
   -7.1505  -12.5548   25.2081 C   0  0  2  0  0  0  0  0  0  0  0  0
   -6.5446  -11.2231   25.6586 C   0  0  0  0  0  0  0  0  0  0  0  0
   -6.2171  -10.2914   24.4894 C   0  0  0  0  0  0  0  0  0  0  0  0
  -11.1616  -17.5573   24.2657 N   0  0  0  0  0  0  0  0  0  0  0  0
   -7.7653  -14.7766   25.1307 N   0  0  0  0  0  0  0  0  0  0  0  0
  -11.3245  -17.1881   26.6031 N   0  0  0  0  0  0  0  0  0  0  0  0
   -9.1781  -17.0675   23.2621 O   0  0  0  0  0  0  0  0  0  0  0  0
   -5.1796   -8.4909   22.5107 O   0  5  0  0  0  0  0  0  0  0  0  0
   -2.4355  -10.5145   24.9672 O   0  0  0  0  0  0  0  0  0  0  0  0
   -5.0554  -10.7248   23.7751 O   0  0  0  0  0  0  0  0  0  0  0  0
   -2.9735   -9.7627   22.5820 O   0  0  0  0  0  0  0  0  0  0  0  0
   -2.2460  -12.2057   23.0188 O   0  5  0  0  0  0  0  0  0  0  0  0
   -4.9301  -10.7083   21.2058 O   0  0  0  0  0  0  0  0  0  0  0  0
   -0.5582  -10.2842   23.2369 O   0  0  0  0  0  0  0  0  0  0  0  0
   -8.0483  -12.7357   23.7268 S   0  0  0  0  0  0  0  0  0  0  0  0
   -4.5610   -9.9750   22.4384 P   0  0  2  0  0  0  0  0  0  0  0  0
   -2.0720  -10.7930   23.4241 P   0  0  2  0  0  0  0  0  0  0  0  0
  2 16  2  0  0  0  0
  2  3  1  0  0  0  0
  2 13  1  0  0  0  0
  3  8  2  0  0  0  0
  3  4  1  0  0  0  0
  4 14  1  0  0  0  0
  5  1  1  6  0  0  0
  5 14  1  0  0  0  0
  5 10  1  0  0  0  0
  6  7  1  0  0  0  0
  7 13  1  0  0  0  0
  7 15  2  0  0  0  0
  8 15  1  0  0  0  0
  9 14  1  0  0  0  0
  9 24  1  0  0  0  0
 10 24  1  0  0  0  0
 10 11  1  1  0  0  0
 11 12  1  0  0  0  0
 12 19  1  0  0  0  0
 17 25  1  0  0  0  0
 19 25  1  0  0  0  0
 20 26  1  0  0  0  0
 21 26  1  0  0  0  0
 22 25  2  0  0  0  0
 23 26  2  0  0  0  0
 25 20  1  1  0  0  0
 26 18  1  1  0  0  0
M  CHG  2  17  -1  21  -1
M  END
>  <CHROM.1>
75.73916303,154.40604595,-74.15696486,132.31982955,175.60687847,141.92404049
22.60397408,-72.30823805,-6.56906174,-13.09026605,24.21664573,-2.45047684
-0.33295416,-0.68989284

>  <Name>
ligand

>  <RI>
0

>  <Rbt.Current_Directory>
/home/itssahil/PROJECTS/Mol_Feturizer/New_Systems/rnas/3D2X

>  <Rbt.Executable>
rbdock ($Id: //depot/dev/client3/rdock/2013.1/src/exe/rbdock.cxx#4 $)

>  <Rbt.Library>
libRbt.so (2013.1, Build901 2013/11/27)

>  <Rbt.Parameter_File>
/export/apps/rDock/src/rDock_2013.1_src/data/scripts/dock_solv.prm

>  <Rbt.Receptor>
prm/pocket_docking_6.prm

>  <SCORE>
-19.6422

>  <SCORE.INTER>
-19.0532

>  <SCORE.INTER.CONST>
1

>  <SCORE.INTER.POLAR>
0

>  <SCORE.INTER.ROT>
8

>  <SCORE.INTER.SOLV>
7.24014

>  <SCORE.INTER.VDW>
-24.0488

>  <SCORE.INTER.norm>
-0.732814

>  <SCORE.INTRA>
-0.589003

>  <SCORE.INTRA.DIHEDRAL>
1.07794

>  <SCORE.INTRA.DIHEDRAL.0>
7.88077

>  <SCORE.INTRA.POLAR>
0

>  <SCORE.INTRA.POLAR.0>
0

>  <SCORE.INTRA.REPUL>
0

>  <SCORE.INTRA.REPUL.0>
0

>  <SCORE.INTRA.SOLV>
-2.43697

>  <SCORE.INTRA.SOLV.lig_0>
-63.2542

>  <SCORE.INTRA.VDW>
0.0905113

>  <SCORE.INTRA.VDW.0>
-3.15072

>  <SCORE.INTRA.norm>
-0.022654

>  <SCORE.RESTR>
0

>  <SCORE.RESTR.CAVITY>
0

>  <SCORE.RESTR.norm>
0

>  <SCORE.SYSTEM>
0

>  <SCORE.SYSTEM.CONST>
0

>  <SCORE.SYSTEM.DIHEDRAL>
0

>  <SCORE.SYSTEM.SOLV>
0

>  <SCORE.SYSTEM.norm>
0

>  <SCORE.heavy>
26

>  <SCORE.norm>
-0.755468

>  <RMSD>
4.164

$$$$
ligand
 OpenBabel11021811473D
libRbt.so/2013.1/901 2013/11/27
 26 27  0  0  0  0  0  0  0  0999 V2000
   -6.5891  -17.7133   22.9933 C   0  0  0  0  0  0  0  0  0  0  0  0
  -10.1413  -16.5981   26.2423 C   0  0  0  0  0  0  0  0  0  0  0  0
   -9.7456  -16.4651   24.9154 C   0  0  0  0  0  0  0  0  0  0  0  0
   -8.3769  -15.9234   24.4962 C   0  0  0  0  0  0  0  0  0  0  0  0
   -7.4569  -16.6395   22.3304 C   0  0  1  0  0  0  0  0  0  0  0  0
  -13.6089  -18.1162   25.7907 C   0  0  0  0  0  0  0  0  0  0  0  0
  -12.2355  -17.5166   25.4848 C   0  0  0  0  0  0  0  0  0  0  0  0
  -10.6362  -16.8683   23.9256 C   0  0  0  0  0  0  0  0  0  0  0  0
   -8.9922  -14.9585   22.3456 C   0  0  0  0  0  0  0  0  0  0  0  0
   -7.4657  -16.4427   20.9547 C   0  0  2  0  0  0  0  0  0  0  0  0
   -6.7095  -17.1604   19.8337 C   0  0  0  0  0  0  0  0  0  0  0  0
   -5.8658  -16.2103   18.9806 C   0  0  0  0  0  0  0  0  0  0  0  0
  -11.3981  -17.1292   26.5393 N   0  0  0  0  0  0  0  0  0  0  0  0
   -8.2659  -15.8413   23.0327 N   0  0  0  0  0  0  0  0  0  0  0  0
  -11.8218  -17.3696   24.2180 N   0  0  0  0  0  0  0  0  0  0  0  0
   -9.3887  -16.2539   27.1538 O   0  0  0  0  0  0  0  0  0  0  0  0
   -6.1478  -19.1520   17.3548 O   0  5  0  0  0  0  0  0  0  0  0  0
   -3.8632  -17.1181   13.3302 O   0  0  0  0  0  0  0  0  0  0  0  0
   -5.8375  -16.6135   17.6079 O   0  0  0  0  0  0  0  0  0  0  0  0
   -4.8994  -17.8618   15.5476 O   0  0  0  0  0  0  0  0  0  0  0  0
   -4.4156  -15.3542   15.1401 O   0  5  0  0  0  0  0  0  0  0  0  0
   -3.8080  -18.1744   17.8557 O   0  0  0  0  0  0  0  0  0  0  0  0
   -2.4888  -17.0131   15.4915 O   0  0  0  0  0  0  0  0  0  0  0  0
   -8.5458  -15.1072   20.6665 S   0  0  0  0  0  0  0  0  0  0  0  0
   -5.0875  -17.9601   17.1415 P   0  0  2  0  0  0  0  0  0  0  0  0
   -3.9551  -16.7386   14.8917 P   0  0  2  0  0  0  0  0  0  0  0  0
  2 16  2  0  0  0  0
  2  3  1  0  0  0  0
  2 13  1  0  0  0  0
  3  8  2  0  0  0  0
  3  4  1  0  0  0  0
  4 14  1  0  0  0  0
  5  1  1  6  0  0  0
  5 14  1  0  0  0  0
  5 10  1  0  0  0  0
  6  7  1  0  0  0  0
  7 13  1  0  0  0  0
  7 15  2  0  0  0  0
  8 15  1  0  0  0  0
  9 14  1  0  0  0  0
  9 24  1  0  0  0  0
 10 24  1  0  0  0  0
 10 11  1  1  0  0  0
 11 12  1  0  0  0  0
 12 19  1  0  0  0  0
 17 25  1  0  0  0  0
 19 25  1  0  0  0  0
 20 26  1  0  0  0  0
 21 26  1  0  0  0  0
 22 25  2  0  0  0  0
 23 26  2  0  0  0  0
 25 20  1  6  0  0  0
 26 18  1  6  0  0  0
M  CHG  2  17  -1  21  -1
M  END
>  <CHROM.1>
-177.43779589,-123.19999950,-144.90556836,-110.91700930,-68.15862503,177.37786753
84.77453776,171.67023540,-7.25045300,-16.85193430,20.31562721,-2.22965033
-0.43628824,-1.92340547

>  <Name>
ligand

>  <RI>
0

>  <Rbt.Current_Directory>
/home/itssahil/PROJECTS/Mol_Feturizer/New_Systems/rnas/3D2X

>  <Rbt.Executable>
rbdock ($Id: //depot/dev/client3/rdock/2013.1/src/exe/rbdock.cxx#4 $)

>  <Rbt.Library>
libRbt.so (2013.1, Build901 2013/11/27)

>  <Rbt.Parameter_File>
/export/apps/rDock/src/rDock_2013.1_src/data/scripts/dock_solv.prm

>  <Rbt.Receptor>
prm/blind_docking_60.prm

>  <SCORE>
-24.971

>  <SCORE.INTER>
-26.3881

>  <SCORE.INTER.CONST>
1

>  <SCORE.INTER.POLAR>
0

>  <SCORE.INTER.ROT>
8

>  <SCORE.INTER.SOLV>
18.6474

>  <SCORE.INTER.VDW>
-32.7412

>  <SCORE.INTER.norm>
-1.01493

>  <SCORE.INTRA>
1.41713

>  <SCORE.INTRA.DIHEDRAL>
1.7738

>  <SCORE.INTRA.DIHEDRAL.0>
7.88077

>  <SCORE.INTRA.POLAR>
0

>  <SCORE.INTRA.POLAR.0>
0

>  <SCORE.INTRA.REPUL>
0

>  <SCORE.INTRA.REPUL.0>
0

>  <SCORE.INTRA.SOLV>
0.661876

>  <SCORE.INTRA.SOLV.lig_0>
-63.2542

>  <SCORE.INTRA.VDW>
0.19929

>  <SCORE.INTRA.VDW.0>
-3.15072

>  <SCORE.INTRA.norm>
0.0545049

>  <SCORE.RESTR>
0

>  <SCORE.RESTR.CAVITY>
0

>  <SCORE.RESTR.norm>
0

>  <SCORE.SYSTEM>
0

>  <SCORE.SYSTEM.CONST>
0

>  <SCORE.SYSTEM.DIHEDRAL>
0

>  <SCORE.SYSTEM.SOLV>
0

>  <SCORE.SYSTEM.norm>
0

>  <SCORE.heavy>
26

>  <SCORE.norm>
-0.960421

>  <RMSD>
4.166

$$$$
ligand
 OpenBabel11021811473D
libRbt.so/2013.1/901 2013/11/27
 26 27  0  0  0  0  0  0  0  0999 V2000
   -7.6297  -14.0348   23.5613 C   0  0  0  0  0  0  0  0  0  0  0  0
   -9.7387  -16.8844   24.3655 C   0  0  0  0  0  0  0  0  0  0  0  0
   -8.9717  -16.6931   25.5100 C   0  0  0  0  0  0  0  0  0  0  0  0
   -7.5024  -16.2657   25.4760 C   0  0  0  0  0  0  0  0  0  0  0  0
   -7.3952  -13.8433   25.0627 C   0  0  1  0  0  0  0  0  0  0  0  0
  -13.1004  -17.7907   25.9181 C   0  0  0  0  0  0  0  0  0  0  0  0
  -11.6267  -17.4107   25.7661 C   0  0  0  0  0  0  0  0  0  0  0  0
   -9.5847  -16.8798   26.7448 C   0  0  0  0  0  0  0  0  0  0  0  0
   -7.1605  -14.5821   27.2033 C   0  0  0  0  0  0  0  0  0  0  0  0
   -7.2348  -12.5850   25.6304 C   0  0  2  0  0  0  0  0  0  0  0  0
   -7.2523  -11.1902   24.9998 C   0  0  0  0  0  0  0  0  0  0  0  0
   -6.1938  -11.0161   23.9082 C   0  0  0  0  0  0  0  0  0  0  0  0
  -11.0819  -17.2467   24.4856 N   0  0  0  0  0  0  0  0  0  0  0  0
   -7.3468  -14.8712   25.9146 N   0  0  0  0  0  0  0  0  0  0  0  0
  -10.8556  -17.2219   26.8466 N   0  0  0  0  0  0  0  0  0  0  0  0
   -9.2407  -16.7325   23.2498 O   0  0  0  0  0  0  0  0  0  0  0  0
   -5.3978   -7.6586   22.0140 O   0  5  0  0  0  0  0  0  0  0  0  0
   -1.4613  -10.1587   23.9316 O   0  0  0  0  0  0  0  0  0  0  0  0
   -6.1886   -9.6855   23.3818 O   0  0  0  0  0  0  0  0  0  0  0  0
   -3.6683   -9.2234   23.0385 O   0  0  0  0  0  0  0  0  0  0  0  0
   -3.4143  -11.7710   23.4039 O   0  5  0  0  0  0  0  0  0  0  0  0
   -5.1101  -10.0496   21.0750 O   0  0  0  0  0  0  0  0  0  0  0  0
   -2.1537  -10.5948   21.5023 O   0  0  0  0  0  0  0  0  0  0  0  0
   -6.9512  -12.8554   27.3274 S   0  0  0  0  0  0  0  0  0  0  0  0
   -5.0954   -9.2138   22.2975 P   0  0  2  0  0  0  0  0  0  0  0  0
   -2.7247  -10.5241   23.0037 P   0  0  2  0  0  0  0  0  0  0  0  0
  2 16  2  0  0  0  0
  2  3  1  0  0  0  0
  2 13  1  0  0  0  0
  3  8  2  0  0  0  0
  3  4  1  0  0  0  0
  4 14  1  0  0  0  0
  5  1  1  1  0  0  0
  5 14  1  0  0  0  0
  5 10  1  0  0  0  0
  6  7  1  0  0  0  0
  7 13  1  0  0  0  0
  7 15  2  0  0  0  0
  8 15  1  0  0  0  0
  9 14  1  0  0  0  0
  9 24  1  0  0  0  0
 10 24  1  0  0  0  0
 10 11  1  6  0  0  0
 11 12  1  0  0  0  0
 12 19  1  0  0  0  0
 17 25  1  0  0  0  0
 19 25  1  0  0  0  0
 20 26  1  0  0  0  0
 21 26  1  0  0  0  0
 22 25  2  0  0  0  0
 23 26  2  0  0  0  0
 25 20  1  1  0  0  0
 26 18  1  1  0  0  0
M  CHG  2  17  -1  21  -1
M  END
>  <CHROM.1>
107.66495239,-58.46954905,-177.15994251,-90.10203037,175.44583125,-156.09962336
-177.86078024,-176.29249450,-6.68202676,-12.88373193,24.31727475,2.46253577
0.59387605,2.12693434

>  <Name>
ligand

>  <RI>
0

>  <Rbt.Current_Directory>
/home/itssahil/PROJECTS/Mol_Feturizer/New_Systems/rnas/3D2X

>  <Rbt.Executable>
rbdock ($Id: //depot/dev/client3/rdock/2013.1/src/exe/rbdock.cxx#4 $)

>  <Rbt.Library>
libRbt.so (2013.1, Build901 2013/11/27)

>  <Rbt.Parameter_File>
/export/apps/rDock/src/rDock_2013.1_src/data/scripts/dock_solv.prm

>  <Rbt.Receptor>
prm/pocket_docking_5.prm

>  <SCORE>
-18.298

>  <SCORE.INTER>
-17.2395

>  <SCORE.INTER.CONST>
1

>  <SCORE.INTER.POLAR>
0

>  <SCORE.INTER.ROT>
8

>  <SCORE.INTER.SOLV>
6.14005

>  <SCORE.INTER.VDW>
-22.473

>  <SCORE.INTER.norm>
-0.663059

>  <SCORE.INTRA>
-1.05848

>  <SCORE.INTRA.DIHEDRAL>
-2.00999

>  <SCORE.INTRA.DIHEDRAL.0>
7.88077

>  <SCORE.INTRA.POLAR>
0

>  <SCORE.INTRA.POLAR.0>
0

>  <SCORE.INTRA.REPUL>
0

>  <SCORE.INTRA.REPUL.0>
0

>  <SCORE.INTRA.SOLV>
0.86304

>  <SCORE.INTRA.SOLV.lig_0>
-63.2542

>  <SCORE.INTRA.VDW>
-0.48501

>  <SCORE.INTRA.VDW.0>
-3.15072

>  <SCORE.INTRA.norm>
-0.0407109

>  <SCORE.RESTR>
0

>  <SCORE.RESTR.CAVITY>
0

>  <SCORE.RESTR.norm>
0

>  <SCORE.SYSTEM>
0

>  <SCORE.SYSTEM.CONST>
0

>  <SCORE.SYSTEM.DIHEDRAL>
0

>  <SCORE.SYSTEM.SOLV>
0

>  <SCORE.SYSTEM.norm>
0

>  <SCORE.heavy>
26

>  <SCORE.norm>
-0.70377

>  <RMSD>
4.170

$$$$
ligand
 OpenBabel11021811473D
libRbt.so/2013.1/901 2013/11/27
 26 27  0  0  0  0  0  0  0  0999 V2000
   -7.2113  -14.1569   23.6933 C   0  0  0  0  0  0  0  0  0  0  0  0
   -9.6096  -16.9318   24.4385 C   0  0  0  0  0  0  0  0  0  0  0  0
   -8.9076  -16.7376   25.6235 C   0  0  0  0  0  0  0  0  0  0  0  0
   -7.4346  -16.3248   25.6705 C   0  0  0  0  0  0  0  0  0  0  0  0
   -7.1825  -13.9224   25.2065 C   0  0  1  0  0  0  0  0  0  0  0  0
  -13.0639  -17.7913   25.8027 C   0  0  0  0  0  0  0  0  0  0  0  0
  -11.5802  -17.4271   25.7325 C   0  0  0  0  0  0  0  0  0  0  0  0
   -9.5925  -16.9072   26.8226 C   0  0  0  0  0  0  0  0  0  0  0  0
   -7.2768  -14.5956   27.3793 C   0  0  0  0  0  0  0  0  0  0  0  0
   -7.0574  -12.6514   25.7546 C   0  0  2  0  0  0  0  0  0  0  0  0
   -6.9358  -11.2789   25.0877 C   0  0  0  0  0  0  0  0  0  0  0  0
   -8.1779  -10.8966   24.2795 C   0  0  0  0  0  0  0  0  0  0  0  0
  -10.9611  -17.2799   24.4842 N   0  0  0  0  0  0  0  0  0  0  0  0
   -7.2912  -14.9220   26.0862 N   0  0  0  0  0  0  0  0  0  0  0  0
  -10.8705  -17.2360   26.8540 N   0  0  0  0  0  0  0  0  0  0  0  0
   -9.0468  -16.7947   23.3520 O   0  0  0  0  0  0  0  0  0  0  0  0
   -6.7016  -11.3594   21.9028 O   0  5  0  0  0  0  0  0  0  0  0  0
   -8.4666   -8.9781   18.4647 O   0  0  0  0  0  0  0  0  0  0  0  0
   -7.9466   -9.7428   23.4652 O   0  0  0  0  0  0  0  0  0  0  0  0
   -7.8294   -9.2968   20.9215 O   0  0  0  0  0  0  0  0  0  0  0  0
   -6.0065   -8.6629   19.2000 O   0  5  0  0  0  0  0  0  0  0  0  0
   -5.7310   -9.0120   22.3817 O   0  0  0  0  0  0  0  0  0  0  0  0
   -7.0637  -11.0017   19.1775 O   0  0  0  0  0  0  0  0  0  0  0  0
   -7.0242  -12.8732   27.4817 S   0  0  0  0  0  0  0  0  0  0  0  0
   -6.9708   -9.7979   22.1854 P   0  0  2  0  0  0  0  0  0  0  0  0
   -7.2551   -9.4247   19.4257 P   0  0  2  0  0  0  0  0  0  0  0  0
  2 16  2  0  0  0  0
  2  3  1  0  0  0  0
  2 13  1  0  0  0  0
  3  8  2  0  0  0  0
  3  4  1  0  0  0  0
  4 14  1  0  0  0  0
  5  1  1  6  0  0  0
  5 14  1  0  0  0  0
  5 10  1  0  0  0  0
  6  7  1  0  0  0  0
  7 13  1  0  0  0  0
  7 15  2  0  0  0  0
  8 15  1  0  0  0  0
  9 14  1  0  0  0  0
  9 24  1  0  0  0  0
 10 24  1  0  0  0  0
 10 11  1  6  0  0  0
 11 12  1  0  0  0  0
 12 19  1  0  0  0  0
 17 25  1  0  0  0  0
 19 25  1  0  0  0  0
 20 26  1  0  0  0  0
 21 26  1  0  0  0  0
 22 25  2  0  0  0  0
 23 26  2  0  0  0  0
 25 20  1  6  0  0  0
 26 18  1  6  0  0  0
M  CHG  2  17  -1  21  -1
M  END
>  <CHROM.1>
106.81395224,63.70509829,-168.85148924,-94.88682300,69.72912360,-58.64355577
13.12466030,173.69674875,-8.02058598,-12.82508098,23.61997592,-2.04493711
-0.90178723,-1.04660468

>  <Name>
ligand

>  <RI>
0

>  <Rbt.Current_Directory>
/home/itssahil/PROJECTS/Mol_Feturizer/New_Systems/rnas/3D2X

>  <Rbt.Executable>
rbdock ($Id: //depot/dev/client3/rdock/2013.1/src/exe/rbdock.cxx#4 $)

>  <Rbt.Library>
libRbt.so (2013.1, Build901 2013/11/27)

>  <Rbt.Parameter_File>
/export/apps/rDock/src/rDock_2013.1_src/data/scripts/dock_solv.prm

>  <Rbt.Receptor>
prm/pocket_docking_6.prm

>  <SCORE>
-26.1142

>  <SCORE.INTER>
-27.1818

>  <SCORE.INTER.CONST>
1

>  <SCORE.INTER.POLAR>
0

>  <SCORE.INTER.ROT>
8

>  <SCORE.INTER.SOLV>
15.5025

>  <SCORE.INTER.VDW>
-32.222

>  <SCORE.INTER.norm>
-1.04545

>  <SCORE.INTRA>
1.06761

>  <SCORE.INTRA.DIHEDRAL>
-0.0945892

>  <SCORE.INTRA.DIHEDRAL.0>
7.88077

>  <SCORE.INTRA.POLAR>
0

>  <SCORE.INTRA.POLAR.0>
0

>  <SCORE.INTRA.REPUL>
0

>  <SCORE.INTRA.REPUL.0>
0

>  <SCORE.INTRA.SOLV>
2.70487

>  <SCORE.INTRA.SOLV.lig_0>
-63.2542

>  <SCORE.INTRA.VDW>
-0.237531

>  <SCORE.INTRA.VDW.0>
-3.15072

>  <SCORE.INTRA.norm>
0.0410619

>  <SCORE.RESTR>
0

>  <SCORE.RESTR.CAVITY>
0

>  <SCORE.RESTR.norm>
0

>  <SCORE.SYSTEM>
0

>  <SCORE.SYSTEM.CONST>
0

>  <SCORE.SYSTEM.DIHEDRAL>
0

>  <SCORE.SYSTEM.SOLV>
0

>  <SCORE.SYSTEM.norm>
0

>  <SCORE.heavy>
26

>  <SCORE.norm>
-1.00439

>  <RMSD>
4.173

$$$$
ligand
 OpenBabel11021811473D
libRbt.so/2013.1/901 2013/11/27
 26 27  0  0  0  0  0  0  0  0999 V2000
   -6.2418  -18.4273   17.9963 C   0  0  0  0  0  0  0  0  0  0  0  0
   -9.5028  -16.2467   21.8695 C   0  0  0  0  0  0  0  0  0  0  0  0
   -8.4020  -17.0010   21.4772 C   0  0  0  0  0  0  0  0  0  0  0  0
   -8.0425  -17.2660   20.0132 C   0  0  0  0  0  0  0  0  0  0  0  0
   -5.9396  -17.1259   18.7451 C   0  0  1  0  0  0  0  0  0  0  0  0
   -9.1002  -16.3374   25.6592 C   0  0  0  0  0  0  0  0  0  0  0  0
   -8.8630  -16.5800   24.1679 C   0  0  0  0  0  0  0  0  0  0  0  0
   -7.5780  -17.5185   22.4716 C   0  0  0  0  0  0  0  0  0  0  0  0
   -6.4180  -15.4629   20.2245 C   0  0  0  0  0  0  0  0  0  0  0  0
   -4.7834  -16.3909   18.5114 C   0  0  2  0  0  0  0  0  0  0  0  0
   -3.6188  -16.6324   17.5477 C   0  0  0  0  0  0  0  0  0  0  0  0
   -3.1936  -15.3678   16.7978 C   0  0  0  0  0  0  0  0  0  0  0  0
   -9.7432  -16.0283   23.2275 N   0  0  0  0  0  0  0  0  0  0  0  0
   -6.7750  -16.6141   19.6533 N   0  0  0  0  0  0  0  0  0  0  0  0
   -7.8145  -17.3053   23.7526 N   0  0  0  0  0  0  0  0  0  0  0  0
  -10.2622  -15.7687   21.0265 O   0  0  0  0  0  0  0  0  0  0  0  0
   -5.0313  -13.0788   14.3182 O   0  5  0  0  0  0  0  0  0  0  0  0
   -6.1099  -10.6351   15.1846 O   0  0  0  0  0  0  0  0  0  0  0  0
   -4.2962  -14.7566   16.1207 O   0  0  0  0  0  0  0  0  0  0  0  0
   -5.2741  -12.4549   16.7761 O   0  0  0  0  0  0  0  0  0  0  0  0
   -6.4473  -10.3588   17.7345 O   0  5  0  0  0  0  0  0  0  0  0  0
   -2.9243  -12.6139   15.7417 O   0  0  0  0  0  0  0  0  0  0  0  0
   -4.1000  -10.1852   16.7106 O   0  0  0  0  0  0  0  0  0  0  0  0
   -4.8439  -15.0378   19.6062 S   0  0  0  0  0  0  0  0  0  0  0  0
   -4.2880  -13.1916   15.7413 P   0  0  2  0  0  0  0  0  0  0  0  0
   -5.5519  -10.8750   16.6751 P   0  0  2  0  0  0  0  0  0  0  0  0
  2 16  2  0  0  0  0
  2  3  1  0  0  0  0
  2 13  1  0  0  0  0
  3  8  2  0  0  0  0
  3  4  1  0  0  0  0
  4 14  1  0  0  0  0
  5  1  1  6  0  0  0
  5 14  1  0  0  0  0
  5 10  1  0  0  0  0
  6  7  1  0  0  0  0
  7 13  1  0  0  0  0
  7 15  2  0  0  0  0
  8 15  1  0  0  0  0
  9 14  1  0  0  0  0
  9 24  1  0  0  0  0
 10 24  1  0  0  0  0
 10 11  1  1  0  0  0
 11 12  1  0  0  0  0
 12 19  1  0  0  0  0
 17 25  1  0  0  0  0
 19 25  1  0  0  0  0
 20 26  1  0  0  0  0
 21 26  1  0  0  0  0
 22 25  2  0  0  0  0
 23 26  2  0  0  0  0
 25 20  1  1  0  0  0
 26 18  1  6  0  0  0
M  CHG  2  17  -1  21  -1
M  END
>  <CHROM.1>
113.68420322,135.37953133,-54.22496467,148.34816980,156.49891364,-66.14247816
143.71474020,56.86611162,-6.11404852,-14.59995389,18.78342057,-2.29645555
0.85631768,-0.37793598

>  <Name>
ligand

>  <RI>
0

>  <Rbt.Current_Directory>
/home/itssahil/PROJECTS/Mol_Feturizer/New_Systems/rnas/3D2X

>  <Rbt.Executable>
rbdock ($Id: //depot/dev/client3/rdock/2013.1/src/exe/rbdock.cxx#4 $)

>  <Rbt.Library>
libRbt.so (2013.1, Build901 2013/11/27)

>  <Rbt.Parameter_File>
/export/apps/rDock/src/rDock_2013.1_src/data/scripts/dock_solv.prm

>  <Rbt.Receptor>
prm/pocket_docking_6.prm

>  <SCORE>
-14.1206

>  <SCORE.INTER>
-14.1249

>  <SCORE.INTER.CONST>
1

>  <SCORE.INTER.POLAR>
0

>  <SCORE.INTER.ROT>
8

>  <SCORE.INTER.SOLV>
17.6139

>  <SCORE.INTER.VDW>
-24.2212

>  <SCORE.INTER.norm>
-0.543264

>  <SCORE.INTRA>
0.00426252

>  <SCORE.INTRA.DIHEDRAL>
1.5111

>  <SCORE.INTRA.DIHEDRAL.0>
7.88077

>  <SCORE.INTRA.POLAR>
0

>  <SCORE.INTRA.POLAR.0>
0

>  <SCORE.INTRA.REPUL>
0

>  <SCORE.INTRA.REPUL.0>
0

>  <SCORE.INTRA.SOLV>
-1.01138

>  <SCORE.INTRA.SOLV.lig_0>
-63.2542

>  <SCORE.INTRA.VDW>
-0.245595

>  <SCORE.INTRA.VDW.0>
-3.15072

>  <SCORE.INTRA.norm>
0.000163943

>  <SCORE.RESTR>
0

>  <SCORE.RESTR.CAVITY>
0

>  <SCORE.RESTR.norm>
0

>  <SCORE.SYSTEM>
0

>  <SCORE.SYSTEM.CONST>
0

>  <SCORE.SYSTEM.DIHEDRAL>
0

>  <SCORE.SYSTEM.SOLV>
0

>  <SCORE.SYSTEM.norm>
0

>  <SCORE.heavy>
26

>  <SCORE.norm>
-0.5431

>  <RMSD>
4.231

$$$$
ligand
 OpenBabel11021811473D
libRbt.so/2013.1/901 2013/11/27
 26 27  0  0  0  0  0  0  0  0999 V2000
   -5.2776  -14.4740   24.1702 C   0  0  0  0  0  0  0  0  0  0  0  0
   -9.5600  -16.8314   24.3232 C   0  0  0  0  0  0  0  0  0  0  0  0
   -8.7111  -16.7308   25.4205 C   0  0  0  0  0  0  0  0  0  0  0  0
   -7.2309  -16.3582   25.3075 C   0  0  0  0  0  0  0  0  0  0  0  0
   -6.0761  -14.1908   25.4461 C   0  0  1  0  0  0  0  0  0  0  0  0
  -12.8454  -17.6912   26.0551 C   0  0  0  0  0  0  0  0  0  0  0  0
  -11.3707  -17.3598   25.8217 C   0  0  0  0  0  0  0  0  0  0  0  0
   -9.2477  -16.9598   26.6835 C   0  0  0  0  0  0  0  0  0  0  0  0
   -7.6162  -14.6949   27.0453 C   0  0  0  0  0  0  0  0  0  0  0  0
   -5.9370  -13.0044   26.1563 C   0  0  2  0  0  0  0  0  0  0  0  0
   -5.0585  -11.7777   25.8980 C   0  0  0  0  0  0  0  0  0  0  0  0
   -5.2389  -11.2006   24.4920 C   0  0  0  0  0  0  0  0  0  0  0  0
  -10.9060  -17.1484   24.5168 N   0  0  0  0  0  0  0  0  0  0  0  0
   -6.9624  -15.0593   25.9413 N   0  0  0  0  0  0  0  0  0  0  0  0
  -10.5221  -17.2584   26.8549 N   0  0  0  0  0  0  0  0  0  0  0  0
   -9.1316  -16.6390   23.1852 O   0  0  0  0  0  0  0  0  0  0  0  0
   -6.0259   -9.2375   22.3248 O   0  5  0  0  0  0  0  0  0  0  0  0
   -7.0879  -10.1616   19.6462 O   0  0  0  0  0  0  0  0  0  0  0  0
   -6.6046  -10.8651   24.2276 O   0  0  0  0  0  0  0  0  0  0  0  0
   -6.8313  -11.5862   21.7553 O   0  0  0  0  0  0  0  0  0  0  0  0
   -4.7498  -11.0388   20.3214 O   0  5  0  0  0  0  0  0  0  0  0  0
   -8.4863   -9.8960   22.7657 O   0  0  0  0  0  0  0  0  0  0  0  0
   -6.5416  -12.6586   19.4530 O   0  0  0  0  0  0  0  0  0  0  0  0
   -6.9891  -13.1439   27.5372 S   0  0  0  0  0  0  0  0  0  0  0  0
   -7.0820  -10.3664   22.7727 P   0  0  2  0  0  0  0  0  0  0  0  0
   -6.1997  -11.3346   20.2988 P   0  0  2  0  0  0  0  0  0  0  0  0
  2 16  2  0  0  0  0
  2  3  1  0  0  0  0
  2 13  1  0  0  0  0
  3  8  2  0  0  0  0
  3  4  1  0  0  0  0
  4 14  1  0  0  0  0
  5  1  1  6  0  0  0
  5 14  1  0  0  0  0
  5 10  1  0  0  0  0
  6  7  1  0  0  0  0
  7 13  1  0  0  0  0
  7 15  2  0  0  0  0
  8 15  1  0  0  0  0
  9 14  1  0  0  0  0
  9 24  1  0  0  0  0
 10 24  1  0  0  0  0
 10 11  1  1  0  0  0
 11 12  1  0  0  0  0
 12 19  1  0  0  0  0
 17 25  1  0  0  0  0
 19 25  1  0  0  0  0
 20 26  1  0  0  0  0
 21 26  1  0  0  0  0
 22 25  2  0  0  0  0
 23 26  2  0  0  0  0
 25 20  1  6  0  0  0
 26 18  1  6  0  0  0
M  CHG  2  17  -1  21  -1
M  END
>  <CHROM.1>
114.05341213,53.41478303,56.42979854,-143.63251734,-174.30605262,-25.05981898
-47.53737644,-51.09364229,-7.47563917,-13.35755732,23.95777934,-0.87099941
0.85490301,1.93099927

>  <Name>
ligand

>  <RI>
0

>  <Rbt.Current_Directory>
/home/itssahil/PROJECTS/Mol_Feturizer/New_Systems/rnas/3D2X

>  <Rbt.Executable>
rbdock ($Id: //depot/dev/client3/rdock/2013.1/src/exe/rbdock.cxx#4 $)

>  <Rbt.Library>
libRbt.so (2013.1, Build901 2013/11/27)

>  <Rbt.Parameter_File>
/export/apps/rDock/src/rDock_2013.1_src/data/scripts/dock_solv.prm

>  <Rbt.Receptor>
prm/pocket_docking_7.prm

>  <SCORE>
-19.4324

>  <SCORE.INTER>
-18.8056

>  <SCORE.INTER.CONST>
1

>  <SCORE.INTER.POLAR>
0

>  <SCORE.INTER.ROT>
8

>  <SCORE.INTER.SOLV>
10.7019

>  <SCORE.INTER.VDW>
-25.0377

>  <SCORE.INTER.norm>
-0.723292

>  <SCORE.INTRA>
-0.626765

>  <SCORE.INTRA.DIHEDRAL>
-0.961079

>  <SCORE.INTRA.DIHEDRAL.0>
7.88077

>  <SCORE.INTRA.POLAR>
0

>  <SCORE.INTRA.POLAR.0>
0

>  <SCORE.INTRA.REPUL>
0

>  <SCORE.INTRA.REPUL.0>
0

>  <SCORE.INTRA.SOLV>
-1.2277

>  <SCORE.INTRA.SOLV.lig_0>
-63.2542

>  <SCORE.INTRA.VDW>
0.467624

>  <SCORE.INTRA.VDW.0>
-3.15072

>  <SCORE.INTRA.norm>
-0.0241063

>  <SCORE.RESTR>
0

>  <SCORE.RESTR.CAVITY>
0

>  <SCORE.RESTR.norm>
0

>  <SCORE.SYSTEM>
0

>  <SCORE.SYSTEM.CONST>
0

>  <SCORE.SYSTEM.DIHEDRAL>
0

>  <SCORE.SYSTEM.SOLV>
0

>  <SCORE.SYSTEM.norm>
0

>  <SCORE.heavy>
26

>  <SCORE.norm>
-0.747398

>  <RMSD>
4.231

$$$$
ligand
 OpenBabel11021811473D
libRbt.so/2013.1/901 2013/11/27
 26 27  0  0  0  0  0  0  0  0999 V2000
   -6.0492  -14.9041   22.5054 C   0  0  0  0  0  0  0  0  0  0  0  0
   -9.9276  -16.4792   25.2184 C   0  0  0  0  0  0  0  0  0  0  0  0
   -9.9707  -16.0512   23.8957 C   0  0  0  0  0  0  0  0  0  0  0  0
   -8.8805  -15.1890   23.2547 C   0  0  0  0  0  0  0  0  0  0  0  0
   -7.0603  -15.7100   21.6845 C   0  0  1  0  0  0  0  0  0  0  0  0
  -13.1228  -18.5514   25.3892 C   0  0  0  0  0  0  0  0  0  0  0  0
  -12.0024  -17.6513   24.8659 C   0  0  0  0  0  0  0  0  0  0  0  0
  -11.0515  -16.4503   23.1158 C   0  0  0  0  0  0  0  0  0  0  0  0
   -9.1239  -16.5765   21.2670 C   0  0  0  0  0  0  0  0  0  0  0  0
   -6.7009  -16.3782   20.5201 C   0  0  2  0  0  0  0  0  0  0  0  0
   -5.3511  -16.4979   19.8079 C   0  0  0  0  0  0  0  0  0  0  0  0
   -5.4821  -16.5269   18.2833 C   0  0  0  0  0  0  0  0  0  0  0  0
  -10.9502  -17.2887   25.7172 N   0  0  0  0  0  0  0  0  0  0  0  0
   -8.3405  -15.8303   22.0472 N   0  0  0  0  0  0  0  0  0  0  0  0
  -12.0125  -17.2163   23.5977 N   0  0  0  0  0  0  0  0  0  0  0  0
   -8.9922  -16.1511   25.9487 O   0  0  0  0  0  0  0  0  0  0  0  0
   -6.4859  -19.6081   16.0688 O   0  5  0  0  0  0  0  0  0  0  0  0
   -6.4978  -15.2989   13.6124 O   0  0  0  0  0  0  0  0  0  0  0  0
   -5.8711  -17.8196   17.8088 O   0  0  0  0  0  0  0  0  0  0  0  0
   -6.3517  -17.1668   15.3540 O   0  0  0  0  0  0  0  0  0  0  0  0
   -5.0644  -14.9569   15.7385 O   0  5  0  0  0  0  0  0  0  0  0  0
   -4.1906  -18.4246   15.9576 O   0  0  0  0  0  0  0  0  0  0  0  0
   -4.3127  -16.6036   13.9188 O   0  0  0  0  0  0  0  0  0  0  0  0
   -8.1620  -17.1056   19.9122 S   0  0  0  0  0  0  0  0  0  0  0  0
   -5.6271  -18.2635   16.2802 P   0  0  2  0  0  0  0  0  0  0  0  0
   -5.5294  -15.9349   14.7297 P   0  0  2  0  0  0  0  0  0  0  0  0
  2 16  2  0  0  0  0
  2  3  1  0  0  0  0
  2 13  1  0  0  0  0
  3  8  2  0  0  0  0
  3  4  1  0  0  0  0
  4 14  1  0  0  0  0
  5  1  1  1  0  0  0
  5 14  1  0  0  0  0
  5 10  1  0  0  0  0
  6  7  1  0  0  0  0
  7 13  1  0  0  0  0
  7 15  2  0  0  0  0
  8 15  1  0  0  0  0
  9 14  1  0  0  0  0
  9 24  1  0  0  0  0
 10 24  1  0  0  0  0
 10 11  1  6  0  0  0
 11 12  1  0  0  0  0
 12 19  1  0  0  0  0
 17 25  1  0  0  0  0
 19 25  1  0  0  0  0
 20 26  1  0  0  0  0
 21 26  1  0  0  0  0
 22 25  2  0  0  0  0
 23 26  2  0  0  0  0
 25 20  1  6  0  0  0
 26 18  1  6  0  0  0
M  CHG  2  17  -1  21  -1
M  END
>  <CHROM.1>
124.16995727,-144.49813598,-79.27033084,-146.12641531,-160.00617662,-151.97060626
-167.38824357,166.69317161,-7.53231910,-16.78333681,19.65023274,-2.22221228
-0.63175177,-2.00416598

>  <Name>
ligand

>  <RI>
0

>  <Rbt.Current_Directory>
/home/itssahil/PROJECTS/Mol_Feturizer/New_Systems/rnas/3D2X

>  <Rbt.Executable>
rbdock ($Id: //depot/dev/client3/rdock/2013.1/src/exe/rbdock.cxx#4 $)

>  <Rbt.Library>
libRbt.so (2013.1, Build901 2013/11/27)

>  <Rbt.Parameter_File>
/export/apps/rDock/src/rDock_2013.1_src/data/scripts/dock_solv.prm

>  <Rbt.Receptor>
prm/blind_docking_40.prm

>  <SCORE>
-24.1322

>  <SCORE.INTER>
-26.5313

>  <SCORE.INTER.CONST>
1

>  <SCORE.INTER.POLAR>
0

>  <SCORE.INTER.ROT>
8

>  <SCORE.INTER.SOLV>
15.3828

>  <SCORE.INTER.VDW>
-31.7485

>  <SCORE.INTER.norm>
-1.02043

>  <SCORE.INTRA>
2.39915

>  <SCORE.INTRA.DIHEDRAL>
1.83147

>  <SCORE.INTRA.DIHEDRAL.0>
7.88077

>  <SCORE.INTRA.POLAR>
0

>  <SCORE.INTRA.POLAR.0>
0

>  <SCORE.INTRA.REPUL>
0

>  <SCORE.INTRA.REPUL.0>
0

>  <SCORE.INTRA.SOLV>
0.750901

>  <SCORE.INTRA.SOLV.lig_0>
-63.2542

>  <SCORE.INTRA.VDW>
1.10796

>  <SCORE.INTRA.VDW.0>
-3.15072

>  <SCORE.INTRA.norm>
0.0922749

>  <SCORE.RESTR>
0

>  <SCORE.RESTR.CAVITY>
0

>  <SCORE.RESTR.norm>
0

>  <SCORE.SYSTEM>
0

>  <SCORE.SYSTEM.CONST>
0

>  <SCORE.SYSTEM.DIHEDRAL>
0

>  <SCORE.SYSTEM.SOLV>
0

>  <SCORE.SYSTEM.norm>
0

>  <SCORE.heavy>
26

>  <SCORE.norm>
-0.92816

>  <RMSD>
4.263

$$$$
ligand
 OpenBabel11021811473D
libRbt.so/2013.1/901 2013/11/27
 26 27  0  0  0  0  0  0  0  0999 V2000
   -6.9056  -17.5779   23.0459 C   0  0  0  0  0  0  0  0  0  0  0  0
   -7.9969  -15.2835   27.0552 C   0  0  0  0  0  0  0  0  0  0  0  0
   -8.1306  -15.4474   25.6804 C   0  0  0  0  0  0  0  0  0  0  0  0
   -8.8524  -16.6363   25.0415 C   0  0  0  0  0  0  0  0  0  0  0  0
   -8.1910  -16.8297   22.6803 C   0  0  1  0  0  0  0  0  0  0  0  0
   -6.1447  -11.9541   27.1871 C   0  0  0  0  0  0  0  0  0  0  0  0
   -6.8434  -13.2066   26.6559 C   0  0  0  0  0  0  0  0  0  0  0  0
   -7.5983  -14.4651   24.8515 C   0  0  0  0  0  0  0  0  0  0  0  0
  -10.1602  -15.7955   23.1659 C   0  0  0  0  0  0  0  0  0  0  0  0
   -8.5336  -16.5505   21.3627 C   0  0  2  0  0  0  0  0  0  0  0  0
   -7.8183  -16.8773   20.0493 C   0  0  0  0  0  0  0  0  0  0  0  0
   -6.6893  -15.8961   19.7253 C   0  0  0  0  0  0  0  0  0  0  0  0
   -7.3481  -14.1534   27.5571 N   0  0  0  0  0  0  0  0  0  0  0  0
   -9.0637  -16.4163   23.6034 N   0  0  0  0  0  0  0  0  0  0  0  0
   -6.9873  -13.4004   25.3370 N   0  0  0  0  0  0  0  0  0  0  0  0
   -8.4502  -16.1264   27.8296 O   0  0  0  0  0  0  0  0  0  0  0  0
   -3.5526  -15.7275   18.3649 O   0  5  0  0  0  0  0  0  0  0  0  0
   -2.5667  -14.6576   15.8446 O   0  0  0  0  0  0  0  0  0  0  0  0
   -6.0792  -16.1872   18.4640 O   0  0  0  0  0  0  0  0  0  0  0  0
   -4.9425  -15.5193   16.2402 O   0  0  0  0  0  0  0  0  0  0  0  0
   -4.1327  -15.0655   13.8263 O   0  5  0  0  0  0  0  0  0  0  0  0
   -5.2361  -13.7821   18.1144 O   0  0  0  0  0  0  0  0  0  0  0  0
   -4.5768  -13.1193   15.4398 O   0  0  0  0  0  0  0  0  0  0  0  0
  -10.0279  -15.6587   21.4326 S   0  0  0  0  0  0  0  0  0  0  0  0
   -4.9748  -15.2094   17.8178 P   0  0  2  0  0  0  0  0  0  0  0  0
   -4.0573  -14.6274   15.2380 P   0  0  2  0  0  0  0  0  0  0  0  0
  2 16  2  0  0  0  0
  2  3  1  0  0  0  0
  2 13  1  0  0  0  0
  3  8  2  0  0  0  0
  3  4  1  0  0  0  0
  4 14  1  0  0  0  0
  5  1  1  6  0  0  0
  5 14  1  0  0  0  0
  5 10  1  0  0  0  0
  6  7  1  0  0  0  0
  7 13  1  0  0  0  0
  7 15  2  0  0  0  0
  8 15  1  0  0  0  0
  9 14  1  0  0  0  0
  9 24  1  0  0  0  0
 10 24  1  0  0  0  0
 10 11  1  1  0  0  0
 11 12  1  0  0  0  0
 12 19  1  0  0  0  0
 17 25  1  0  0  0  0
 19 25  1  0  0  0  0
 20 26  1  0  0  0  0
 21 26  1  0  0  0  0
 22 25  2  0  0  0  0
 23 26  2  0  0  0  0
 25 20  1  6  0  0  0
 26 18  1  1  0  0  0
M  CHG  2  17  -1  21  -1
M  END
>  <CHROM.1>
169.02576828,-81.10243765,-177.29265854,92.03357913,173.26717377,-74.10794076
89.95884510,54.13842659,-6.60441402,-15.21505566,20.96864947,2.02997454,0.63436663
1.30523977

>  <Name>
ligand

>  <RI>
0

>  <Rbt.Current_Directory>
/home/itssahil/PROJECTS/Mol_Feturizer/New_Systems/rnas/3D2X

>  <Rbt.Executable>
rbdock ($Id: //depot/dev/client3/rdock/2013.1/src/exe/rbdock.cxx#4 $)

>  <Rbt.Library>
libRbt.so (2013.1, Build901 2013/11/27)

>  <Rbt.Parameter_File>
/export/apps/rDock/src/rDock_2013.1_src/data/scripts/dock_solv.prm

>  <Rbt.Receptor>
prm/pocket_docking_6.prm

>  <SCORE>
-17.0637

>  <SCORE.INTER>
-15.5677

>  <SCORE.INTER.CONST>
1

>  <SCORE.INTER.POLAR>
0

>  <SCORE.INTER.ROT>
8

>  <SCORE.INTER.SOLV>
13.8045

>  <SCORE.INTER.VDW>
-23.9133

>  <SCORE.INTER.norm>
-0.598758

>  <SCORE.INTRA>
-1.49597

>  <SCORE.INTRA.DIHEDRAL>
-1.78525

>  <SCORE.INTRA.DIHEDRAL.0>
7.88077

>  <SCORE.INTRA.POLAR>
0

>  <SCORE.INTRA.POLAR.0>
0

>  <SCORE.INTRA.REPUL>
0

>  <SCORE.INTRA.REPUL.0>
0

>  <SCORE.INTRA.SOLV>
-0.92552

>  <SCORE.INTRA.SOLV.lig_0>
-63.2542

>  <SCORE.INTRA.VDW>
-0.140583

>  <SCORE.INTRA.VDW.0>
-3.15072

>  <SCORE.INTRA.norm>
-0.0575372

>  <SCORE.RESTR>
0

>  <SCORE.RESTR.CAVITY>
0

>  <SCORE.RESTR.norm>
0

>  <SCORE.SYSTEM>
0

>  <SCORE.SYSTEM.CONST>
0

>  <SCORE.SYSTEM.DIHEDRAL>
0

>  <SCORE.SYSTEM.SOLV>
0

>  <SCORE.SYSTEM.norm>
0

>  <SCORE.heavy>
26

>  <SCORE.norm>
-0.656296

>  <RMSD>
4.264

$$$$
ligand
 OpenBabel11021811473D
libRbt.so/2013.1/901 2013/11/27
 26 27  0  0  0  0  0  0  0  0999 V2000
   -7.3911  -13.4792   24.6328 C   0  0  0  0  0  0  0  0  0  0  0  0
   -9.7105  -17.0752   24.0666 C   0  0  0  0  0  0  0  0  0  0  0  0
   -8.8261  -16.7956   25.1031 C   0  0  0  0  0  0  0  0  0  0  0  0
   -7.3616  -16.4114   24.8784 C   0  0  0  0  0  0  0  0  0  0  0  0
   -6.8675  -14.2151   25.8697 C   0  0  1  0  0  0  0  0  0  0  0  0
  -12.9071  -17.7423   26.0337 C   0  0  0  0  0  0  0  0  0  0  0  0
  -11.4513  -17.4167   25.6964 C   0  0  0  0  0  0  0  0  0  0  0  0
   -9.3107  -16.8478   26.4061 C   0  0  0  0  0  0  0  0  0  0  0  0
   -6.4103  -16.0778   27.0962 C   0  0  0  0  0  0  0  0  0  0  0  0
   -6.3739  -13.5377   26.9782 C   0  0  2  0  0  0  0  0  0  0  0  0
   -6.2341  -12.0391   27.2578 C   0  0  0  0  0  0  0  0  0  0  0  0
   -5.2145  -11.3548   26.3443 C   0  0  0  0  0  0  0  0  0  0  0  0
  -11.0396  -17.3897   24.3573 N   0  0  0  0  0  0  0  0  0  0  0  0
   -6.8691  -15.5479   25.9614 N   0  0  0  0  0  0  0  0  0  0  0  0
  -10.5694  -17.1457   26.6694 N   0  0  0  0  0  0  0  0  0  0  0  0
   -9.3285  -17.0432   22.8966 O   0  0  0  0  0  0  0  0  0  0  0  0
   -3.6506  -11.2127   23.4795 O   0  5  0  0  0  0  0  0  0  0  0  0
   -5.6270   -7.8702   21.7844 O   0  0  0  0  0  0  0  0  0  0  0  0
   -5.7137  -11.2035   25.0118 O   0  0  0  0  0  0  0  0  0  0  0  0
   -5.8536  -10.2843   22.5996 O   0  0  0  0  0  0  0  0  0  0  0  0
   -4.0880   -9.7026   20.8016 O   0  5  0  0  0  0  0  0  0  0  0  0
   -4.5682   -8.9811   24.4068 O   0  0  0  0  0  0  0  0  0  0  0  0
   -6.5902   -9.6673   20.2307 O   0  0  0  0  0  0  0  0  0  0  0  0
   -5.8570  -14.7645   28.1011 S   0  0  0  0  0  0  0  0  0  0  0  0
   -4.9255  -10.3305   23.9119 P   0  0  2  0  0  0  0  0  0  0  0  0
   -5.4401   -9.4007   21.3222 P   0  0  2  0  0  0  0  0  0  0  0  0
  2 16  2  0  0  0  0
  2  3  1  0  0  0  0
  2 13  1  0  0  0  0
  3  8  2  0  0  0  0
  3  4  1  0  0  0  0
  4 14  1  0  0  0  0
  5  1  1  1  0  0  0
  5 14  1  0  0  0  0
  5 10  1  0  0  0  0
  6  7  1  0  0  0  0
  7 13  1  0  0  0  0
  7 15  2  0  0  0  0
  8 15  1  0  0  0  0
  9 14  1  0  0  0  0
  9 24  1  0  0  0  0
 10 24  1  0  0  0  0
 10 11  1  6  0  0  0
 11 12  1  0  0  0  0
 12 19  1  0  0  0  0
 17 25  1  0  0  0  0
 19 25  1  0  0  0  0
 20 26  1  0  0  0  0
 21 26  1  0  0  0  0
 22 25  2  0  0  0  0
 23 26  2  0  0  0  0
 25 20  1  6  0  0  0
 26 18  1  1  0  0  0
M  CHG  2  17  -1  21  -1
M  END
>  <CHROM.1>
151.08582328,-66.56177871,73.50542367,-95.00896308,171.16510072,-72.66940854
73.90656877,-70.44624860,-6.92797953,-13.16824092,24.55392835,2.32162997
0.75256405,2.14794118

>  <Name>
ligand

>  <RI>
0

>  <Rbt.Current_Directory>
/home/itssahil/PROJECTS/Mol_Feturizer/New_Systems/rnas/3D2X

>  <Rbt.Executable>
rbdock ($Id: //depot/dev/client3/rdock/2013.1/src/exe/rbdock.cxx#4 $)

>  <Rbt.Library>
libRbt.so (2013.1, Build901 2013/11/27)

>  <Rbt.Parameter_File>
/export/apps/rDock/src/rDock_2013.1_src/data/scripts/dock_solv.prm

>  <Rbt.Receptor>
prm/pocket_docking_6.prm

>  <SCORE>
-21.4607

>  <SCORE.INTER>
-20.0298

>  <SCORE.INTER.CONST>
1

>  <SCORE.INTER.POLAR>
0

>  <SCORE.INTER.ROT>
8

>  <SCORE.INTER.SOLV>
6.55211

>  <SCORE.INTER.VDW>
-24.4706

>  <SCORE.INTER.norm>
-0.770379

>  <SCORE.INTRA>
-1.43083

>  <SCORE.INTRA.DIHEDRAL>
-1.87541

>  <SCORE.INTRA.DIHEDRAL.0>
7.88077

>  <SCORE.INTRA.POLAR>
0

>  <SCORE.INTRA.POLAR.0>
0

>  <SCORE.INTRA.REPUL>
0

>  <SCORE.INTRA.REPUL.0>
0

>  <SCORE.INTRA.SOLV>
-0.804356

>  <SCORE.INTRA.SOLV.lig_0>
-63.2542

>  <SCORE.INTRA.VDW>
-0.0909457

>  <SCORE.INTRA.VDW.0>
-3.15072

>  <SCORE.INTRA.norm>
-0.0550319

>  <SCORE.RESTR>
0

>  <SCORE.RESTR.CAVITY>
0

>  <SCORE.RESTR.norm>
0

>  <SCORE.SYSTEM>
0

>  <SCORE.SYSTEM.CONST>
0

>  <SCORE.SYSTEM.DIHEDRAL>
0

>  <SCORE.SYSTEM.SOLV>
0

>  <SCORE.SYSTEM.norm>
0

>  <SCORE.heavy>
26

>  <SCORE.norm>
-0.825411

>  <RMSD>
4.309

$$$$
ligand
 OpenBabel11021811473D
libRbt.so/2013.1/901 2013/11/27
 26 27  0  0  0  0  0  0  0  0999 V2000
   -7.1074  -17.3768   23.1516 C   0  0  0  0  0  0  0  0  0  0  0  0
   -8.3800  -16.0394   27.0254 C   0  0  0  0  0  0  0  0  0  0  0  0
   -8.5579  -15.9289   25.6503 C   0  0  0  0  0  0  0  0  0  0  0  0
   -9.4610  -16.8629   24.8414 C   0  0  0  0  0  0  0  0  0  0  0  0
   -8.3913  -16.7241   22.6308 C   0  0  1  0  0  0  0  0  0  0  0  0
   -6.0431  -13.0969   27.6686 C   0  0  0  0  0  0  0  0  0  0  0  0
   -6.9314  -14.1159   26.9533 C   0  0  0  0  0  0  0  0  0  0  0  0
   -7.8956  -14.9005   24.9875 C   0  0  0  0  0  0  0  0  0  0  0  0
  -10.5220  -15.9518   22.8466 C   0  0  0  0  0  0  0  0  0  0  0  0
   -8.5362  -16.3346   21.3046 C   0  0  2  0  0  0  0  0  0  0  0  0
   -7.5754  -16.4395   20.1175 C   0  0  0  0  0  0  0  0  0  0  0  0
   -7.0839  -15.0759   19.6262 C   0  0  0  0  0  0  0  0  0  0  0  0
   -7.5600  -15.1269   27.6924 N   0  0  0  0  0  0  0  0  0  0  0  0
   -9.4502  -16.5055   23.4155 N   0  0  0  0  0  0  0  0  0  0  0  0
   -7.1230  -14.0431   25.6282 N   0  0  0  0  0  0  0  0  0  0  0  0
   -8.9440  -16.9337   27.6562 O   0  0  0  0  0  0  0  0  0  0  0  0
   -6.9477  -11.9789   19.6184 O   0  5  0  0  0  0  0  0  0  0  0  0
   -7.5761  -10.3658   22.0779 O   0  0  0  0  0  0  0  0  0  0  0  0
   -6.5687  -14.2801   20.6980 O   0  0  0  0  0  0  0  0  0  0  0  0
   -5.7314  -12.1236   21.8520 O   0  0  0  0  0  0  0  0  0  0  0  0
   -8.0499  -12.8139   22.7668 O   0  5  0  0  0  0  0  0  0  0  0  0
   -4.5695  -12.9861   19.7254 O   0  0  0  0  0  0  0  0  0  0  0  0
   -6.4762  -11.3525   24.1726 O   0  0  0  0  0  0  0  0  0  0  0  0
  -10.1152  -15.6093   21.1859 S   0  0  0  0  0  0  0  0  0  0  0  0
   -5.8673  -12.8561   20.4270 P   0  0  2  0  0  0  0  0  0  0  0  0
   -7.0323  -11.7404   22.7147 P   0  0  2  0  0  0  0  0  0  0  0  0
  2 16  2  0  0  0  0
  2  3  1  0  0  0  0
  2 13  1  0  0  0  0
  3  8  2  0  0  0  0
  3  4  1  0  0  0  0
  4 14  1  0  0  0  0
  5  1  1  6  0  0  0
  5 14  1  0  0  0  0
  5 10  1  0  0  0  0
  6  7  1  0  0  0  0
  7 13  1  0  0  0  0
  7 15  2  0  0  0  0
  8 15  1  0  0  0  0
  9 14  1  0  0  0  0
  9 24  1  0  0  0  0
 10 24  1  0  0  0  0
 10 11  1  1  0  0  0
 11 12  1  0  0  0  0
 12 19  1  0  0  0  0
 17 25  1  0  0  0  0
 19 25  1  0  0  0  0
 20 26  1  0  0  0  0
 21 26  1  0  0  0  0
 22 25  2  0  0  0  0
 23 26  2  0  0  0  0
 25 20  1  1  0  0  0
 26 18  1  6  0  0  0
M  CHG  2  17  -1  21  -1
M  END
>  <CHROM.1>
-179.96459887,-112.59267811,51.08432424,71.47969563,174.38791805,49.83838587
56.03232708,-81.18294916,-7.58339155,-14.28969579,23.02423129,2.11357716
1.03273898,1.56689885

>  <Name>
ligand

>  <RI>
0

>  <Rbt.Current_Directory>
/home/itssahil/PROJECTS/Mol_Feturizer/New_Systems/rnas/3D2X

>  <Rbt.Executable>
rbdock ($Id: //depot/dev/client3/rdock/2013.1/src/exe/rbdock.cxx#4 $)

>  <Rbt.Library>
libRbt.so (2013.1, Build901 2013/11/27)

>  <Rbt.Parameter_File>
/export/apps/rDock/src/rDock_2013.1_src/data/scripts/dock_solv.prm

>  <Rbt.Receptor>
prm/pocket_docking_6.prm

>  <SCORE>
-17.9792

>  <SCORE.INTER>
-15.6203

>  <SCORE.INTER.CONST>
1

>  <SCORE.INTER.POLAR>
0

>  <SCORE.INTER.ROT>
8

>  <SCORE.INTER.SOLV>
11.3514

>  <SCORE.INTER.VDW>
-23.1306

>  <SCORE.INTER.norm>
-0.600779

>  <SCORE.INTRA>
-2.35894

>  <SCORE.INTRA.DIHEDRAL>
-1.65281

>  <SCORE.INTRA.DIHEDRAL.0>
7.88077

>  <SCORE.INTRA.POLAR>
0

>  <SCORE.INTRA.POLAR.0>
0

>  <SCORE.INTRA.REPUL>
0

>  <SCORE.INTRA.REPUL.0>
0

>  <SCORE.INTRA.SOLV>
0.774552

>  <SCORE.INTRA.SOLV.lig_0>
-63.2542

>  <SCORE.INTRA.VDW>
-1.91981

>  <SCORE.INTRA.VDW.0>
-3.15072

>  <SCORE.INTRA.norm>
-0.0907284

>  <SCORE.RESTR>
0

>  <SCORE.RESTR.CAVITY>
0

>  <SCORE.RESTR.norm>
0

>  <SCORE.SYSTEM>
0

>  <SCORE.SYSTEM.CONST>
0

>  <SCORE.SYSTEM.DIHEDRAL>
0

>  <SCORE.SYSTEM.SOLV>
0

>  <SCORE.SYSTEM.norm>
0

>  <SCORE.heavy>
26

>  <SCORE.norm>
-0.691508

>  <RMSD>
4.394

$$$$
ligand
 OpenBabel11021811473D
libRbt.so/2013.1/901 2013/11/27
 26 27  0  0  0  0  0  0  0  0999 V2000
   -6.9639  -17.6290   23.1810 C   0  0  0  0  0  0  0  0  0  0  0  0
   -8.4098  -15.9398   26.8779 C   0  0  0  0  0  0  0  0  0  0  0  0
   -8.4948  -15.8788   25.4909 C   0  0  0  0  0  0  0  0  0  0  0  0
   -9.3743  -16.8164   24.6602 C   0  0  0  0  0  0  0  0  0  0  0  0
   -8.1425  -16.8969   22.5327 C   0  0  1  0  0  0  0  0  0  0  0  0
   -6.0233  -13.0467   27.5616 C   0  0  0  0  0  0  0  0  0  0  0  0
   -6.8968  -14.0658   26.8285 C   0  0  0  0  0  0  0  0  0  0  0  0
   -7.7576  -14.8984   24.8346 C   0  0  0  0  0  0  0  0  0  0  0  0
  -10.2036  -15.9300   22.5480 C   0  0  0  0  0  0  0  0  0  0  0  0
   -8.1570  -16.5718   21.1816 C   0  0  2  0  0  0  0  0  0  0  0  0
   -7.1282  -16.8273   20.0772 C   0  0  0  0  0  0  0  0  0  0  0  0
   -6.0097  -15.7829   20.0512 C   0  0  0  0  0  0  0  0  0  0  0  0
   -7.6047  -15.0269   27.5623 N   0  0  0  0  0  0  0  0  0  0  0  0
   -9.2299  -16.5424   23.2232 N   0  0  0  0  0  0  0  0  0  0  0  0
   -7.0001  -14.0400   25.4919 N   0  0  0  0  0  0  0  0  0  0  0  0
   -9.0424  -16.7907   27.5036 O   0  0  0  0  0  0  0  0  0  0  0  0
   -3.3663  -14.4241   20.2511 O   0  5  0  0  0  0  0  0  0  0  0  0
   -2.5021  -16.1114   16.0526 O   0  0  0  0  0  0  0  0  0  0  0  0
   -4.9190  -16.1943   19.2214 O   0  0  0  0  0  0  0  0  0  0  0  0
   -2.4085  -16.1197   18.6089 O   0  0  0  0  0  0  0  0  0  0  0  0
   -1.1102  -17.9162   17.2763 O   0  5  0  0  0  0  0  0  0  0  0  0
   -4.0034  -14.2938   17.7493 O   0  0  0  0  0  0  0  0  0  0  0  0
   -3.6745  -17.9671   17.3765 O   0  0  0  0  0  0  0  0  0  0  0  0
   -9.6506  -15.7189   20.9078 S   0  0  0  0  0  0  0  0  0  0  0  0
   -3.6991  -15.1998   18.8807 P   0  0  2  0  0  0  0  0  0  0  0  0
   -2.3325  -17.0831   17.3245 P   0  0  2  0  0  0  0  0  0  0  0  0
  2 16  2  0  0  0  0
  2  3  1  0  0  0  0
  2 13  1  0  0  0  0
  3  8  2  0  0  0  0
  3  4  1  0  0  0  0
  4 14  1  0  0  0  0
  5  1  1  6  0  0  0
  5 14  1  0  0  0  0
  5 10  1  0  0  0  0
  6  7  1  0  0  0  0
  7 13  1  0  0  0  0
  7 15  2  0  0  0  0
  8 15  1  0  0  0  0
  9 14  1  0  0  0  0
  9 24  1  0  0  0  0
 10 24  1  0  0  0  0
 10 11  1  1  0  0  0
 11 12  1  0  0  0  0
 12 19  1  0  0  0  0
 17 25  1  0  0  0  0
 19 25  1  0  0  0  0
 20 26  1  0  0  0  0
 21 26  1  0  0  0  0
 22 25  2  0  0  0  0
 23 26  2  0  0  0  0
 25 20  1  6  0  0  0
 26 18  1  6  0  0  0
M  CHG  2  17  -1  21  -1
M  END
>  <CHROM.1>
-178.30890541,-82.83805191,167.23184812,73.97402665,172.39560450,179.46025895
41.09353799,58.40191989,-6.03183852,-15.93717110,21.51513017,2.18465114,0.26082273
1.27708587

>  <Name>
ligand

>  <RI>
0

>  <Rbt.Current_Directory>
/home/itssahil/PROJECTS/Mol_Feturizer/New_Systems/rnas/3D2X

>  <Rbt.Executable>
rbdock ($Id: //depot/dev/client3/rdock/2013.1/src/exe/rbdock.cxx#4 $)

>  <Rbt.Library>
libRbt.so (2013.1, Build901 2013/11/27)

>  <Rbt.Parameter_File>
/export/apps/rDock/src/rDock_2013.1_src/data/scripts/dock_solv.prm

>  <Rbt.Receptor>
prm/pocket_docking_8.prm

>  <SCORE>
-18.1209

>  <SCORE.INTER>
-16.5597

>  <SCORE.INTER.CONST>
1

>  <SCORE.INTER.POLAR>
0

>  <SCORE.INTER.ROT>
8

>  <SCORE.INTER.SOLV>
15.5712

>  <SCORE.INTER.VDW>
-25.1635

>  <SCORE.INTER.norm>
-0.636911

>  <SCORE.INTRA>
-1.56125

>  <SCORE.INTRA.DIHEDRAL>
-1.43884

>  <SCORE.INTRA.DIHEDRAL.0>
7.88077

>  <SCORE.INTRA.POLAR>
0

>  <SCORE.INTRA.POLAR.0>
0

>  <SCORE.INTRA.REPUL>
0

>  <SCORE.INTRA.REPUL.0>
0

>  <SCORE.INTRA.SOLV>
-1.64255

>  <SCORE.INTRA.SOLV.lig_0>
-63.2542

>  <SCORE.INTRA.VDW>
-0.0205479

>  <SCORE.INTRA.VDW.0>
-3.15072

>  <SCORE.INTRA.norm>
-0.0600479

>  <SCORE.RESTR>
0

>  <SCORE.RESTR.CAVITY>
0

>  <SCORE.RESTR.norm>
0

>  <SCORE.SYSTEM>
0

>  <SCORE.SYSTEM.CONST>
0

>  <SCORE.SYSTEM.DIHEDRAL>
0

>  <SCORE.SYSTEM.SOLV>
0

>  <SCORE.SYSTEM.norm>
0

>  <SCORE.heavy>
26

>  <SCORE.norm>
-0.696959

>  <RMSD>
4.433

$$$$
ligand
 OpenBabel11021811473D
libRbt.so/2013.1/901 2013/11/27
 26 27  0  0  0  0  0  0  0  0999 V2000
   -5.2611  -14.3791   24.4672 C   0  0  0  0  0  0  0  0  0  0  0  0
   -8.9832  -16.8273   27.4583 C   0  0  0  0  0  0  0  0  0  0  0  0
   -8.2600  -16.3177   26.3850 C   0  0  0  0  0  0  0  0  0  0  0  0
   -6.8115  -15.8367   26.4996 C   0  0  0  0  0  0  0  0  0  0  0  0
   -6.0380  -13.6860   25.5905 C   0  0  1  0  0  0  0  0  0  0  0  0
  -12.2746  -17.6898   25.7391 C   0  0  0  0  0  0  0  0  0  0  0  0
  -10.8483  -17.1919   25.9779 C   0  0  0  0  0  0  0  0  0  0  0  0
   -8.8844  -16.2672   25.1429 C   0  0  0  0  0  0  0  0  0  0  0  0
   -7.3960  -13.6571   27.4175 C   0  0  0  0  0  0  0  0  0  0  0  0
   -6.0713  -12.3028   25.7209 C   0  0  2  0  0  0  0  0  0  0  0  0
   -5.4272  -11.1998   24.8771 C   0  0  0  0  0  0  0  0  0  0  0  0
   -4.2130  -10.5619   25.5562 C   0  0  0  0  0  0  0  0  0  0  0  0
  -10.2922  -17.2720   27.2615 N   0  0  0  0  0  0  0  0  0  0  0  0
   -6.7400  -14.3684   26.4995 N   0  0  0  0  0  0  0  0  0  0  0  0
  -10.1223  -16.6909   24.9681 N   0  0  0  0  0  0  0  0  0  0  0  0
   -8.4744  -16.8912   28.5776 O   0  0  0  0  0  0  0  0  0  0  0  0
   -2.9752   -7.3377   24.1471 O   0  5  0  0  0  0  0  0  0  0  0  0
   -5.8497   -7.5677   21.3649 O   0  0  0  0  0  0  0  0  0  0  0  0
   -3.4125   -9.8242   24.6275 O   0  0  0  0  0  0  0  0  0  0  0  0
   -3.8245   -8.8395   22.2729 O   0  0  0  0  0  0  0  0  0  0  0  0
   -3.5027   -6.4855   21.2512 O   0  5  0  0  0  0  0  0  0  0  0  0
   -5.3968   -8.2391   24.2182 O   0  0  0  0  0  0  0  0  0  0  0  0
   -4.0811   -8.4885   19.7539 O   0  0  0  0  0  0  0  0  0  0  0  0
   -7.0210  -11.9763   27.1438 S   0  0  0  0  0  0  0  0  0  0  0  0
   -3.9966   -8.5441   23.8442 P   0  0  2  0  0  0  0  0  0  0  0  0
   -4.2625   -7.7532   21.1722 P   0  0  2  0  0  0  0  0  0  0  0  0
  2 16  2  0  0  0  0
  2  3  1  0  0  0  0
  2 13  1  0  0  0  0
  3  8  2  0  0  0  0
  3  4  1  0  0  0  0
  4 14  1  0  0  0  0
  5  1  1  6  0  0  0
  5 14  1  0  0  0  0
  5 10  1  0  0  0  0
  6  7  1  0  0  0  0
  7 13  1  0  0  0  0
  7 15  2  0  0  0  0
  8 15  1  0  0  0  0
  9 14  1  0  0  0  0
  9 24  1  0  0  0  0
 10 24  1  0  0  0  0
 10 11  1  1  0  0  0
 11 12  1  0  0  0  0
 12 19  1  0  0  0  0
 17 25  1  0  0  0  0
 19 25  1  0  0  0  0
 20 26  1  0  0  0  0
 21 26  1  0  0  0  0
 22 25  2  0  0  0  0
 23 26  2  0  0  0  0
 25 20  1  6  0  0  0
 26 18  1  1  0  0  0
M  CHG  2  17  -1  21  -1
M  END
>  <CHROM.1>
-104.36966045,-105.17803480,163.50473849,-121.71166389,62.46841728,-66.10714624
125.49553350,-62.60023151,-6.26841932,-11.96938780,24.71598442,2.33701445
0.80422530,2.06610884

>  <Name>
ligand

>  <RI>
0

>  <Rbt.Current_Directory>
/home/itssahil/PROJECTS/Mol_Feturizer/New_Systems/rnas/3D2X

>  <Rbt.Executable>
rbdock ($Id: //depot/dev/client3/rdock/2013.1/src/exe/rbdock.cxx#4 $)

>  <Rbt.Library>
libRbt.so (2013.1, Build901 2013/11/27)

>  <Rbt.Parameter_File>
/export/apps/rDock/src/rDock_2013.1_src/data/scripts/dock_solv.prm

>  <Rbt.Receptor>
prm/pocket_docking_8.prm

>  <SCORE>
-17.752

>  <SCORE.INTER>
-17.8956

>  <SCORE.INTER.CONST>
1

>  <SCORE.INTER.POLAR>
0

>  <SCORE.INTER.ROT>
8

>  <SCORE.INTER.SOLV>
9.16769

>  <SCORE.INTER.VDW>
-23.9196

>  <SCORE.INTER.norm>
-0.688293

>  <SCORE.INTRA>
0.143594

>  <SCORE.INTRA.DIHEDRAL>
0.617664

>  <SCORE.INTRA.DIHEDRAL.0>
7.88077

>  <SCORE.INTRA.POLAR>
0

>  <SCORE.INTRA.POLAR.0>
0

>  <SCORE.INTRA.REPUL>
0

>  <SCORE.INTRA.REPUL.0>
0

>  <SCORE.INTRA.SOLV>
-0.435368

>  <SCORE.INTRA.SOLV.lig_0>
-63.2542

>  <SCORE.INTRA.VDW>
0.0524457

>  <SCORE.INTRA.VDW.0>
-3.15072

>  <SCORE.INTRA.norm>
0.00552284

>  <SCORE.RESTR>
0

>  <SCORE.RESTR.CAVITY>
0

>  <SCORE.RESTR.norm>
0

>  <SCORE.SYSTEM>
0

>  <SCORE.SYSTEM.CONST>
0

>  <SCORE.SYSTEM.DIHEDRAL>
0

>  <SCORE.SYSTEM.SOLV>
0

>  <SCORE.SYSTEM.norm>
0

>  <SCORE.heavy>
26

>  <SCORE.norm>
-0.68277

>  <RMSD>
4.525

$$$$
ligand
 OpenBabel11021811473D
libRbt.so/2013.1/901 2013/11/27
 26 27  0  0  0  0  0  0  0  0999 V2000
   -6.6889  -14.8843   27.6188 C   0  0  0  0  0  0  0  0  0  0  0  0
   -9.7931  -16.9106   26.5881 C   0  0  0  0  0  0  0  0  0  0  0  0
   -9.1354  -16.7517   25.3729 C   0  0  0  0  0  0  0  0  0  0  0  0
   -7.6631  -16.3488   25.2597 C   0  0  0  0  0  0  0  0  0  0  0  0
   -7.0796  -14.2002   26.3054 C   0  0  1  0  0  0  0  0  0  0  0  0
  -13.2434  -17.9931   25.3814 C   0  0  0  0  0  0  0  0  0  0  0  0
  -11.7828  -17.5396   25.3845 C   0  0  0  0  0  0  0  0  0  0  0  0
   -9.8529  -16.9951   24.2061 C   0  0  0  0  0  0  0  0  0  0  0  0
   -7.8033  -14.1862   24.1469 C   0  0  0  0  0  0  0  0  0  0  0  0
   -6.9894  -12.8240   26.1343 C   0  0  2  0  0  0  0  0  0  0  0  0
   -6.5211  -11.7229   27.0891 C   0  0  0  0  0  0  0  0  0  0  0  0
   -5.0767  -11.2863   26.8329 C   0  0  0  0  0  0  0  0  0  0  0  0
  -11.1313  -17.3092   26.6034 N   0  0  0  0  0  0  0  0  0  0  0  0
   -7.5144  -14.8863   25.2448 N   0  0  0  0  0  0  0  0  0  0  0  0
  -11.1177  -17.3721   24.2323 N   0  0  0  0  0  0  0  0  0  0  0  0
   -9.2010  -16.7056   27.6479 O   0  0  0  0  0  0  0  0  0  0  0  0
   -2.7551  -11.3128   24.4549 O   0  5  0  0  0  0  0  0  0  0  0  0
   -2.1785   -7.1634   24.2507 O   0  0  0  0  0  0  0  0  0  0  0  0
   -4.9453  -10.5912   25.5891 O   0  0  0  0  0  0  0  0  0  0  0  0
   -3.8126   -9.0838   23.8204 O   0  0  0  0  0  0  0  0  0  0  0  0
   -1.5228   -9.0601   22.6183 O   0  5  0  0  0  0  0  0  0  0  0  0
   -2.7568   -9.3611   26.1496 O   0  0  0  0  0  0  0  0  0  0  0  0
   -3.3480   -7.3724   21.9793 O   0  0  0  0  0  0  0  0  0  0  0  0
   -7.5746  -12.4996   24.5263 S   0  0  0  0  0  0  0  0  0  0  0  0
   -3.5203  -10.0417   25.0786 P   0  0  2  0  0  0  0  0  0  0  0  0
   -2.6343   -8.2313   23.1360 P   0  0  2  0  0  0  0  0  0  0  0  0
  2 16  2  0  0  0  0
  2  3  1  0  0  0  0
  2 13  1  0  0  0  0
  3  8  2  0  0  0  0
  3  4  1  0  0  0  0
  4 14  1  0  0  0  0
  5  1  1  6  0  0  0
  5 14  1  0  0  0  0
  5 10  1  0  0  0  0
  6  7  1  0  0  0  0
  7 13  1  0  0  0  0
  7 15  2  0  0  0  0
  8 15  1  0  0  0  0
  9 14  1  0  0  0  0
  9 24  1  0  0  0  0
 10 24  1  0  0  0  0
 10 11  1  1  0  0  0
 11 12  1  0  0  0  0
 12 19  1  0  0  0  0
 17 25  1  0  0  0  0
 19 25  1  0  0  0  0
 20 26  1  0  0  0  0
 21 26  1  0  0  0  0
 22 25  2  0  0  0  0
 23 26  2  0  0  0  0
 25 20  1  6  0  0  0
 26 18  1  1  0  0  0
M  CHG  2  17  -1  21  -1
M  END
>  <CHROM.1>
-87.99120285,99.02475191,68.82217377,104.46225557,-179.28926334,-74.20946339
79.71587911,-66.10706881,-6.32581908,-12.63965477,25.07201729,-2.69945197
-0.73874707,-1.17521172

>  <Name>
ligand

>  <RI>
0

>  <Rbt.Current_Directory>
/home/itssahil/PROJECTS/Mol_Feturizer/New_Systems/rnas/3D2X

>  <Rbt.Executable>
rbdock ($Id: //depot/dev/client3/rdock/2013.1/src/exe/rbdock.cxx#4 $)

>  <Rbt.Library>
libRbt.so (2013.1, Build901 2013/11/27)

>  <Rbt.Parameter_File>
/export/apps/rDock/src/rDock_2013.1_src/data/scripts/dock_solv.prm

>  <Rbt.Receptor>
prm/pocket_docking_8.prm

>  <SCORE>
-22.0227

>  <SCORE.INTER>
-19.6474

>  <SCORE.INTER.CONST>
1

>  <SCORE.INTER.POLAR>
0

>  <SCORE.INTER.ROT>
8

>  <SCORE.INTER.SOLV>
11.9206

>  <SCORE.INTER.VDW>
-26.0051

>  <SCORE.INTER.norm>
-0.755668

>  <SCORE.INTRA>
-2.37535

>  <SCORE.INTRA.DIHEDRAL>
-1.88504

>  <SCORE.INTRA.DIHEDRAL.0>
7.88077

>  <SCORE.INTRA.POLAR>
0

>  <SCORE.INTRA.POLAR.0>
0

>  <SCORE.INTRA.REPUL>
0

>  <SCORE.INTRA.REPUL.0>
0

>  <SCORE.INTRA.SOLV>
-0.954386

>  <SCORE.INTRA.SOLV.lig_0>
-63.2542

>  <SCORE.INTRA.VDW>
-0.955634

>  <SCORE.INTRA.VDW.0>
-3.15072

>  <SCORE.INTRA.norm>
-0.0913595

>  <SCORE.RESTR>
0

>  <SCORE.RESTR.CAVITY>
0

>  <SCORE.RESTR.norm>
0

>  <SCORE.SYSTEM>
0

>  <SCORE.SYSTEM.CONST>
0

>  <SCORE.SYSTEM.DIHEDRAL>
0

>  <SCORE.SYSTEM.SOLV>
0

>  <SCORE.SYSTEM.norm>
0

>  <SCORE.heavy>
26

>  <SCORE.norm>
-0.847028

>  <RMSD>
4.557

$$$$
ligand
 OpenBabel11021811473D
libRbt.so/2013.1/901 2013/11/27
 26 27  0  0  0  0  0  0  0  0999 V2000
   -5.8633  -15.3176   20.6126 C   0  0  0  0  0  0  0  0  0  0  0  0
   -8.0284  -15.0729   24.5682 C   0  0  0  0  0  0  0  0  0  0  0  0
   -8.7804  -15.3045   23.4212 C   0  0  0  0  0  0  0  0  0  0  0  0
   -8.3833  -14.7873   22.0365 C   0  0  0  0  0  0  0  0  0  0  0  0
   -7.1350  -16.1470   20.4107 C   0  0  1  0  0  0  0  0  0  0  0  0
  -10.0892  -16.9719   27.1527 C   0  0  0  0  0  0  0  0  0  0  0  0
   -9.6238  -16.3656   25.8279 C   0  0  0  0  0  0  0  0  0  0  0  0
   -9.9391  -16.0648   23.5433 C   0  0  0  0  0  0  0  0  0  0  0  0
   -9.3040  -16.6949   20.8331 C   0  0  0  0  0  0  0  0  0  0  0  0
   -7.1815  -17.2267   19.5369 C   0  0  2  0  0  0  0  0  0  0  0  0
   -6.1037  -17.8355   18.6363 C   0  0  0  0  0  0  0  0  0  0  0  0
   -5.4045  -16.7961   17.7571 C   0  0  0  0  0  0  0  0  0  0  0  0
   -8.4470  -15.6060   25.7890 N   0  0  0  0  0  0  0  0  0  0  0  0
   -8.2668  -15.8912   21.0727 N   0  0  0  0  0  0  0  0  0  0  0  0
  -10.3251  -16.5643   24.7026 N   0  0  0  0  0  0  0  0  0  0  0  0
   -6.9959  -14.4048   24.5112 O   0  0  0  0  0  0  0  0  0  0  0  0
   -4.4867  -19.6148   16.9385 O   0  5  0  0  0  0  0  0  0  0  0  0
   -5.3676  -15.6114   14.8234 O   0  0  0  0  0  0  0  0  0  0  0  0
   -4.0409  -17.1475   17.5026 O   0  0  0  0  0  0  0  0  0  0  0  0
   -4.2877  -17.9194   15.0477 O   0  0  0  0  0  0  0  0  0  0  0  0
   -2.7893  -15.8220   14.8378 O   0  5  0  0  0  0  0  0  0  0  0  0
   -2.1923  -18.5543   16.3978 O   0  0  0  0  0  0  0  0  0  0  0  0
   -4.1477  -16.6600   12.8276 O   0  0  0  0  0  0  0  0  0  0  0  0
   -8.8156  -17.8258   19.5988 S   0  0  0  0  0  0  0  0  0  0  0  0
   -3.6529  -18.3204   16.4697 P   0  0  2  0  0  0  0  0  0  0  0  0
   -4.0590  -16.4574   14.4202 P   0  0  2  0  0  0  0  0  0  0  0  0
  2 16  2  0  0  0  0
  2  3  1  0  0  0  0
  2 13  1  0  0  0  0
  3  8  2  0  0  0  0
  3  4  1  0  0  0  0
  4 14  1  0  0  0  0
  5  1  1  1  0  0  0
  5 14  1  0  0  0  0
  5 10  1  0  0  0  0
  6  7  1  0  0  0  0
  7 13  1  0  0  0  0
  7 15  2  0  0  0  0
  8 15  1  0  0  0  0
  9 14  1  0  0  0  0
  9 24  1  0  0  0  0
 10 24  1  0  0  0  0
 10 11  1  6  0  0  0
 11 12  1  0  0  0  0
 12 19  1  0  0  0  0
 17 25  1  0  0  0  0
 19 25  1  0  0  0  0
 20 26  1  0  0  0  0
 21 26  1  0  0  0  0
 22 25  2  0  0  0  0
 23 26  2  0  0  0  0
 25 20  1  6  0  0  0
 26 18  1  1  0  0  0
M  CHG  2  17  -1  21  -1
M  END
>  <CHROM.1>
123.04027563,-51.08181243,148.42954291,-121.41479858,74.63291509,162.00054813
-53.20127062,-96.53122981,-6.39748872,-16.72329038,19.39501875,-2.17633962
-0.54781162,-2.05557971

>  <Name>
ligand

>  <RI>
0

>  <Rbt.Current_Directory>
/home/itssahil/PROJECTS/Mol_Feturizer/New_Systems/rnas/3D2X

>  <Rbt.Executable>
rbdock ($Id: //depot/dev/client3/rdock/2013.1/src/exe/rbdock.cxx#4 $)

>  <Rbt.Library>
libRbt.so (2013.1, Build901 2013/11/27)

>  <Rbt.Parameter_File>
/export/apps/rDock/src/rDock_2013.1_src/data/scripts/dock_solv.prm

>  <Rbt.Receptor>
prm/blind_docking_40.prm

>  <SCORE>
-16.1886

>  <SCORE.INTER>
-18.2426

>  <SCORE.INTER.CONST>
1

>  <SCORE.INTER.POLAR>
0

>  <SCORE.INTER.ROT>
8

>  <SCORE.INTER.SOLV>
18.9155

>  <SCORE.INTER.VDW>
-27.4002

>  <SCORE.INTER.norm>
-0.701637

>  <SCORE.INTRA>
1.26609

>  <SCORE.INTRA.DIHEDRAL>
2.41691

>  <SCORE.INTRA.DIHEDRAL.0>
7.88077

>  <SCORE.INTRA.POLAR>
0

>  <SCORE.INTRA.POLAR.0>
0

>  <SCORE.INTRA.REPUL>
0

>  <SCORE.INTRA.REPUL.0>
0

>  <SCORE.INTRA.SOLV>
-0.806879

>  <SCORE.INTRA.SOLV.lig_0>
-63.2542

>  <SCORE.INTRA.VDW>
0.461077

>  <SCORE.INTRA.VDW.0>
-3.15072

>  <SCORE.INTRA.norm>
0.0486959

>  <SCORE.RESTR>
0.787902

>  <SCORE.RESTR.CAVITY>
0.787902

>  <SCORE.RESTR.norm>
0.0303039

>  <SCORE.SYSTEM>
0

>  <SCORE.SYSTEM.CONST>
0

>  <SCORE.SYSTEM.DIHEDRAL>
0

>  <SCORE.SYSTEM.SOLV>
0

>  <SCORE.SYSTEM.norm>
0

>  <SCORE.heavy>
26

>  <SCORE.norm>
-0.622637

>  <RMSD>
4.603

$$$$
ligand
 OpenBabel11021811473D
libRbt.so/2013.1/901 2013/11/27
 26 27  0  0  0  0  0  0  0  0999 V2000
   -6.0962  -14.7447   22.0132 C   0  0  0  0  0  0  0  0  0  0  0  0
   -9.5178  -16.1836   24.6818 C   0  0  0  0  0  0  0  0  0  0  0  0
   -8.7478  -15.1112   24.2436 C   0  0  0  0  0  0  0  0  0  0  0  0
   -8.9015  -14.4754   22.8599 C   0  0  0  0  0  0  0  0  0  0  0  0
   -7.2431  -15.5496   21.3949 C   0  0  1  0  0  0  0  0  0  0  0  0
   -8.1651  -16.6186   28.2192 C   0  0  0  0  0  0  0  0  0  0  0  0
   -8.3694  -16.0931   26.7975 C   0  0  0  0  0  0  0  0  0  0  0  0
   -7.8082  -14.5809   25.1219 C   0  0  0  0  0  0  0  0  0  0  0  0
   -9.4209  -16.1854   21.2043 C   0  0  0  0  0  0  0  0  0  0  0  0
   -7.0313  -16.4813   20.3857 C   0  0  2  0  0  0  0  0  0  0  0  0
   -5.7447  -16.9286   19.6871 C   0  0  0  0  0  0  0  0  0  0  0  0
   -5.9929  -17.4989   18.2888 C   0  0  0  0  0  0  0  0  0  0  0  0
   -9.3336  -16.6860   25.9715 N   0  0  0  0  0  0  0  0  0  0  0  0
   -8.5093  -15.4148   21.7994 N   0  0  0  0  0  0  0  0  0  0  0  0
   -7.6429  -15.0636   26.3393 N   0  0  0  0  0  0  0  0  0  0  0  0
  -10.3615  -16.6881   23.9405 O   0  0  0  0  0  0  0  0  0  0  0  0
   -5.6693  -19.5503   15.9964 O   0  5  0  0  0  0  0  0  0  0  0  0
   -4.4330  -15.0418   16.1600 O   0  0  0  0  0  0  0  0  0  0  0  0
   -4.7679  -17.7495   17.5930 O   0  0  0  0  0  0  0  0  0  0  0  0
   -5.5785  -17.1262   15.2186 O   0  0  0  0  0  0  0  0  0  0  0  0
   -3.8066  -15.8894   13.7976 O   0  5  0  0  0  0  0  0  0  0  0  0
   -3.3850  -18.4323   15.5342 O   0  0  0  0  0  0  0  0  0  0  0  0
   -6.1041  -14.8291   14.2279 O   0  0  0  0  0  0  0  0  0  0  0  0
   -8.6032  -17.1045   19.9685 S   0  0  0  0  0  0  0  0  0  0  0  0
   -4.7560  -18.2263   16.0549 P   0  0  2  0  0  0  0  0  0  0  0  0
   -4.8987  -15.7359   14.7845 P   0  0  2  0  0  0  0  0  0  0  0  0
  2 16  2  0  0  0  0
  2  3  1  0  0  0  0
  2 13  1  0  0  0  0
  3  8  2  0  0  0  0
  3  4  1  0  0  0  0
  4 14  1  0  0  0  0
  5  1  1  1  0  0  0
  5 14  1  0  0  0  0
  5 10  1  0  0  0  0
  6  7  1  0  0  0  0
  7 13  1  0  0  0  0
  7 15  2  0  0  0  0
  8 15  1  0  0  0  0
  9 14  1  0  0  0  0
  9 24  1  0  0  0  0
 10 24  1  0  0  0  0
 10 11  1  6  0  0  0
 11 12  1  0  0  0  0
 12 19  1  0  0  0  0
 17 25  1  0  0  0  0
 19 25  1  0  0  0  0
 20 26  1  0  0  0  0
 21 26  1  0  0  0  0
 22 25  2  0  0  0  0
 23 26  2  0  0  0  0
 25 20  1  6  0  0  0
 26 18  1  1  0  0  0
M  CHG  2  17  -1  21  -1
M  END
>  <CHROM.1>
-66.12506575,-155.56456340,172.55434656,-85.90879415,-174.43663594,-168.11123005
-55.26200601,-58.31582287,-6.75719843,-16.43470528,19.81954959,2.95162716
-1.19005192,2.83137057

>  <Name>
ligand

>  <RI>
0

>  <Rbt.Current_Directory>
/home/itssahil/PROJECTS/Mol_Feturizer/New_Systems/rnas/3D2X

>  <Rbt.Executable>
rbdock ($Id: //depot/dev/client3/rdock/2013.1/src/exe/rbdock.cxx#4 $)

>  <Rbt.Library>
libRbt.so (2013.1, Build901 2013/11/27)

>  <Rbt.Parameter_File>
/export/apps/rDock/src/rDock_2013.1_src/data/scripts/dock_solv.prm

>  <Rbt.Receptor>
prm/pocket_docking_8.prm

>  <SCORE>
-22.6384

>  <SCORE.INTER>
-19.9557

>  <SCORE.INTER.CONST>
1

>  <SCORE.INTER.POLAR>
0

>  <SCORE.INTER.ROT>
8

>  <SCORE.INTER.SOLV>
17.1376

>  <SCORE.INTER.VDW>
-27.9497

>  <SCORE.INTER.norm>
-0.767528

>  <SCORE.INTRA>
-2.68269

>  <SCORE.INTRA.DIHEDRAL>
-2.19184

>  <SCORE.INTRA.DIHEDRAL.0>
7.88077

>  <SCORE.INTRA.POLAR>
0

>  <SCORE.INTRA.POLAR.0>
0

>  <SCORE.INTRA.REPUL>
0

>  <SCORE.INTRA.REPUL.0>
0

>  <SCORE.INTRA.SOLV>
-2.4628

>  <SCORE.INTRA.SOLV.lig_0>
-63.2542

>  <SCORE.INTRA.VDW>
-0.355373

>  <SCORE.INTRA.VDW.0>
-3.15072

>  <SCORE.INTRA.norm>
-0.103181

>  <SCORE.RESTR>
0

>  <SCORE.RESTR.CAVITY>
0

>  <SCORE.RESTR.norm>
0

>  <SCORE.SYSTEM>
0

>  <SCORE.SYSTEM.CONST>
0

>  <SCORE.SYSTEM.DIHEDRAL>
0

>  <SCORE.SYSTEM.SOLV>
0

>  <SCORE.SYSTEM.norm>
0

>  <SCORE.heavy>
26

>  <SCORE.norm>
-0.870709

>  <RMSD>
4.614

$$$$
ligand
 OpenBabel11021811473D
libRbt.so/2013.1/901 2013/11/27
 26 27  0  0  0  0  0  0  0  0999 V2000
   -7.1448  -17.7594   22.9046 C   0  0  0  0  0  0  0  0  0  0  0  0
   -8.3313  -15.6206   27.0292 C   0  0  0  0  0  0  0  0  0  0  0  0
   -8.3131  -15.7703   25.6464 C   0  0  0  0  0  0  0  0  0  0  0  0
   -9.1014  -16.8543   24.9075 C   0  0  0  0  0  0  0  0  0  0  0  0
   -8.3750  -16.9154   22.5582 C   0  0  1  0  0  0  0  0  0  0  0  0
   -6.0832  -12.5684   27.4332 C   0  0  0  0  0  0  0  0  0  0  0  0
   -6.8707  -13.7182   26.8032 C   0  0  0  0  0  0  0  0  0  0  0  0
   -7.5555  -14.8711   24.9028 C   0  0  0  0  0  0  0  0  0  0  0  0
  -10.2997  -15.8087   23.0620 C   0  0  0  0  0  0  0  0  0  0  0  0
   -8.6588  -16.5237   21.2554 C   0  0  2  0  0  0  0  0  0  0  0  0
   -7.9199  -16.7955   19.9426 C   0  0  0  0  0  0  0  0  0  0  0  0
   -6.3985  -16.7122   20.0865 C   0  0  0  0  0  0  0  0  0  0  0  0
   -7.6055  -14.5856   27.6224 N   0  0  0  0  0  0  0  0  0  0  0  0
   -9.2535  -16.5203   23.4839 N   0  0  0  0  0  0  0  0  0  0  0  0
   -6.8735  -13.8960   25.4742 N   0  0  0  0  0  0  0  0  0  0  0  0
   -8.9858  -16.3924   27.7303 O   0  0  0  0  0  0  0  0  0  0  0  0
   -3.7520  -17.7568   17.4366 O   0  5  0  0  0  0  0  0  0  0  0  0
   -6.4228  -15.8776   14.2528 O   0  0  0  0  0  0  0  0  0  0  0  0
   -5.7272  -17.4330   19.0485 O   0  0  0  0  0  0  0  0  0  0  0  0
   -5.7834  -16.4255   16.6683 O   0  0  0  0  0  0  0  0  0  0  0  0
   -4.4712  -14.6072   15.3796 O   0  5  0  0  0  0  0  0  0  0  0  0
   -4.2259  -15.4296   18.4569 O   0  0  0  0  0  0  0  0  0  0  0  0
   -4.2184  -17.0846   14.7576 O   0  0  0  0  0  0  0  0  0  0  0  0
  -10.1038  -15.5559   21.3478 S   0  0  0  0  0  0  0  0  0  0  0  0
   -4.8341  -16.6777   17.9415 P   0  0  2  0  0  0  0  0  0  0  0  0
   -5.1787  -15.9029   15.2738 P   0  0  2  0  0  0  0  0  0  0  0  0
  2 16  2  0  0  0  0
  2  3  1  0  0  0  0
  2 13  1  0  0  0  0
  3  8  2  0  0  0  0
  3  4  1  0  0  0  0
  4 14  1  0  0  0  0
  5  1  1  6  0  0  0
  5 14  1  0  0  0  0
  5 10  1  0  0  0  0
  6  7  1  0  0  0  0
  7 13  1  0  0  0  0
  7 15  2  0  0  0  0
  8 15  1  0  0  0  0
  9 14  1  0  0  0  0
  9 24  1  0  0  0  0
 10 24  1  0  0  0  0
 10 11  1  1  0  0  0
 11 12  1  0  0  0  0
 12 19  1  0  0  0  0
 17 25  1  0  0  0  0
 19 25  1  0  0  0  0
 20 26  1  0  0  0  0
 21 26  1  0  0  0  0
 22 25  2  0  0  0  0
 23 26  2  0  0  0  0
 25 20  1  6  0  0  0
 26 18  1  6  0  0  0
M  CHG  2  17  -1  21  -1
M  END
>  <CHROM.1>
161.45880169,-40.23547020,158.08937472,90.90469330,113.71170598,-58.08906541
154.08192029,176.34481398,-6.88330971,-15.96325299,20.96393219,1.89569687
0.35051838,1.34464707

>  <Name>
ligand

>  <RI>
0

>  <Rbt.Current_Directory>
/home/itssahil/PROJECTS/Mol_Feturizer/New_Systems/rnas/3D2X

>  <Rbt.Executable>
rbdock ($Id: //depot/dev/client3/rdock/2013.1/src/exe/rbdock.cxx#4 $)

>  <Rbt.Library>
libRbt.so (2013.1, Build901 2013/11/27)

>  <Rbt.Parameter_File>
/export/apps/rDock/src/rDock_2013.1_src/data/scripts/dock_solv.prm

>  <Rbt.Receptor>
prm/blind_docking_80.prm

>  <SCORE>
-14.9658

>  <SCORE.INTER>
-20.4033

>  <SCORE.INTER.CONST>
1

>  <SCORE.INTER.POLAR>
0

>  <SCORE.INTER.ROT>
8

>  <SCORE.INTER.SOLV>
14.5

>  <SCORE.INTER.VDW>
-27.3689

>  <SCORE.INTER.norm>
-0.784742

>  <SCORE.INTRA>
4.47007

>  <SCORE.INTRA.DIHEDRAL>
6.88369

>  <SCORE.INTRA.DIHEDRAL.0>
7.88077

>  <SCORE.INTRA.POLAR>
0

>  <SCORE.INTRA.POLAR.0>
0

>  <SCORE.INTRA.REPUL>
0

>  <SCORE.INTRA.REPUL.0>
0

>  <SCORE.INTRA.SOLV>
0.507026

>  <SCORE.INTRA.SOLV.lig_0>
-63.2542

>  <SCORE.INTRA.VDW>
0.774711

>  <SCORE.INTRA.VDW.0>
-3.15072

>  <SCORE.INTRA.norm>
0.171926

>  <SCORE.RESTR>
0.967441

>  <SCORE.RESTR.CAVITY>
0.967441

>  <SCORE.RESTR.norm>
0.0372093

>  <SCORE.SYSTEM>
0

>  <SCORE.SYSTEM.CONST>
0

>  <SCORE.SYSTEM.DIHEDRAL>
0

>  <SCORE.SYSTEM.SOLV>
0

>  <SCORE.SYSTEM.norm>
0

>  <SCORE.heavy>
26

>  <SCORE.norm>
-0.575607

>  <RMSD>
4.668

$$$$
ligand
 OpenBabel11021811473D
libRbt.so/2013.1/901 2013/11/27
 26 27  0  0  0  0  0  0  0  0999 V2000
   -7.3123  -13.4066   24.4272 C   0  0  0  0  0  0  0  0  0  0  0  0
   -9.3843  -16.8649   24.1620 C   0  0  0  0  0  0  0  0  0  0  0  0
   -8.5105  -16.6564   25.2240 C   0  0  0  0  0  0  0  0  0  0  0  0
   -7.0404  -16.2717   25.0405 C   0  0  0  0  0  0  0  0  0  0  0  0
   -6.7475  -13.9346   25.7492 C   0  0  1  0  0  0  0  0  0  0  0  0
  -12.6099  -17.6230   26.0470 C   0  0  0  0  0  0  0  0  0  0  0  0
  -11.1476  -17.2899   25.7474 C   0  0  0  0  0  0  0  0  0  0  0  0
   -9.0115  -16.7835   26.5156 C   0  0  0  0  0  0  0  0  0  0  0  0
   -6.1541  -15.5834   27.2027 C   0  0  0  0  0  0  0  0  0  0  0  0
   -6.3292  -13.0842   26.7657 C   0  0  2  0  0  0  0  0  0  0  0  0
   -6.3200  -11.5560   26.8549 C   0  0  0  0  0  0  0  0  0  0  0  0
   -4.9598  -10.9468   26.5070 C   0  0  0  0  0  0  0  0  0  0  0  0
  -10.7192  -17.1851   24.4174 N   0  0  0  0  0  0  0  0  0  0  0  0
   -6.6385  -15.2407   26.0082 N   0  0  0  0  0  0  0  0  0  0  0  0
  -10.2757  -17.0861   26.7454 N   0  0  0  0  0  0  0  0  0  0  0  0
   -8.9877  -16.7651   23.0008 O   0  0  0  0  0  0  0  0  0  0  0  0
   -2.3048  -10.0759   25.6039 O   0  5  0  0  0  0  0  0  0  0  0  0
    0.0025  -11.3161   24.7682 O   0  0  0  0  0  0  0  0  0  0  0  0
   -4.4137  -11.5154   25.3128 O   0  0  0  0  0  0  0  0  0  0  0  0
   -2.3098  -11.9451   23.8732 O   0  0  0  0  0  0  0  0  0  0  0  0
   -0.1934  -12.7331   22.6128 O   0  5  0  0  0  0  0  0  0  0  0  0
   -3.7459   -9.8495   23.4700 O   0  0  0  0  0  0  0  0  0  0  0  0
   -0.8703  -10.2572   22.6030 O   0  0  0  0  0  0  0  0  0  0  0  0
   -5.7282  -14.1122   28.0365 S   0  0  0  0  0  0  0  0  0  0  0  0
   -3.2329  -10.7854   24.4968 P   0  0  2  0  0  0  0  0  0  0  0  0
   -0.7996  -11.6449   23.4121 P   0  0  2  0  0  0  0  0  0  0  0  0
  2 16  2  0  0  0  0
  2  3  1  0  0  0  0
  2 13  1  0  0  0  0
  3  8  2  0  0  0  0
  3  4  1  0  0  0  0
  4 14  1  0  0  0  0
  5  1  1  1  0  0  0
  5 14  1  0  0  0  0
  5 10  1  0  0  0  0
  6  7  1  0  0  0  0
  7 13  1  0  0  0  0
  7 15  2  0  0  0  0
  8 15  1  0  0  0  0
  9 14  1  0  0  0  0
  9 24  1  0  0  0  0
 10 24  1  0  0  0  0
 10 11  1  6  0  0  0
 11 12  1  0  0  0  0
 12 19  1  0  0  0  0
 17 25  1  0  0  0  0
 19 25  1  0  0  0  0
 20 26  1  0  0  0  0
 21 26  1  0  0  0  0
 22 25  2  0  0  0  0
 23 26  2  0  0  0  0
 25 20  1  6  0  0  0
 26 18  1  1  0  0  0
M  CHG  2  17  -1  21  -1
M  END
>  <CHROM.1>
138.26959015,-97.39663154,46.62862470,-89.83613358,162.12732723,-47.70663300
34.90867515,66.86848255,-5.48552273,-13.52985934,25.12903807,-3.01449370
0.61667731,1.07683843

>  <Name>
ligand

>  <RI>
0

>  <Rbt.Current_Directory>
/home/itssahil/PROJECTS/Mol_Feturizer/New_Systems/rnas/3D2X

>  <Rbt.Executable>
rbdock ($Id: //depot/dev/client3/rdock/2013.1/src/exe/rbdock.cxx#4 $)

>  <Rbt.Library>
libRbt.so (2013.1, Build901 2013/11/27)

>  <Rbt.Parameter_File>
/export/apps/rDock/src/rDock_2013.1_src/data/scripts/dock_solv.prm

>  <Rbt.Receptor>
prm/pocket_docking_8.prm

>  <SCORE>
-24.041

>  <SCORE.INTER>
-23.7496

>  <SCORE.INTER.CONST>
1

>  <SCORE.INTER.POLAR>
0

>  <SCORE.INTER.ROT>
8

>  <SCORE.INTER.SOLV>
12.7173

>  <SCORE.INTER.VDW>
-29.0055

>  <SCORE.INTER.norm>
-0.913448

>  <SCORE.INTRA>
-0.295234

>  <SCORE.INTRA.DIHEDRAL>
0.986904

>  <SCORE.INTRA.DIHEDRAL.0>
7.88077

>  <SCORE.INTRA.POLAR>
0

>  <SCORE.INTRA.POLAR.0>
0

>  <SCORE.INTRA.REPUL>
0

>  <SCORE.INTRA.REPUL.0>
0

>  <SCORE.INTRA.SOLV>
-0.341665

>  <SCORE.INTRA.SOLV.lig_0>
-63.2542

>  <SCORE.INTRA.VDW>
-0.617853

>  <SCORE.INTRA.VDW.0>
-3.15072

>  <SCORE.INTRA.norm>
-0.0113551

>  <SCORE.RESTR>
0.00391454

>  <SCORE.RESTR.CAVITY>
0.00391454

>  <SCORE.RESTR.norm>
0.000150559

>  <SCORE.SYSTEM>
0

>  <SCORE.SYSTEM.CONST>
0

>  <SCORE.SYSTEM.DIHEDRAL>
0

>  <SCORE.SYSTEM.SOLV>
0

>  <SCORE.SYSTEM.norm>
0

>  <SCORE.heavy>
26

>  <SCORE.norm>
-0.924652

>  <RMSD>
4.748

$$$$
ligand
 OpenBabel11021811473D
libRbt.so/2013.1/901 2013/11/27
 26 27  0  0  0  0  0  0  0  0999 V2000
   -5.6298  -14.2871   24.0468 C   0  0  0  0  0  0  0  0  0  0  0  0
   -9.1742  -16.8396   27.0569 C   0  0  0  0  0  0  0  0  0  0  0  0
   -8.4929  -16.5643   25.8759 C   0  0  0  0  0  0  0  0  0  0  0  0
   -7.0132  -16.1759   25.8294 C   0  0  0  0  0  0  0  0  0  0  0  0
   -6.1940  -13.8939   25.4153 C   0  0  1  0  0  0  0  0  0  0  0  0
  -12.6182  -17.7323   25.6877 C   0  0  0  0  0  0  0  0  0  0  0  0
  -11.1513  -17.3056   25.7620 C   0  0  0  0  0  0  0  0  0  0  0  0
   -9.1933  -16.6718   24.6786 C   0  0  0  0  0  0  0  0  0  0  0  0
   -7.2939  -14.3061   27.3655 C   0  0  0  0  0  0  0  0  0  0  0  0
   -6.0979  -12.5984   25.9091 C   0  0  2  0  0  0  0  0  0  0  0  0
   -5.4829  -11.3357   25.3002 C   0  0  0  0  0  0  0  0  0  0  0  0
   -4.5229  -10.6207   26.2539 C   0  0  0  0  0  0  0  0  0  0  0  0
  -10.5181  -17.2156   27.0087 N   0  0  0  0  0  0  0  0  0  0  0  0
   -6.8237  -14.7676   26.2058 N   0  0  0  0  0  0  0  0  0  0  0  0
  -10.4637  -17.0286   24.6447 N   0  0  0  0  0  0  0  0  0  0  0  0
   -8.5978  -16.7570   28.1417 O   0  0  0  0  0  0  0  0  0  0  0  0
   -2.3327   -8.1744   24.0863 O   0  5  0  0  0  0  0  0  0  0  0  0
    0.6001  -11.7133   24.7699 O   0  0  0  0  0  0  0  0  0  0  0  0
   -3.9087   -9.4856   25.6360 O   0  0  0  0  0  0  0  0  0  0  0  0
   -1.6403  -10.4858   24.9032 O   0  0  0  0  0  0  0  0  0  0  0  0
   -1.2359  -12.2067   23.0155 O   0  5  0  0  0  0  0  0  0  0  0  0
   -3.5652  -10.2709   23.2106 O   0  0  0  0  0  0  0  0  0  0  0  0
   -0.0085   -9.9525   23.0091 O   0  0  0  0  0  0  0  0  0  0  0  0
   -6.8233  -12.6318   27.4922 S   0  0  0  0  0  0  0  0  0  0  0  0
   -2.9100   -9.6472   24.3831 P   0  0  2  0  0  0  0  0  0  0  0  0
   -0.6167  -11.1678   23.8684 P   0  0  2  0  0  0  0  0  0  0  0  0
  2 16  2  0  0  0  0
  2  3  1  0  0  0  0
  2 13  1  0  0  0  0
  3  8  2  0  0  0  0
  3  4  1  0  0  0  0
  4 14  1  0  0  0  0
  5  1  1  6  0  0  0
  5 14  1  0  0  0  0
  5 10  1  0  0  0  0
  6  7  1  0  0  0  0
  7 13  1  0  0  0  0
  7 15  2  0  0  0  0
  8 15  1  0  0  0  0
  9 14  1  0  0  0  0
  9 24  1  0  0  0  0
 10 24  1  0  0  0  0
 10 11  1  1  0  0  0
 11 12  1  0  0  0  0
 12 19  1  0  0  0  0
 17 25  1  0  0  0  0
 19 25  1  0  0  0  0
 20 26  1  0  0  0  0
 21 26  1  0  0  0  0
 22 25  2  0  0  0  0
 23 26  2  0  0  0  0
 25 20  1  1  0  0  0
 26 18  1  1  0  0  0
M  CHG  2  17  -1  21  -1
M  END
>  <CHROM.1>
-77.96889594,-129.77014983,176.90109449,-124.54984797,-64.86442794,-83.78187179
-174.55663693,172.07971181,-5.36190268,-13.03151493,25.30559715,-2.65738305
0.50579780,0.42124873

>  <Name>
ligand

>  <RI>
0

>  <Rbt.Current_Directory>
/home/itssahil/PROJECTS/Mol_Feturizer/New_Systems/rnas/3D2X

>  <Rbt.Executable>
rbdock ($Id: //depot/dev/client3/rdock/2013.1/src/exe/rbdock.cxx#4 $)

>  <Rbt.Library>
libRbt.so (2013.1, Build901 2013/11/27)

>  <Rbt.Parameter_File>
/export/apps/rDock/src/rDock_2013.1_src/data/scripts/dock_solv.prm

>  <Rbt.Receptor>
prm/pocket_docking_8.prm

>  <SCORE>
-25.4006

>  <SCORE.INTER>
-25.1283

>  <SCORE.INTER.CONST>
1

>  <SCORE.INTER.POLAR>
0

>  <SCORE.INTER.ROT>
8

>  <SCORE.INTER.SOLV>
12.9854

>  <SCORE.INTER.VDW>
-30.014

>  <SCORE.INTER.norm>
-0.966472

>  <SCORE.INTRA>
-0.272443

>  <SCORE.INTRA.DIHEDRAL>
-1.86708

>  <SCORE.INTRA.DIHEDRAL.0>
7.88077

>  <SCORE.INTRA.POLAR>
0

>  <SCORE.INTRA.POLAR.0>
0

>  <SCORE.INTRA.REPUL>
0

>  <SCORE.INTRA.REPUL.0>
0

>  <SCORE.INTRA.SOLV>
1.41102

>  <SCORE.INTRA.SOLV.lig_0>
-63.2542

>  <SCORE.INTRA.VDW>
-0.0444142

>  <SCORE.INTRA.VDW.0>
-3.15072

>  <SCORE.INTRA.norm>
-0.0104786

>  <SCORE.RESTR>
6.73624e-05

>  <SCORE.RESTR.CAVITY>
6.73624e-05

>  <SCORE.RESTR.norm>
2.59086e-06

>  <SCORE.SYSTEM>
0

>  <SCORE.SYSTEM.CONST>
0

>  <SCORE.SYSTEM.DIHEDRAL>
0

>  <SCORE.SYSTEM.SOLV>
0

>  <SCORE.SYSTEM.norm>
0

>  <SCORE.heavy>
26

>  <SCORE.norm>
-0.976948

>  <RMSD>
4.752

$$$$
ligand
 OpenBabel11021811473D
libRbt.so/2013.1/901 2013/11/27
 26 27  0  0  0  0  0  0  0  0999 V2000
   -6.3114  -14.7754   27.6844 C   0  0  0  0  0  0  0  0  0  0  0  0
   -9.6359  -16.8614   24.2645 C   0  0  0  0  0  0  0  0  0  0  0  0
   -8.8629  -16.6580   25.4029 C   0  0  0  0  0  0  0  0  0  0  0  0
   -7.4002  -16.2097   25.3571 C   0  0  0  0  0  0  0  0  0  0  0  0
   -6.8099  -14.0710   26.4191 C   0  0  1  0  0  0  0  0  0  0  0  0
  -12.9723  -17.8135   25.8440 C   0  0  0  0  0  0  0  0  0  0  0  0
  -11.5054  -17.4128   25.6802 C   0  0  0  0  0  0  0  0  0  0  0  0
   -9.4637  -16.8518   26.6426 C   0  0  0  0  0  0  0  0  0  0  0  0
   -7.6781  -14.0253   24.3150 C   0  0  0  0  0  0  0  0  0  0  0  0
   -6.7715  -12.6888   26.2795 C   0  0  2  0  0  0  0  0  0  0  0  0
   -6.2718  -11.5980   27.2303 C   0  0  0  0  0  0  0  0  0  0  0  0
   -5.4468  -10.5214   26.5213 C   0  0  0  0  0  0  0  0  0  0  0  0
  -10.9728  -17.2427   24.3954 N   0  0  0  0  0  0  0  0  0  0  0  0
   -7.2954  -14.7435   25.3717 N   0  0  0  0  0  0  0  0  0  0  0  0
  -10.7288  -17.2118   26.7545 N   0  0  0  0  0  0  0  0  0  0  0  0
   -9.1487  -16.7037   23.1449 O   0  0  0  0  0  0  0  0  0  0  0  0
   -2.0478  -11.1073   24.6266 O   0  5  0  0  0  0  0  0  0  0  0  0
   -2.4249   -7.2725   23.9473 O   0  0  0  0  0  0  0  0  0  0  0  0
   -4.2596  -11.0636   25.9344 O   0  0  0  0  0  0  0  0  0  0  0  0
   -3.8358   -9.4057   23.9966 O   0  0  0  0  0  0  0  0  0  0  0  0
   -1.9362   -9.1694   22.2576 O   0  5  0  0  0  0  0  0  0  0  0  0
   -2.5732   -9.1426   26.2221 O   0  0  0  0  0  0  0  0  0  0  0  0
   -4.0757   -7.7669   22.0495 O   0  0  0  0  0  0  0  0  0  0  0  0
   -7.4734  -12.3425   24.7237 S   0  0  0  0  0  0  0  0  0  0  0  0
   -3.1444  -10.1157   25.2629 P   0  0  2  0  0  0  0  0  0  0  0  0
   -2.9895   -8.4561   23.0140 P   0  0  2  0  0  0  0  0  0  0  0  0
  2 16  2  0  0  0  0
  2  3  1  0  0  0  0
  2 13  1  0  0  0  0
  3  8  2  0  0  0  0
  3  4  1  0  0  0  0
  4 14  1  0  0  0  0
  5  1  1  6  0  0  0
  5 14  1  0  0  0  0
  5 10  1  0  0  0  0
  6  7  1  0  0  0  0
  7 13  1  0  0  0  0
  7 15  2  0  0  0  0
  8 15  1  0  0  0  0
  9 14  1  0  0  0  0
  9 24  1  0  0  0  0
 10 24  1  0  0  0  0
 10 11  1  1  0  0  0
 11 12  1  0  0  0  0
 12 19  1  0  0  0  0
 17 25  1  0  0  0  0
 19 25  1  0  0  0  0
 20 26  1  0  0  0  0
 21 26  1  0  0  0  0
 22 25  2  0  0  0  0
 23 26  2  0  0  0  0
 25 20  1  6  0  0  0
 26 18  1  1  0  0  0
M  CHG  2  17  -1  21  -1
M  END
>  <CHROM.1>
89.69837336,136.63813161,-62.24929112,110.69857032,-173.55216991,-63.68790659
-175.60878741,-59.49935201,-6.20593071,-12.60612851,24.98267041,-2.76522943
-0.76863900,-1.23659451

>  <Name>
ligand

>  <RI>
0

>  <Rbt.Current_Directory>
/home/itssahil/PROJECTS/Mol_Feturizer/New_Systems/rnas/3D2X

>  <Rbt.Executable>
rbdock ($Id: //depot/dev/client3/rdock/2013.1/src/exe/rbdock.cxx#4 $)

>  <Rbt.Library>
libRbt.so (2013.1, Build901 2013/11/27)

>  <Rbt.Parameter_File>
/export/apps/rDock/src/rDock_2013.1_src/data/scripts/dock_solv.prm

>  <Rbt.Receptor>
prm/pocket_docking_8.prm

>  <SCORE>
-21.4114

>  <SCORE.INTER>
-18.587

>  <SCORE.INTER.CONST>
1

>  <SCORE.INTER.POLAR>
0

>  <SCORE.INTER.ROT>
8

>  <SCORE.INTER.SOLV>
11.3386

>  <SCORE.INTER.VDW>
-25.1042

>  <SCORE.INTER.norm>
-0.714884

>  <SCORE.INTRA>
-2.82437

>  <SCORE.INTRA.DIHEDRAL>
-2.59133

>  <SCORE.INTRA.DIHEDRAL.0>
7.88077

>  <SCORE.INTRA.POLAR>
0

>  <SCORE.INTRA.POLAR.0>
0

>  <SCORE.INTRA.REPUL>
0

>  <SCORE.INTRA.REPUL.0>
0

>  <SCORE.INTRA.SOLV>
-1.55831

>  <SCORE.INTRA.SOLV.lig_0>
-63.2542

>  <SCORE.INTRA.VDW>
-0.749552

>  <SCORE.INTRA.VDW.0>
-3.15072

>  <SCORE.INTRA.norm>
-0.10863

>  <SCORE.RESTR>
0

>  <SCORE.RESTR.CAVITY>
0

>  <SCORE.RESTR.norm>
0

>  <SCORE.SYSTEM>
0

>  <SCORE.SYSTEM.CONST>
0

>  <SCORE.SYSTEM.DIHEDRAL>
0

>  <SCORE.SYSTEM.SOLV>
0

>  <SCORE.SYSTEM.norm>
0

>  <SCORE.heavy>
26

>  <SCORE.norm>
-0.823514

>  <RMSD>
4.766

$$$$
ligand
 OpenBabel11021811473D
libRbt.so/2013.1/901 2013/11/27
 26 27  0  0  0  0  0  0  0  0999 V2000
   -6.8125  -17.5285   23.1225 C   0  0  0  0  0  0  0  0  0  0  0  0
   -8.7764  -16.1794   26.2455 C   0  0  0  0  0  0  0  0  0  0  0  0
   -8.7274  -15.9133   24.8811 C   0  0  0  0  0  0  0  0  0  0  0  0
   -9.5398  -16.6908   23.8429 C   0  0  0  0  0  0  0  0  0  0  0  0
   -7.7708  -16.8473   22.1410 C   0  0  1  0  0  0  0  0  0  0  0  0
   -6.4156  -13.4944   27.5685 C   0  0  0  0  0  0  0  0  0  0  0  0
   -7.2328  -14.3671   26.6148 C   0  0  0  0  0  0  0  0  0  0  0  0
   -7.9135  -14.8711   24.4486 C   0  0  0  0  0  0  0  0  0  0  0  0
   -9.7608  -15.9167   21.5436 C   0  0  0  0  0  0  0  0  0  0  0  0
   -7.4150  -16.5848   20.8234 C   0  0  2  0  0  0  0  0  0  0  0  0
   -6.1214  -16.8728   20.0572 C   0  0  0  0  0  0  0  0  0  0  0  0
   -6.3712  -17.3691   18.6311 C   0  0  0  0  0  0  0  0  0  0  0  0
   -8.0246  -15.4024   27.1292 N   0  0  0  0  0  0  0  0  0  0  0  0
   -9.0074  -16.4805   22.4888 N   0  0  0  0  0  0  0  0  0  0  0  0
   -7.2073  -14.1426   25.2931 N   0  0  0  0  0  0  0  0  0  0  0  0
   -9.4809  -17.0923   26.6767 O   0  0  0  0  0  0  0  0  0  0  0  0
   -6.1609  -19.3557   16.3106 O   0  5  0  0  0  0  0  0  0  0  0  0
   -3.8707  -15.3449   15.9323 O   0  0  0  0  0  0  0  0  0  0  0  0
   -5.1473  -17.6519   17.9458 O   0  0  0  0  0  0  0  0  0  0  0  0
   -5.8298  -16.9457   15.5544 O   0  0  0  0  0  0  0  0  0  0  0  0
   -4.3430  -16.2509   13.5556 O   0  5  0  0  0  0  0  0  0  0  0  0
   -3.7729  -18.4460   15.9216 O   0  0  0  0  0  0  0  0  0  0  0  0
   -5.9415  -14.5610   14.6407 O   0  0  0  0  0  0  0  0  0  0  0  0
   -8.7795  -15.7714   20.1095 S   0  0  0  0  0  0  0  0  0  0  0  0
   -5.1342  -18.1198   16.4050 P   0  0  2  0  0  0  0  0  0  0  0  0
   -4.9492  -15.8115   14.8323 P   0  0  2  0  0  0  0  0  0  0  0  0
  2 16  2  0  0  0  0
  2  3  1  0  0  0  0
  2 13  1  0  0  0  0
  3  8  2  0  0  0  0
  3  4  1  0  0  0  0
  4 14  1  0  0  0  0
  5  1  1  6  0  0  0
  5 14  1  0  0  0  0
  5 10  1  0  0  0  0
  6  7  1  0  0  0  0
  7 13  1  0  0  0  0
  7 15  2  0  0  0  0
  8 15  1  0  0  0  0
  9 14  1  0  0  0  0
  9 24  1  0  0  0  0
 10 24  1  0  0  0  0
 10 11  1  1  0  0  0
 11 12  1  0  0  0  0
 12 19  1  0  0  0  0
 17 25  1  0  0  0  0
 19 25  1  0  0  0  0
 20 26  1  0  0  0  0
 21 26  1  0  0  0  0
 22 25  2  0  0  0  0
 23 26  2  0  0  0  0
 25 20  1  6  0  0  0
 26 18  1  1  0  0  0
M  CHG  2  17  -1  21  -1
M  END
>  <CHROM.1>
-163.10219155,139.00211060,-179.01583808,62.14860089,-176.94450987,-152.37312942
-51.62155989,-45.77227923,-6.77155558,-16.37547684,20.19624949,2.08358166
0.91458224,1.02396938

>  <Name>
ligand

>  <RI>
0

>  <Rbt.Current_Directory>
/home/itssahil/PROJECTS/Mol_Feturizer/New_Systems/rnas/3D2X

>  <Rbt.Executable>
rbdock ($Id: //depot/dev/client3/rdock/2013.1/src/exe/rbdock.cxx#4 $)

>  <Rbt.Library>
libRbt.so (2013.1, Build901 2013/11/27)

>  <Rbt.Parameter_File>
/export/apps/rDock/src/rDock_2013.1_src/data/scripts/dock_solv.prm

>  <Rbt.Receptor>
prm/blind_docking_60.prm

>  <SCORE>
-22.4852

>  <SCORE.INTER>
-21.4016

>  <SCORE.INTER.CONST>
1

>  <SCORE.INTER.POLAR>
0

>  <SCORE.INTER.ROT>
8

>  <SCORE.INTER.SOLV>
17.5829

>  <SCORE.INTER.VDW>
-29.062

>  <SCORE.INTER.norm>
-0.823139

>  <SCORE.INTRA>
-1.08362

>  <SCORE.INTRA.DIHEDRAL>
-1.00814

>  <SCORE.INTRA.DIHEDRAL.0>
7.88077

>  <SCORE.INTRA.POLAR>
0

>  <SCORE.INTRA.POLAR.0>
0

>  <SCORE.INTRA.REPUL>
0

>  <SCORE.INTRA.REPUL.0>
0

>  <SCORE.INTRA.SOLV>
-2.58915

>  <SCORE.INTRA.SOLV.lig_0>
-63.2542

>  <SCORE.INTRA.VDW>
0.715023

>  <SCORE.INTRA.VDW.0>
-3.15072

>  <SCORE.INTRA.norm>
-0.0416777

>  <SCORE.RESTR>
0

>  <SCORE.RESTR.CAVITY>
0

>  <SCORE.RESTR.norm>
0

>  <SCORE.SYSTEM>
0

>  <SCORE.SYSTEM.CONST>
0

>  <SCORE.SYSTEM.DIHEDRAL>
0

>  <SCORE.SYSTEM.SOLV>
0

>  <SCORE.SYSTEM.norm>
0

>  <SCORE.heavy>
26

>  <SCORE.norm>
-0.864817

>  <RMSD>
4.830

$$$$
ligand
 OpenBabel11021811473D
libRbt.so/2013.1/901 2013/11/27
 26 27  0  0  0  0  0  0  0  0999 V2000
   -6.1244  -14.9370   21.9321 C   0  0  0  0  0  0  0  0  0  0  0  0
   -9.6153  -16.0987   24.5864 C   0  0  0  0  0  0  0  0  0  0  0  0
   -8.7778  -15.0894   24.1229 C   0  0  0  0  0  0  0  0  0  0  0  0
   -8.9133  -14.4543   22.7370 C   0  0  0  0  0  0  0  0  0  0  0  0
   -7.3203  -15.6488   21.2927 C   0  0  1  0  0  0  0  0  0  0  0  0
   -8.2241  -16.6061   28.0992 C   0  0  0  0  0  0  0  0  0  0  0  0
   -8.4191  -16.0776   26.6773 C   0  0  0  0  0  0  0  0  0  0  0  0
   -7.7834  -14.6234   24.9770 C   0  0  0  0  0  0  0  0  0  0  0  0
   -9.5374  -16.1136   21.0660 C   0  0  0  0  0  0  0  0  0  0  0  0
   -7.1654  -16.5907   20.2827 C   0  0  2  0  0  0  0  0  0  0  0  0
   -5.9065  -17.1339   19.6019 C   0  0  0  0  0  0  0  0  0  0  0  0
   -6.1856  -17.7277   18.2192 C   0  0  0  0  0  0  0  0  0  0  0  0
   -9.4415  -16.6038   25.8765 N   0  0  0  0  0  0  0  0  0  0  0  0
   -8.5784  -15.4178   21.6784 N   0  0  0  0  0  0  0  0  0  0  0  0
   -7.6285  -15.1079   26.1951 N   0  0  0  0  0  0  0  0  0  0  0  0
  -10.5093  -16.5449   23.8671 O   0  0  0  0  0  0  0  0  0  0  0  0
   -6.4723  -19.7729   16.0171 O   0  5  0  0  0  0  0  0  0  0  0  0
   -2.8907  -17.1236   16.3839 O   0  0  0  0  0  0  0  0  0  0  0  0
   -5.0636  -18.4634   17.7215 O   0  0  0  0  0  0  0  0  0  0  0  0
   -5.0659  -17.8034   15.2220 O   0  0  0  0  0  0  0  0  0  0  0  0
   -3.0627  -16.9836   13.8064 O   0  5  0  0  0  0  0  0  0  0  0  0
   -3.8945  -19.9616   15.9878 O   0  0  0  0  0  0  0  0  0  0  0  0
   -4.3721  -15.3438   15.2845 O   0  0  0  0  0  0  0  0  0  0  0  0
   -8.7741  -17.0891   19.8387 S   0  0  0  0  0  0  0  0  0  0  0  0
   -5.0447  -19.0595   16.2257 P   0  0  2  0  0  0  0  0  0  0  0  0
   -3.7938  -16.8306   15.0841 P   0  0  2  0  0  0  0  0  0  0  0  0
  2 16  2  0  0  0  0
  2  3  1  0  0  0  0
  2 13  1  0  0  0  0
  3  8  2  0  0  0  0
  3  4  1  0  0  0  0
  4 14  1  0  0  0  0
  5  1  1  1  0  0  0
  5 14  1  0  0  0  0
  5 10  1  0  0  0  0
  6  7  1  0  0  0  0
  7 13  1  0  0  0  0
  7 15  2  0  0  0  0
  8 15  1  0  0  0  0
  9 14  1  0  0  0  0
  9 24  1  0  0  0  0
 10 24  1  0  0  0  0
 10 11  1  6  0  0  0
 11 12  1  0  0  0  0
 12 19  1  0  0  0  0
 17 25  1  0  0  0  0
 19 25  1  0  0  0  0
 20 26  1  0  0  0  0
 21 26  1  0  0  0  0
 22 25  2  0  0  0  0
 23 26  2  0  0  0  0
 25 20  1  6  0  0  0
 26 18  1  1  0  0  0
M  CHG  2  17  -1  21  -1
M  END
>  <CHROM.1>
-67.66579125,-157.77565891,-168.25404856,-83.69249943,-173.63541792,-178.27099920
-46.37542073,-16.97293080,-6.63892686,-16.85102254,19.86166281,-2.13431165
-0.66717704,-2.15748224

>  <Name>
ligand

>  <RI>
0

>  <Rbt.Current_Directory>
/home/itssahil/PROJECTS/Mol_Feturizer/New_Systems/rnas/3D2X

>  <Rbt.Executable>
rbdock ($Id: //depot/dev/client3/rdock/2013.1/src/exe/rbdock.cxx#4 $)

>  <Rbt.Library>
libRbt.so (2013.1, Build901 2013/11/27)

>  <Rbt.Parameter_File>
/export/apps/rDock/src/rDock_2013.1_src/data/scripts/dock_solv.prm

>  <Rbt.Receptor>
prm/blind_docking_80.prm

>  <SCORE>
-19.2097

>  <SCORE.INTER>
-18.2589

>  <SCORE.INTER.CONST>
1

>  <SCORE.INTER.POLAR>
0

>  <SCORE.INTER.ROT>
8

>  <SCORE.INTER.SOLV>
14.8747

>  <SCORE.INTER.VDW>
-26.0642

>  <SCORE.INTER.norm>
-0.702265

>  <SCORE.INTRA>
-1.30928

>  <SCORE.INTRA.DIHEDRAL>
-0.0180423

>  <SCORE.INTRA.DIHEDRAL.0>
7.88077

>  <SCORE.INTRA.POLAR>
0

>  <SCORE.INTRA.POLAR.0>
0

>  <SCORE.INTRA.REPUL>
0

>  <SCORE.INTRA.REPUL.0>
0

>  <SCORE.INTRA.SOLV>
-2.48965

>  <SCORE.INTRA.SOLV.lig_0>
-63.2542

>  <SCORE.INTRA.VDW>
-0.055428

>  <SCORE.INTRA.VDW.0>
-3.15072

>  <SCORE.INTRA.norm>
-0.0503567

>  <SCORE.RESTR>
0.358438

>  <SCORE.RESTR.CAVITY>
0.358438

>  <SCORE.RESTR.norm>
0.0137861

>  <SCORE.SYSTEM>
0

>  <SCORE.SYSTEM.CONST>
0

>  <SCORE.SYSTEM.DIHEDRAL>
0

>  <SCORE.SYSTEM.SOLV>
0

>  <SCORE.SYSTEM.norm>
0

>  <SCORE.heavy>
26

>  <SCORE.norm>
-0.738836

>  <RMSD>
4.932

$$$$
ligand
 OpenBabel11021811473D
libRbt.so/2013.1/901 2013/11/27
 26 27  0  0  0  0  0  0  0  0999 V2000
   -5.3245  -16.3187   19.5752 C   0  0  0  0  0  0  0  0  0  0  0  0
   -7.2205  -16.2215   23.6862 C   0  0  0  0  0  0  0  0  0  0  0  0
   -8.0716  -15.8032   22.6687 C   0  0  0  0  0  0  0  0  0  0  0  0
   -7.5928  -15.4796   21.2514 C   0  0  0  0  0  0  0  0  0  0  0  0
   -6.6660  -17.0568   19.6071 C   0  0  1  0  0  0  0  0  0  0  0  0
   -9.7176  -16.7419   26.5192 C   0  0  0  0  0  0  0  0  0  0  0  0
   -9.1236  -16.3980   25.1525 C   0  0  0  0  0  0  0  0  0  0  0  0
   -9.4289  -15.6980   22.9556 C   0  0  0  0  0  0  0  0  0  0  0  0
   -8.7936  -17.3950   20.3436 C   0  0  0  0  0  0  0  0  0  0  0  0
   -6.9016  -18.1938   18.8435 C   0  0  2  0  0  0  0  0  0  0  0  0
   -5.9963  -18.9549   17.8716 C   0  0  0  0  0  0  0  0  0  0  0  0
   -6.4462  -18.8281   16.4143 C   0  0  0  0  0  0  0  0  0  0  0  0
   -7.7437  -16.5248   24.9448 N   0  0  0  0  0  0  0  0  0  0  0  0
   -7.6807  -16.6607   20.3806 N   0  0  0  0  0  0  0  0  0  0  0  0
   -9.9127  -15.9879   24.1491 N   0  0  0  0  0  0  0  0  0  0  0  0
   -6.0112  -16.3288   23.4814 O   0  0  0  0  0  0  0  0  0  0  0  0
   -4.7279  -15.4134   15.7283 O   0  5  0  0  0  0  0  0  0  0  0  0
   -1.6402  -17.9262   18.1595 O   0  0  0  0  0  0  0  0  0  0  0  0
   -6.1897  -17.5208   15.8918 O   0  0  0  0  0  0  0  0  0  0  0  0
   -3.7717  -17.5140   16.8066 O   0  0  0  0  0  0  0  0  0  0  0  0
   -1.6133  -18.2631   15.5947 O   0  5  0  0  0  0  0  0  0  0  0  0
   -4.1939  -17.4794   14.2694 O   0  0  0  0  0  0  0  0  0  0  0  0
   -1.7973  -15.9047   16.5910 O   0  0  0  0  0  0  0  0  0  0  0  0
   -8.5511  -18.6537   19.1612 S   0  0  0  0  0  0  0  0  0  0  0  0
   -4.6915  -17.0161   15.5851 P   0  0  2  0  0  0  0  0  0  0  0  0
   -2.1680  -17.4647   16.7106 P   0  0  2  0  0  0  0  0  0  0  0  0
  2 16  2  0  0  0  0
  2  3  1  0  0  0  0
  2 13  1  0  0  0  0
  3  8  2  0  0  0  0
  3  4  1  0  0  0  0
  4 14  1  0  0  0  0
  5  1  1  1  0  0  0
  5 14  1  0  0  0  0
  5 10  1  0  0  0  0
  6  7  1  0  0  0  0
  7 13  1  0  0  0  0
  7 15  2  0  0  0  0
  8 15  1  0  0  0  0
  9 14  1  0  0  0  0
  9 24  1  0  0  0  0
 10 24  1  0  0  0  0
 10 11  1  6  0  0  0
 11 12  1  0  0  0  0
 12 19  1  0  0  0  0
 17 25  1  0  0  0  0
 19 25  1  0  0  0  0
 20 26  1  0  0  0  0
 21 26  1  0  0  0  0
 22 25  2  0  0  0  0
 23 26  2  0  0  0  0
 25 20  1  1  0  0  0
 26 18  1  1  0  0  0
M  CHG  2  17  -1  21  -1
M  END
>  <CHROM.1>
92.24372065,-111.05727372,72.24844738,-131.13719160,70.84385072,-80.72614957
-152.90189764,175.47435999,-5.95567717,-17.09212246,19.23811242,-2.17058383
-0.18398185,-1.81277279

>  <Name>
ligand

>  <RI>
0

>  <Rbt.Current_Directory>
/home/itssahil/PROJECTS/Mol_Feturizer/New_Systems/rnas/3D2X

>  <Rbt.Executable>
rbdock ($Id: //depot/dev/client3/rdock/2013.1/src/exe/rbdock.cxx#4 $)

>  <Rbt.Library>
libRbt.so (2013.1, Build901 2013/11/27)

>  <Rbt.Parameter_File>
/export/apps/rDock/src/rDock_2013.1_src/data/scripts/dock_solv.prm

>  <Rbt.Receptor>
prm/blind_docking_100.prm

>  <SCORE>
-11.8572

>  <SCORE.INTER>
-11.7632

>  <SCORE.INTER.CONST>
1

>  <SCORE.INTER.POLAR>
0

>  <SCORE.INTER.ROT>
8

>  <SCORE.INTER.SOLV>
14.252

>  <SCORE.INTER.VDW>
-21.5261

>  <SCORE.INTER.norm>
-0.45243

>  <SCORE.INTRA>
-0.249839

>  <SCORE.INTRA.DIHEDRAL>
-0.4778

>  <SCORE.INTRA.DIHEDRAL.0>
7.88077

>  <SCORE.INTRA.POLAR>
0

>  <SCORE.INTRA.POLAR.0>
0

>  <SCORE.INTRA.REPUL>
0

>  <SCORE.INTRA.REPUL.0>
0

>  <SCORE.INTRA.SOLV>
2.02313

>  <SCORE.INTRA.SOLV.lig_0>
-63.2542

>  <SCORE.INTRA.VDW>
-1.0225

>  <SCORE.INTRA.VDW.0>
-3.15072

>  <SCORE.INTRA.norm>
-0.00960919

>  <SCORE.RESTR>
0.15578

>  <SCORE.RESTR.CAVITY>
0.15578

>  <SCORE.RESTR.norm>
0.00599154

>  <SCORE.SYSTEM>
0

>  <SCORE.SYSTEM.CONST>
0

>  <SCORE.SYSTEM.DIHEDRAL>
0

>  <SCORE.SYSTEM.SOLV>
0

>  <SCORE.SYSTEM.norm>
0

>  <SCORE.heavy>
26

>  <SCORE.norm>
-0.456048

>  <RMSD>
5.085

$$$$
ligand
 OpenBabel11021811473D
libRbt.so/2013.1/901 2013/11/27
 26 27  0  0  0  0  0  0  0  0999 V2000
   -2.8028  -11.2277   22.0223 C   0  0  0  0  0  0  0  0  0  0  0  0
   -5.8619  -14.9156   23.3224 C   0  0  0  0  0  0  0  0  0  0  0  0
   -4.9123  -14.0169   22.8477 C   0  0  0  0  0  0  0  0  0  0  0  0
   -3.8309  -13.3909   23.7317 C   0  0  0  0  0  0  0  0  0  0  0  0
   -2.0244  -12.5147   22.3108 C   0  0  1  0  0  0  0  0  0  0  0  0
   -7.7598  -15.6921   20.1087 C   0  0  0  0  0  0  0  0  0  0  0  0
   -6.7548  -15.0898   21.0918 C   0  0  0  0  0  0  0  0  0  0  0  0
   -4.9393  -13.6931   21.4950 C   0  0  0  0  0  0  0  0  0  0  0  0
   -1.7320  -14.5474   23.2936 C   0  0  0  0  0  0  0  0  0  0  0  0
   -0.7588  -12.7458   21.7853 C   0  0  2  0  0  0  0  0  0  0  0  0
    0.1252  -11.8826   20.8815 C   0  0  0  0  0  0  0  0  0  0  0  0
   -0.5029  -11.6170   19.5113 C   0  0  0  0  0  0  0  0  0  0  0  0
   -6.7968  -15.4633   22.4416 N   0  0  0  0  0  0  0  0  0  0  0  0
   -2.5090  -13.4817   23.0950 N   0  0  0  0  0  0  0  0  0  0  0  0
   -5.8276  -14.2175   20.6712 N   0  0  0  0  0  0  0  0  0  0  0  0
   -5.8793  -15.2323   24.5120 O   0  0  0  0  0  0  0  0  0  0  0  0
   -1.5634  -14.3682   16.9035 O   0  5  0  0  0  0  0  0  0  0  0  0
   -3.9533  -13.7829   15.6711 O   0  0  0  0  0  0  0  0  0  0  0  0
   -0.7698  -12.8328   18.8054 O   0  0  0  0  0  0  0  0  0  0  0  0
   -3.0469  -12.4356   17.6477 O   0  0  0  0  0  0  0  0  0  0  0  0
   -5.4980  -12.1050   16.8920 O   0  5  0  0  0  0  0  0  0  0  0  0
   -0.8560  -11.9342   16.3966 O   0  0  0  0  0  0  0  0  0  0  0  0
   -3.5600  -11.2608   15.4361 O   0  0  0  0  0  0  0  0  0  0  0  0
   -0.2920  -14.3315   22.3340 S   0  0  0  0  0  0  0  0  0  0  0  0
   -1.5119  -12.8306   17.3763 P   0  0  2  0  0  0  0  0  0  0  0  0
   -4.1140  -12.3818   16.4469 P   0  0  2  0  0  0  0  0  0  0  0  0
  2 16  2  0  0  0  0
  2  3  1  0  0  0  0
  2 13  1  0  0  0  0
  3  8  2  0  0  0  0
  3  4  1  0  0  0  0
  4 14  1  0  0  0  0
  5  1  1  1  0  0  0
  5 14  1  0  0  0  0
  5 10  1  0  0  0  0
  6  7  1  0  0  0  0
  7 13  1  0  0  0  0
  7 15  2  0  0  0  0
  8 15  1  0  0  0  0
  9 14  1  0  0  0  0
  9 24  1  0  0  0  0
 10 24  1  0  0  0  0
 10 11  1  6  0  0  0
 11 12  1  0  0  0  0
 12 19  1  0  0  0  0
 17 25  1  0  0  0  0
 19 25  1  0  0  0  0
 20 26  1  0  0  0  0
 21 26  1  0  0  0  0
 22 25  2  0  0  0  0
 23 26  2  0  0  0  0
 25 20  1  1  0  0  0
 26 18  1  6  0  0  0
M  CHG  2  17  -1  21  -1
M  END
>  <CHROM.1>
132.24387925,-62.66976439,-59.05597386,91.48118799,176.25188014,-65.81244180
177.77559849,50.36973092,-3.18748097,-13.32935761,19.92985709,-1.87043383
-0.27763957,-1.35107883

>  <Name>
ligand

>  <RI>
0

>  <Rbt.Current_Directory>
/home/itssahil/PROJECTS/Mol_Feturizer/New_Systems/rnas/3D2X

>  <Rbt.Executable>
rbdock ($Id: //depot/dev/client3/rdock/2013.1/src/exe/rbdock.cxx#4 $)

>  <Rbt.Library>
libRbt.so (2013.1, Build901 2013/11/27)

>  <Rbt.Parameter_File>
/export/apps/rDock/src/rDock_2013.1_src/data/scripts/dock_solv.prm

>  <Rbt.Receptor>
prm/pocket_docking_5.prm

>  <SCORE>
-7.5419

>  <SCORE.INTER>
-4.62731

>  <SCORE.INTER.CONST>
1

>  <SCORE.INTER.POLAR>
0

>  <SCORE.INTER.ROT>
8

>  <SCORE.INTER.SOLV>
12.7648

>  <SCORE.INTER.VDW>
-16.2731

>  <SCORE.INTER.norm>
-0.177973

>  <SCORE.INTRA>
-2.91459

>  <SCORE.INTRA.DIHEDRAL>
-3.02944

>  <SCORE.INTRA.DIHEDRAL.0>
7.88077

>  <SCORE.INTRA.POLAR>
0

>  <SCORE.INTRA.POLAR.0>
0

>  <SCORE.INTRA.REPUL>
0

>  <SCORE.INTRA.REPUL.0>
0

>  <SCORE.INTRA.SOLV>
-1.30756

>  <SCORE.INTRA.SOLV.lig_0>
-63.2542

>  <SCORE.INTRA.VDW>
-0.74609

>  <SCORE.INTRA.VDW.0>
-3.15072

>  <SCORE.INTRA.norm>
-0.1121

>  <SCORE.RESTR>
0

>  <SCORE.RESTR.CAVITY>
0

>  <SCORE.RESTR.norm>
0

>  <SCORE.SYSTEM>
0

>  <SCORE.SYSTEM.CONST>
0

>  <SCORE.SYSTEM.DIHEDRAL>
0

>  <SCORE.SYSTEM.SOLV>
0

>  <SCORE.SYSTEM.norm>
0

>  <SCORE.heavy>
26

>  <SCORE.norm>
-0.290073

>  <RMSD>
5.153

$$$$
ligand
 OpenBabel11021811473D
libRbt.so/2013.1/901 2013/11/27
 26 27  0  0  0  0  0  0  0  0999 V2000
   -6.7634  -17.1041   22.6455 C   0  0  0  0  0  0  0  0  0  0  0  0
   -6.1026  -11.9072   24.3343 C   0  0  0  0  0  0  0  0  0  0  0  0
   -6.9856  -12.8595   23.8360 C   0  0  0  0  0  0  0  0  0  0  0  0
   -6.5784  -14.3011   23.5217 C   0  0  0  0  0  0  0  0  0  0  0  0
   -6.9764  -15.9129   21.7068 C   0  0  1  0  0  0  0  0  0  0  0  0
   -8.4396   -8.9207   24.7242 C   0  0  0  0  0  0  0  0  0  0  0  0
   -7.9130  -10.3193   24.3989 C   0  0  0  0  0  0  0  0  0  0  0  0
   -8.3095  -12.4809   23.6376 C   0  0  0  0  0  0  0  0  0  0  0  0
   -7.1209  -13.6922   21.2261 C   0  0  0  0  0  0  0  0  0  0  0  0
   -7.2855  -16.0784   20.3620 C   0  0  2  0  0  0  0  0  0  0  0  0
   -7.4883  -17.3459   19.5279 C   0  0  0  0  0  0  0  0  0  0  0  0
   -6.2471  -17.7331   18.7205 C   0  0  0  0  0  0  0  0  0  0  0  0
   -6.5629  -10.6207   24.6221 N   0  0  0  0  0  0  0  0  0  0  0  0
   -6.8930  -14.6478   22.1282 N   0  0  0  0  0  0  0  0  0  0  0  0
   -8.7339  -11.2618   23.9137 N   0  0  0  0  0  0  0  0  0  0  0  0
   -4.9207  -12.1940   24.5256 O   0  0  0  0  0  0  0  0  0  0  0  0
   -4.6400  -15.6004   15.8282 O   0  5  0  0  0  0  0  0  0  0  0  0
   -4.3784  -15.4584   19.5844 O   0  0  0  0  0  0  0  0  0  0  0  0
   -5.9088  -16.7322   17.7553 O   0  0  0  0  0  0  0  0  0  0  0  0
   -3.3256  -16.7801   17.6639 O   0  0  0  0  0  0  0  0  0  0  0  0
   -1.8037  -15.5379   19.3460 O   0  5  0  0  0  0  0  0  0  0  0  0
   -4.7038  -18.1787   16.0023 O   0  0  0  0  0  0  0  0  0  0  0  0
   -3.2226  -14.2259   17.6567 O   0  0  0  0  0  0  0  0  0  0  0  0
   -7.3876  -14.4746   19.6907 S   0  0  0  0  0  0  0  0  0  0  0  0
   -4.6521  -16.9097   16.7642 P   0  0  2  0  0  0  0  0  0  0  0  0
   -3.0921  -15.5079   18.6182 P   0  0  2  0  0  0  0  0  0  0  0  0
  2 16  2  0  0  0  0
  2  3  1  0  0  0  0
  2 13  1  0  0  0  0
  3  8  2  0  0  0  0
  3  4  1  0  0  0  0
  4 14  1  0  0  0  0
  5  1  1  1  0  0  0
  5 14  1  0  0  0  0
  5 10  1  0  0  0  0
  6  7  1  0  0  0  0
  7 13  1  0  0  0  0
  7 15  2  0  0  0  0
  8 15  1  0  0  0  0
  9 14  1  0  0  0  0
  9 24  1  0  0  0  0
 10 24  1  0  0  0  0
 10 11  1  6  0  0  0
 11 12  1  0  0  0  0
 12 19  1  0  0  0  0
 17 25  1  0  0  0  0
 19 25  1  0  0  0  0
 20 26  1  0  0  0  0
 21 26  1  0  0  0  0
 22 25  2  0  0  0  0
 23 26  2  0  0  0  0
 25 20  1  1  0  0  0
 26 18  1  1  0  0  0
M  CHG  2  17  -1  21  -1
M  END
>  <CHROM.1>
-124.28409596,-98.68124709,-63.07955656,-161.51391284,-179.17900878,58.69940896
178.67191110,56.38399345,-5.79737038,-14.70322920,20.42853399,1.95156949
0.42667324,0.76015337

>  <Name>
ligand

>  <RI>
0

>  <Rbt.Current_Directory>
/home/itssahil/PROJECTS/Mol_Feturizer/New_Systems/rnas/3D2X

>  <Rbt.Executable>
rbdock ($Id: //depot/dev/client3/rdock/2013.1/src/exe/rbdock.cxx#4 $)

>  <Rbt.Library>
libRbt.so (2013.1, Build901 2013/11/27)

>  <Rbt.Parameter_File>
/export/apps/rDock/src/rDock_2013.1_src/data/scripts/dock_solv.prm

>  <Rbt.Receptor>
prm/pocket_docking_6.prm

>  <SCORE>
-13.2378

>  <SCORE.INTER>
-9.82492

>  <SCORE.INTER.CONST>
1

>  <SCORE.INTER.POLAR>
0

>  <SCORE.INTER.ROT>
8

>  <SCORE.INTER.SOLV>
10.5374

>  <SCORE.INTER.VDW>
-18.9957

>  <SCORE.INTER.norm>
-0.377882

>  <SCORE.INTRA>
-3.41288

>  <SCORE.INTRA.DIHEDRAL>
-2.77377

>  <SCORE.INTRA.DIHEDRAL.0>
7.88077

>  <SCORE.INTRA.POLAR>
0

>  <SCORE.INTRA.POLAR.0>
0

>  <SCORE.INTRA.REPUL>
0

>  <SCORE.INTRA.REPUL.0>
0

>  <SCORE.INTRA.SOLV>
-2.06732

>  <SCORE.INTRA.SOLV.lig_0>
-63.2542

>  <SCORE.INTRA.VDW>
-0.99234

>  <SCORE.INTRA.VDW.0>
-3.15072

>  <SCORE.INTRA.norm>
-0.131265

>  <SCORE.RESTR>
0

>  <SCORE.RESTR.CAVITY>
0

>  <SCORE.RESTR.norm>
0

>  <SCORE.SYSTEM>
0

>  <SCORE.SYSTEM.CONST>
0

>  <SCORE.SYSTEM.DIHEDRAL>
0

>  <SCORE.SYSTEM.SOLV>
0

>  <SCORE.SYSTEM.norm>
0

>  <SCORE.heavy>
26

>  <SCORE.norm>
-0.509146

>  <RMSD>
5.225

$$$$
ligand
 OpenBabel11021811473D
libRbt.so/2013.1/901 2013/11/27
 26 27  0  0  0  0  0  0  0  0999 V2000
   -5.9587  -15.1465   21.0411 C   0  0  0  0  0  0  0  0  0  0  0  0
  -10.6406  -16.3621   23.2047 C   0  0  0  0  0  0  0  0  0  0  0  0
   -9.3369  -16.3452   23.6890 C   0  0  0  0  0  0  0  0  0  0  0  0
   -8.1515  -15.7923   22.8941 C   0  0  0  0  0  0  0  0  0  0  0  0
   -7.0314  -16.1979   20.7421 C   0  0  1  0  0  0  0  0  0  0  0  0
  -12.4776  -17.8624   26.1892 C   0  0  0  0  0  0  0  0  0  0  0  0
  -11.3609  -17.3310   25.2893 C   0  0  0  0  0  0  0  0  0  0  0  0
   -9.1107  -16.8366   24.9707 C   0  0  0  0  0  0  0  0  0  0  0  0
   -8.8791  -17.4299   21.2437 C   0  0  0  0  0  0  0  0  0  0  0  0
   -7.0352  -16.9346   19.5637 C   0  0  2  0  0  0  0  0  0  0  0  0
   -6.0791  -16.9197   18.3682 C   0  0  0  0  0  0  0  0  0  0  0  0
   -5.8834  -18.3033   17.7441 C   0  0  0  0  0  0  0  0  0  0  0  0
  -11.6702  -16.8582   24.0071 N   0  0  0  0  0  0  0  0  0  0  0  0
   -8.0152  -16.4787   21.6013 N   0  0  0  0  0  0  0  0  0  0  0  0
  -10.0918  -17.3029   25.7208 N   0  0  0  0  0  0  0  0  0  0  0  0
  -10.8909  -15.9392   22.0758 O   0  0  0  0  0  0  0  0  0  0  0  0
   -3.0313  -18.1054   17.4538 O   0  5  0  0  0  0  0  0  0  0  0  0
   -3.5095  -20.9042   16.4417 O   0  0  0  0  0  0  0  0  0  0  0  0
   -5.3765  -18.2161   16.4087 O   0  0  0  0  0  0  0  0  0  0  0  0
   -3.2782  -18.7944   15.0138 O   0  0  0  0  0  0  0  0  0  0  0  0
   -5.1659  -20.4857   14.4991 O   0  5  0  0  0  0  0  0  0  0  0  0
   -3.7496  -16.3578   15.6899 O   0  0  0  0  0  0  0  0  0  0  0  0
   -2.7166  -21.0774   14.0102 O   0  0  0  0  0  0  0  0  0  0  0  0
   -8.4438  -17.9561   19.6392 S   0  0  0  0  0  0  0  0  0  0  0  0
   -3.8569  -17.7731   16.1128 P   0  0  2  0  0  0  0  0  0  0  0  0
   -3.7698  -20.3239   14.9631 P   0  0  2  0  0  0  0  0  0  0  0  0
  2 16  2  0  0  0  0
  2  3  1  0  0  0  0
  2 13  1  0  0  0  0
  3  8  2  0  0  0  0
  3  4  1  0  0  0  0
  4 14  1  0  0  0  0
  5  1  1  1  0  0  0
  5 14  1  0  0  0  0
  5 10  1  0  0  0  0
  6  7  1  0  0  0  0
  7 13  1  0  0  0  0
  7 15  2  0  0  0  0
  8 15  1  0  0  0  0
  9 14  1  0  0  0  0
  9 24  1  0  0  0  0
 10 24  1  0  0  0  0
 10 11  1  6  0  0  0
 11 12  1  0  0  0  0
 12 19  1  0  0  0  0
 17 25  1  0  0  0  0
 19 25  1  0  0  0  0
 20 26  1  0  0  0  0
 21 26  1  0  0  0  0
 22 25  2  0  0  0  0
 23 26  2  0  0  0  0
 25 20  1  6  0  0  0
 26 18  1  1  0  0  0
M  CHG  2  17  -1  21  -1
M  END
>  <CHROM.1>
-57.15793686,144.93364452,160.46957263,-178.15675087,71.83824938,79.97923873
23.55120118,-54.72347346,-6.77748605,-17.81172547,19.37087951,-2.50253193
-0.74018703,-2.58963619

>  <Name>
ligand

>  <RI>
0

>  <Rbt.Current_Directory>
/home/itssahil/PROJECTS/Mol_Feturizer/New_Systems/rnas/3D2X

>  <Rbt.Executable>
rbdock ($Id: //depot/dev/client3/rdock/2013.1/src/exe/rbdock.cxx#4 $)

>  <Rbt.Library>
libRbt.so (2013.1, Build901 2013/11/27)

>  <Rbt.Parameter_File>
/export/apps/rDock/src/rDock_2013.1_src/data/scripts/dock_solv.prm

>  <Rbt.Receptor>
prm/blind_docking_100.prm

>  <SCORE>
-15.2996

>  <SCORE.INTER>
-17.9655

>  <SCORE.INTER.CONST>
1

>  <SCORE.INTER.POLAR>
0

>  <SCORE.INTER.ROT>
8

>  <SCORE.INTER.SOLV>
15.9863

>  <SCORE.INTER.VDW>
-26.2391

>  <SCORE.INTER.norm>
-0.69098

>  <SCORE.INTRA>
2.12842

>  <SCORE.INTRA.DIHEDRAL>
1.82037

>  <SCORE.INTRA.DIHEDRAL.0>
7.88077

>  <SCORE.INTRA.POLAR>
0

>  <SCORE.INTRA.POLAR.0>
0

>  <SCORE.INTRA.REPUL>
0

>  <SCORE.INTRA.REPUL.0>
0

>  <SCORE.INTRA.SOLV>
-0.720113

>  <SCORE.INTRA.SOLV.lig_0>
-63.2542

>  <SCORE.INTRA.VDW>
1.5783

>  <SCORE.INTRA.VDW.0>
-3.15072

>  <SCORE.INTRA.norm>
0.0818624

>  <SCORE.RESTR>
0.53743

>  <SCORE.RESTR.CAVITY>
0.53743

>  <SCORE.RESTR.norm>
0.0206704

>  <SCORE.SYSTEM>
0

>  <SCORE.SYSTEM.CONST>
0

>  <SCORE.SYSTEM.DIHEDRAL>
0

>  <SCORE.SYSTEM.SOLV>
0

>  <SCORE.SYSTEM.norm>
0

>  <SCORE.heavy>
26

>  <SCORE.norm>
-0.588448

>  <RMSD>
5.586

$$$$
ligand
 OpenBabel11021811473D
libRbt.so/2013.1/901 2013/11/27
 26 27  0  0  0  0  0  0  0  0999 V2000
   -6.8339  -16.2214   24.8606 C   0  0  0  0  0  0  0  0  0  0  0  0
   -5.3970  -14.4189   28.0120 C   0  0  0  0  0  0  0  0  0  0  0  0
   -6.7064  -14.7910   27.7260 C   0  0  0  0  0  0  0  0  0  0  0  0
   -7.2002  -16.2387   27.7803 C   0  0  0  0  0  0  0  0  0  0  0  0
   -8.1908  -16.4367   25.5376 C   0  0  1  0  0  0  0  0  0  0  0  0
   -5.6361  -10.6372   27.5943 C   0  0  0  0  0  0  0  0  0  0  0  0
   -6.0087  -12.1201   27.6318 C   0  0  0  0  0  0  0  0  0  0  0  0
   -7.6125  -13.7881   27.3968 C   0  0  0  0  0  0  0  0  0  0  0  0
   -9.5583  -16.6664   27.3432 C   0  0  0  0  0  0  0  0  0  0  0  0
   -9.3542  -16.6513   24.8082 C   0  0  2  0  0  0  0  0  0  0  0  0
   -9.5905  -16.7345   23.2981 C   0  0  0  0  0  0  0  0  0  0  0  0
   -9.1639  -15.4652   22.5571 C   0  0  0  0  0  0  0  0  0  0  0  0
   -5.0356  -13.0708   27.9674 N   0  0  0  0  0  0  0  0  0  0  0  0
   -8.3324  -16.4462   26.8660 N   0  0  0  0  0  0  0  0  0  0  0  0
   -7.2600  -12.5165   27.3581 N   0  0  0  0  0  0  0  0  0  0  0  0
   -4.5582  -15.2703   28.3073 O   0  0  0  0  0  0  0  0  0  0  0  0
   -6.7808  -13.2281   22.7125 O   0  5  0  0  0  0  0  0  0  0  0  0
   -5.9167  -17.0603   20.0137 O   0  0  0  0  0  0  0  0  0  0  0  0
   -7.7927  -15.5230   22.1520 O   0  0  0  0  0  0  0  0  0  0  0  0
   -5.5921  -14.7412   21.0431 O   0  0  0  0  0  0  0  0  0  0  0  0
   -6.0285  -14.9628   18.5036 O   0  5  0  0  0  0  0  0  0  0  0  0
   -7.8280  -13.6515   20.3874 O   0  0  0  0  0  0  0  0  0  0  0  0
   -3.7920  -15.7166   19.5125 O   0  0  0  0  0  0  0  0  0  0  0  0
  -10.6362  -16.7945   25.9784 S   0  0  0  0  0  0  0  0  0  0  0  0
   -7.0537  -14.2498   21.4991 P   0  0  2  0  0  0  0  0  0  0  0  0
   -5.3843  -15.5771   19.6860 P   0  0  2  0  0  0  0  0  0  0  0  0
  2 16  2  0  0  0  0
  2  3  1  0  0  0  0
  2 13  1  0  0  0  0
  3  8  2  0  0  0  0
  3  4  1  0  0  0  0
  4 14  1  0  0  0  0
  5  1  1  1  0  0  0
  5 14  1  0  0  0  0
  5 10  1  0  0  0  0
  6  7  1  0  0  0  0
  7 13  1  0  0  0  0
  7 15  2  0  0  0  0
  8 15  1  0  0  0  0
  9 14  1  0  0  0  0
  9 24  1  0  0  0  0
 10 24  1  0  0  0  0
 10 11  1  6  0  0  0
 11 12  1  0  0  0  0
 12 19  1  0  0  0  0
 17 25  1  0  0  0  0
 19 25  1  0  0  0  0
 20 26  1  0  0  0  0
 21 26  1  0  0  0  0
 22 25  2  0  0  0  0
 23 26  2  0  0  0  0
 25 20  1  6  0  0  0
 26 18  1  1  0  0  0
M  CHG  2  17  -1  21  -1
M  END
>  <CHROM.1>
-152.74185955,-58.58765383,89.27327040,70.03331605,-173.15514566,-169.14578617
74.45204610,-75.04062885,-7.07634244,-15.02985595,24.04953773,1.75397427
0.66055485,1.36283849

>  <Name>
ligand

>  <RI>
0

>  <Rbt.Current_Directory>
/home/itssahil/PROJECTS/Mol_Feturizer/New_Systems/rnas/3D2X

>  <Rbt.Executable>
rbdock ($Id: //depot/dev/client3/rdock/2013.1/src/exe/rbdock.cxx#4 $)

>  <Rbt.Library>
libRbt.so (2013.1, Build901 2013/11/27)

>  <Rbt.Parameter_File>
/export/apps/rDock/src/rDock_2013.1_src/data/scripts/dock_solv.prm

>  <Rbt.Receptor>
prm/pocket_docking_7.prm

>  <SCORE>
-23.8934

>  <SCORE.INTER>
-22.7891

>  <SCORE.INTER.CONST>
1

>  <SCORE.INTER.POLAR>
0

>  <SCORE.INTER.ROT>
8

>  <SCORE.INTER.SOLV>
16.1263

>  <SCORE.INTER.VDW>
-29.5015

>  <SCORE.INTER.norm>
-0.876504

>  <SCORE.INTRA>
-1.10429

>  <SCORE.INTRA.DIHEDRAL>
0.251377

>  <SCORE.INTRA.DIHEDRAL.0>
7.88077

>  <SCORE.INTRA.POLAR>
0

>  <SCORE.INTRA.POLAR.0>
0

>  <SCORE.INTRA.REPUL>
0

>  <SCORE.INTRA.REPUL.0>
0

>  <SCORE.INTRA.SOLV>
-1.44861

>  <SCORE.INTRA.SOLV.lig_0>
-63.2542

>  <SCORE.INTRA.VDW>
-0.505675

>  <SCORE.INTRA.VDW.0>
-3.15072

>  <SCORE.INTRA.norm>
-0.0424727

>  <SCORE.RESTR>
0

>  <SCORE.RESTR.CAVITY>
0

>  <SCORE.RESTR.norm>
0

>  <SCORE.SYSTEM>
0

>  <SCORE.SYSTEM.CONST>
0

>  <SCORE.SYSTEM.DIHEDRAL>
0

>  <SCORE.SYSTEM.SOLV>
0

>  <SCORE.SYSTEM.norm>
0

>  <SCORE.heavy>
26

>  <SCORE.norm>
-0.918977

>  <RMSD>
5.652

$$$$
ligand
 OpenBabel11021811473D
libRbt.so/2013.1/901 2013/11/27
 26 27  0  0  0  0  0  0  0  0999 V2000
   -6.1243  -14.8935   21.3487 C   0  0  0  0  0  0  0  0  0  0  0  0
   -7.5696  -16.6485   24.0991 C   0  0  0  0  0  0  0  0  0  0  0  0
   -8.1044  -15.4265   23.7051 C   0  0  0  0  0  0  0  0  0  0  0  0
   -8.8574  -15.2232   22.3881 C   0  0  0  0  0  0  0  0  0  0  0  0
   -7.0930  -15.9672   20.8442 C   0  0  1  0  0  0  0  0  0  0  0  0
   -6.1347  -15.7198   27.5066 C   0  0  0  0  0  0  0  0  0  0  0  0
   -6.8255  -15.6188   26.1458 C   0  0  0  0  0  0  0  0  0  0  0  0
   -7.9634  -14.3442   24.5679 C   0  0  0  0  0  0  0  0  0  0  0  0
   -9.0747  -17.0878   20.8354 C   0  0  0  0  0  0  0  0  0  0  0  0
   -6.7376  -16.8765   19.8552 C   0  0  2  0  0  0  0  0  0  0  0  0
   -5.4295  -17.0559   19.0805 C   0  0  0  0  0  0  0  0  0  0  0  0
   -5.6126  -17.8288   17.7723 C   0  0  0  0  0  0  0  0  0  0  0  0
   -6.9219  -16.7550   25.3315 N   0  0  0  0  0  0  0  0  0  0  0  0
   -8.3281  -16.1019   21.3351 N   0  0  0  0  0  0  0  0  0  0  0  0
   -7.3495  -14.4564   25.7311 N   0  0  0  0  0  0  0  0  0  0  0  0
   -7.6678  -17.6352   23.3693 O   0  0  0  0  0  0  0  0  0  0  0  0
   -2.4030  -17.4900   17.7877 O   0  5  0  0  0  0  0  0  0  0  0  0
   -0.2874  -21.3219   16.5441 O   0  0  0  0  0  0  0  0  0  0  0  0
   -4.5944  -18.8183   17.5938 O   0  0  0  0  0  0  0  0  0  0  0  0
   -2.3551  -19.8379   16.8005 O   0  0  0  0  0  0  0  0  0  0  0  0
   -0.7970  -19.5180   14.7612 O   0  5  0  0  0  0  0  0  0  0  0  0
   -3.4517  -17.9312   15.4667 O   0  0  0  0  0  0  0  0  0  0  0  0
   -0.0240  -18.8361   17.1119 O   0  0  0  0  0  0  0  0  0  0  0  0
   -8.1479  -17.8593   19.5758 S   0  0  0  0  0  0  0  0  0  0  0  0
   -3.2216  -18.4834   16.8215 P   0  0  2  0  0  0  0  0  0  0  0  0
   -0.8644  -19.8593   16.1998 P   0  0  2  0  0  0  0  0  0  0  0  0
  2 16  2  0  0  0  0
  2  3  1  0  0  0  0
  2 13  1  0  0  0  0
  3  8  2  0  0  0  0
  3  4  1  0  0  0  0
  4 14  1  0  0  0  0
  5  1  1  1  0  0  0
  5 14  1  0  0  0  0
  5 10  1  0  0  0  0
  6  7  1  0  0  0  0
  7 13  1  0  0  0  0
  7 15  2  0  0  0  0
  8 15  1  0  0  0  0
  9 14  1  0  0  0  0
  9 24  1  0  0  0  0
 10 24  1  0  0  0  0
 10 11  1  6  0  0  0
 11 12  1  0  0  0  0
 12 19  1  0  0  0  0
 17 25  1  0  0  0  0
 19 25  1  0  0  0  0
 20 26  1  0  0  0  0
 21 26  1  0  0  0  0
 22 25  2  0  0  0  0
 23 26  2  0  0  0  0
 25 20  1  6  0  0  0
 26 18  1  1  0  0  0
M  CHG  2  17  -1  21  -1
M  END
>  <CHROM.1>
-32.35452051,-159.80128343,-135.27496810,-66.18920039,-90.66236277,-63.48126062
69.80934735,172.60065521,-5.12560167,-17.49675743,19.94813484,2.19709316
-0.25626248,1.32567077

>  <Name>
ligand

>  <RI>
0

>  <Rbt.Current_Directory>
/home/itssahil/PROJECTS/Mol_Feturizer/New_Systems/rnas/3D2X

>  <Rbt.Executable>
rbdock ($Id: //depot/dev/client3/rdock/2013.1/src/exe/rbdock.cxx#4 $)

>  <Rbt.Library>
libRbt.so (2013.1, Build901 2013/11/27)

>  <Rbt.Parameter_File>
/export/apps/rDock/src/rDock_2013.1_src/data/scripts/dock_solv.prm

>  <Rbt.Receptor>
prm/blind_docking_40.prm

>  <SCORE>
-10.4327

>  <SCORE.INTER>
-14.6562

>  <SCORE.INTER.CONST>
1

>  <SCORE.INTER.POLAR>
0

>  <SCORE.INTER.ROT>
8

>  <SCORE.INTER.SOLV>
17.9316

>  <SCORE.INTER.VDW>
-24.6814

>  <SCORE.INTER.norm>
-0.563701

>  <SCORE.INTRA>
3.77582

>  <SCORE.INTRA.DIHEDRAL>
5.35424

>  <SCORE.INTRA.DIHEDRAL.0>
7.88077

>  <SCORE.INTRA.POLAR>
0

>  <SCORE.INTRA.POLAR.0>
0

>  <SCORE.INTRA.REPUL>
0

>  <SCORE.INTRA.REPUL.0>
0

>  <SCORE.INTRA.SOLV>
1.98979

>  <SCORE.INTRA.SOLV.lig_0>
-63.2542

>  <SCORE.INTRA.VDW>
0.103805

>  <SCORE.INTRA.VDW.0>
-3.15072

>  <SCORE.INTRA.norm>
0.145224

>  <SCORE.RESTR>
0.447704

>  <SCORE.RESTR.CAVITY>
0.447704

>  <SCORE.RESTR.norm>
0.0172194

>  <SCORE.SYSTEM>
0

>  <SCORE.SYSTEM.CONST>
0

>  <SCORE.SYSTEM.DIHEDRAL>
0

>  <SCORE.SYSTEM.SOLV>
0

>  <SCORE.SYSTEM.norm>
0

>  <SCORE.heavy>
26

>  <SCORE.norm>
-0.401258

>  <RMSD>
5.806

$$$$
ligand
 OpenBabel11021811473D
libRbt.so/2013.1/901 2013/11/27
 26 27  0  0  0  0  0  0  0  0999 V2000
   -6.1982  -13.8289   21.4571 C   0  0  0  0  0  0  0  0  0  0  0  0
   -5.3844  -16.9465   18.8764 C   0  0  0  0  0  0  0  0  0  0  0  0
   -6.6780  -17.1790   19.3316 C   0  0  0  0  0  0  0  0  0  0  0  0
   -7.4226  -16.2276   20.2713 C   0  0  0  0  0  0  0  0  0  0  0  0
   -6.2741  -15.1786   22.1768 C   0  0  1  0  0  0  0  0  0  0  0  0
   -4.8822  -19.9746   16.6156 C   0  0  0  0  0  0  0  0  0  0  0  0
   -5.5126  -18.9806   17.5922 C   0  0  0  0  0  0  0  0  0  0  0  0
   -7.3297  -18.3251   18.8875 C   0  0  0  0  0  0  0  0  0  0  0  0
   -6.8694  -17.3692   22.3512 C   0  0  0  0  0  0  0  0  0  0  0  0
   -5.7719  -15.3607   23.4598 C   0  0  2  0  0  0  0  0  0  0  0  0
   -5.0870  -14.3821   24.4173 C   0  0  0  0  0  0  0  0  0  0  0  0
   -3.8380  -13.7344   23.8149 C   0  0  0  0  0  0  0  0  0  0  0  0
   -4.7876  -17.8518   17.9965 N   0  0  0  0  0  0  0  0  0  0  0  0
   -6.8401  -16.2535   21.6208 N   0  0  0  0  0  0  0  0  0  0  0  0
   -6.7560  -19.1739   18.0550 N   0  0  0  0  0  0  0  0  0  0  0  0
   -4.7660  -15.9467   19.2422 O   0  0  0  0  0  0  0  0  0  0  0  0
   -1.5518  -14.1543   21.5487 O   0  5  0  0  0  0  0  0  0  0  0  0
    0.2910  -11.9965   21.5107 O   0  0  0  0  0  0  0  0  0  0  0  0
   -2.7343  -14.6445   23.7771 O   0  0  0  0  0  0  0  0  0  0  0  0
   -1.0431  -12.6995   23.5770 O   0  0  0  0  0  0  0  0  0  0  0  0
   -2.1697  -11.2396   21.7637 O   0  5  0  0  0  0  0  0  0  0  0  0
   -0.2211  -15.1366   23.5351 O   0  0  0  0  0  0  0  0  0  0  0  0
   -0.3482  -10.2572   23.2820 O   0  0  0  0  0  0  0  0  0  0  0  0
   -6.0331  -17.0389   23.8452 S   0  0  0  0  0  0  0  0  0  0  0  0
   -1.3171  -14.2225   23.1395 P   0  0  2  0  0  0  0  0  0  0  0  0
   -0.9080  -11.5331   22.4794 P   0  0  2  0  0  0  0  0  0  0  0  0
  2 16  2  0  0  0  0
  2  3  1  0  0  0  0
  2 13  1  0  0  0  0
  3  8  2  0  0  0  0
  3  4  1  0  0  0  0
  4 14  1  0  0  0  0
  5  1  1  1  0  0  0
  5 14  1  0  0  0  0
  5 10  1  0  0  0  0
  6  7  1  0  0  0  0
  7 13  1  0  0  0  0
  7 15  2  0  0  0  0
  8 15  1  0  0  0  0
  9 14  1  0  0  0  0
  9 24  1  0  0  0  0
 10 24  1  0  0  0  0
 10 11  1  6  0  0  0
 11 12  1  0  0  0  0
 12 19  1  0  0  0  0
 17 25  1  0  0  0  0
 19 25  1  0  0  0  0
 20 26  1  0  0  0  0
 21 26  1  0  0  0  0
 22 25  2  0  0  0  0
 23 26  2  0  0  0  0
 25 20  1  1  0  0  0
 26 18  1  6  0  0  0
M  CHG  2  17  -1  21  -1
M  END
>  <CHROM.1>
-70.28435601,-56.97883251,-74.93356331,116.92364813,177.77811057,-5.91820186
-71.76773404,-57.32793013,-3.90893702,-15.11250135,21.61551795,2.37900530
-0.55981313,-2.04941705

>  <Name>
ligand

>  <RI>
0

>  <Rbt.Current_Directory>
/home/itssahil/PROJECTS/Mol_Feturizer/New_Systems/rnas/3D2X

>  <Rbt.Executable>
rbdock ($Id: //depot/dev/client3/rdock/2013.1/src/exe/rbdock.cxx#4 $)

>  <Rbt.Library>
libRbt.so (2013.1, Build901 2013/11/27)

>  <Rbt.Parameter_File>
/export/apps/rDock/src/rDock_2013.1_src/data/scripts/dock_solv.prm

>  <Rbt.Receptor>
prm/pocket_docking_7.prm

>  <SCORE>
-18.2769

>  <SCORE.INTER>
-17.8309

>  <SCORE.INTER.CONST>
1

>  <SCORE.INTER.POLAR>
0

>  <SCORE.INTER.ROT>
8

>  <SCORE.INTER.SOLV>
15.8622

>  <SCORE.INTER.VDW>
-26.108

>  <SCORE.INTER.norm>
-0.685804

>  <SCORE.INTRA>
-0.445941

>  <SCORE.INTRA.DIHEDRAL>
0.444595

>  <SCORE.INTRA.DIHEDRAL.0>
7.88077

>  <SCORE.INTRA.POLAR>
0

>  <SCORE.INTRA.POLAR.0>
0

>  <SCORE.INTRA.REPUL>
0.0220953

>  <SCORE.INTRA.REPUL.0>
0

>  <SCORE.INTRA.SOLV>
-0.396437

>  <SCORE.INTRA.SOLV.lig_0>
-63.2542

>  <SCORE.INTRA.VDW>
-0.580497

>  <SCORE.INTRA.VDW.0>
-3.15072

>  <SCORE.INTRA.norm>
-0.0171516

>  <SCORE.RESTR>
0

>  <SCORE.RESTR.CAVITY>
0

>  <SCORE.RESTR.norm>
0

>  <SCORE.SYSTEM>
0

>  <SCORE.SYSTEM.CONST>
0

>  <SCORE.SYSTEM.DIHEDRAL>
0

>  <SCORE.SYSTEM.SOLV>
0

>  <SCORE.SYSTEM.norm>
0

>  <SCORE.heavy>
26

>  <SCORE.norm>
-0.702956

>  <RMSD>
5.855

$$$$
ligand
 OpenBabel11021811473D
libRbt.so/2013.1/901 2013/11/27
 26 27  0  0  0  0  0  0  0  0999 V2000
   -8.9640  -18.0291   19.6659 C   0  0  0  0  0  0  0  0  0  0  0  0
   -8.6846  -15.1904   23.5024 C   0  0  0  0  0  0  0  0  0  0  0  0
   -9.5964  -15.8126   22.6560 C   0  0  0  0  0  0  0  0  0  0  0  0
   -9.6378  -15.5758   21.1445 C   0  0  0  0  0  0  0  0  0  0  0  0
   -7.9803  -16.8735   19.8720 C   0  0  1  0  0  0  0  0  0  0  0  0
   -9.6494  -16.7538   26.8427 C   0  0  0  0  0  0  0  0  0  0  0  0
   -9.6330  -16.4058   25.3535 C   0  0  0  0  0  0  0  0  0  0  0  0
  -10.4982  -16.7116   23.2164 C   0  0  0  0  0  0  0  0  0  0  0  0
   -7.3793  -14.8157   20.6384 C   0  0  0  0  0  0  0  0  0  0  0  0
   -6.6891  -16.9023   19.3588 C   0  0  2  0  0  0  0  0  0  0  0  0
   -5.9626  -17.9645   18.5298 C   0  0  0  0  0  0  0  0  0  0  0  0
   -4.6105  -17.4835   17.9978 C   0  0  0  0  0  0  0  0  0  0  0  0
   -8.6956  -15.4847   24.8673 N   0  0  0  0  0  0  0  0  0  0  0  0
   -8.3102  -15.7660   20.5425 N   0  0  0  0  0  0  0  0  0  0  0  0
  -10.4993  -16.9827   24.5083 N   0  0  0  0  0  0  0  0  0  0  0  0
   -7.8675  -14.3861   23.0539 O   0  0  0  0  0  0  0  0  0  0  0  0
   -3.8376  -18.5874   15.0636 O   0  5  0  0  0  0  0  0  0  0  0  0
   -0.5654  -21.5102   16.6171 O   0  0  0  0  0  0  0  0  0  0  0  0
   -3.7644  -18.5782   17.6325 O   0  0  0  0  0  0  0  0  0  0  0  0
   -2.9462  -20.6326   16.2933 O   0  0  0  0  0  0  0  0  0  0  0  0
   -1.0553  -19.8033   14.7359 O   0  5  0  0  0  0  0  0  0  0  0  0
   -5.4565  -20.0839   16.4131 O   0  0  0  0  0  0  0  0  0  0  0  0
   -1.1295  -19.0777   17.1969 O   0  0  0  0  0  0  0  0  0  0  0  0
   -5.9332  -15.4204   19.8744 S   0  0  0  0  0  0  0  0  0  0  0  0
   -4.0933  -19.5075   16.3592 P   0  0  2  0  0  0  0  0  0  0  0  0
   -1.4007  -20.2311   16.1100 P   0  0  2  0  0  0  0  0  0  0  0  0
  2 16  2  0  0  0  0
  2  3  1  0  0  0  0
  2 13  1  0  0  0  0
  3  8  2  0  0  0  0
  3  4  1  0  0  0  0
  4 14  1  0  0  0  0
  5  1  1  6  0  0  0
  5 14  1  0  0  0  0
  5 10  1  0  0  0  0
  6  7  1  0  0  0  0
  7 13  1  0  0  0  0
  7 15  2  0  0  0  0
  8 15  1  0  0  0  0
  9 14  1  0  0  0  0
  9 24  1  0  0  0  0
 10 24  1  0  0  0  0
 10 11  1  1  0  0  0
 11 12  1  0  0  0  0
 12 19  1  0  0  0  0
 17 25  1  0  0  0  0
 19 25  1  0  0  0  0
 20 26  1  0  0  0  0
 21 26  1  0  0  0  0
 22 25  2  0  0  0  0
 23 26  2  0  0  0  0
 25 20  1  6  0  0  0
 26 18  1  1  0  0  0
M  CHG  2  17  -1  21  -1
M  END
>  <CHROM.1>
51.73864093,171.12932263,160.29331568,102.30171860,69.24467171,51.29181196
69.94834141,160.08236965,-5.85630795,-17.69358530,19.46287978,2.48611551
-0.64549105,1.74580991

>  <Name>
ligand

>  <RI>
0

>  <Rbt.Current_Directory>
/home/itssahil/PROJECTS/Mol_Feturizer/New_Systems/rnas/3D2X

>  <Rbt.Executable>
rbdock ($Id: //depot/dev/client3/rdock/2013.1/src/exe/rbdock.cxx#4 $)

>  <Rbt.Library>
libRbt.so (2013.1, Build901 2013/11/27)

>  <Rbt.Parameter_File>
/export/apps/rDock/src/rDock_2013.1_src/data/scripts/dock_solv.prm

>  <Rbt.Receptor>
prm/blind_docking_60.prm

>  <SCORE>
-15.3737

>  <SCORE.INTER>
-18.6182

>  <SCORE.INTER.CONST>
1

>  <SCORE.INTER.POLAR>
0

>  <SCORE.INTER.ROT>
8

>  <SCORE.INTER.SOLV>
19.3423

>  <SCORE.INTER.VDW>
-27.7929

>  <SCORE.INTER.norm>
-0.716085

>  <SCORE.INTRA>
1.88152

>  <SCORE.INTRA.DIHEDRAL>
-1.02062

>  <SCORE.INTRA.DIHEDRAL.0>
7.88077

>  <SCORE.INTRA.POLAR>
0

>  <SCORE.INTRA.POLAR.0>
0

>  <SCORE.INTRA.REPUL>
0

>  <SCORE.INTRA.REPUL.0>
0

>  <SCORE.INTRA.SOLV>
1.59378

>  <SCORE.INTRA.SOLV.lig_0>
-63.2542

>  <SCORE.INTRA.VDW>
1.59494

>  <SCORE.INTRA.VDW.0>
-3.15072

>  <SCORE.INTRA.norm>
0.0723662

>  <SCORE.RESTR>
1.36304

>  <SCORE.RESTR.CAVITY>
1.36304

>  <SCORE.RESTR.norm>
0.0524247

>  <SCORE.SYSTEM>
0

>  <SCORE.SYSTEM.CONST>
0

>  <SCORE.SYSTEM.DIHEDRAL>
0

>  <SCORE.SYSTEM.SOLV>
0

>  <SCORE.SYSTEM.norm>
0

>  <SCORE.heavy>
26

>  <SCORE.norm>
-0.591295

>  <RMSD>
5.917

$$$$
ligand
 OpenBabel11021811473D
libRbt.so/2013.1/901 2013/11/27
 26 27  0  0  0  0  0  0  0  0999 V2000
   -6.8761  -16.6799   24.3840 C   0  0  0  0  0  0  0  0  0  0  0  0
   -8.9398  -15.0659   22.3286 C   0  0  0  0  0  0  0  0  0  0  0  0
   -8.7662  -16.4177   22.0508 C   0  0  0  0  0  0  0  0  0  0  0  0
   -9.2986  -17.5362   22.9497 C   0  0  0  0  0  0  0  0  0  0  0  0
   -8.2657  -16.7182   25.0268 C   0  0  1  0  0  0  0  0  0  0  0  0
   -7.2527  -13.5031   19.2881 C   0  0  0  0  0  0  0  0  0  0  0  0
   -7.7843  -14.5369   20.2821 C   0  0  0  0  0  0  0  0  0  0  0  0
   -8.0932  -16.7624   20.8830 C   0  0  0  0  0  0  0  0  0  0  0  0
  -10.5140  -17.0760   25.0103 C   0  0  0  0  0  0  0  0  0  0  0  0
   -8.4800  -16.3363   26.3457 C   0  0  2  0  0  0  0  0  0  0  0  0
   -7.5096  -15.8192   27.4108 C   0  0  0  0  0  0  0  0  0  0  0  0
   -7.0119  -14.4004   27.1253 C   0  0  0  0  0  0  0  0  0  0  0  0
   -8.4471  -14.1082   21.4398 N   0  0  0  0  0  0  0  0  0  0  0  0
   -9.3531  -17.1055   24.3542 N   0  0  0  0  0  0  0  0  0  0  0  0
   -7.6320  -15.8486   20.0495 N   0  0  0  0  0  0  0  0  0  0  0  0
   -9.5277  -14.7109   23.3504 O   0  0  0  0  0  0  0  0  0  0  0  0
   -3.9834  -13.6339   24.9978 O   0  5  0  0  0  0  0  0  0  0  0  0
   -8.5991  -12.2901   23.9576 O   0  0  0  0  0  0  0  0  0  0  0  0
   -6.2902  -14.3296   25.8918 O   0  0  0  0  0  0  0  0  0  0  0  0
   -6.0555  -12.3755   24.2154 O   0  0  0  0  0  0  0  0  0  0  0  0
   -7.4335  -10.7394   25.6690 O   0  5  0  0  0  0  0  0  0  0  0  0
   -5.2540  -12.0984   26.6439 O   0  0  0  0  0  0  0  0  0  0  0  0
   -7.1579  -10.3299   23.1501 O   0  0  0  0  0  0  0  0  0  0  0  0
  -10.1766  -16.5865   26.6496 S   0  0  0  0  0  0  0  0  0  0  0  0
   -5.3902  -13.0482   25.5157 P   0  0  2  0  0  0  0  0  0  0  0  0
   -7.3206  -11.3926   24.3458 P   0  0  2  0  0  0  0  0  0  0  0  0
  2 16  2  0  0  0  0
  2  3  1  0  0  0  0
  2 13  1  0  0  0  0
  3  8  2  0  0  0  0
  3  4  1  0  0  0  0
  4 14  1  0  0  0  0
  5  1  1  6  0  0  0
  5 14  1  0  0  0  0
  5 10  1  0  0  0  0
  6  7  1  0  0  0  0
  7 13  1  0  0  0  0
  7 15  2  0  0  0  0
  8 15  1  0  0  0  0
  9 14  1  0  0  0  0
  9 24  1  0  0  0  0
 10 24  1  0  0  0  0
 10 11  1  1  0  0  0
 11 12  1  0  0  0  0
 12 19  1  0  0  0  0
 17 25  1  0  0  0  0
 19 25  1  0  0  0  0
 20 26  1  0  0  0  0
 21 26  1  0  0  0  0
 22 25  2  0  0  0  0
 23 26  2  0  0  0  0
 25 20  1  6  0  0  0
 26 18  1  6  0  0  0
M  CHG  2  17  -1  21  -1
M  END
>  <CHROM.1>
-29.57083964,70.90133903,-61.53658713,-60.14949818,-166.27760027,-166.49150379
132.79421140,-100.73405246,-7.66758386,-14.36261476,24.21255576,2.98646566
-1.02699668,-1.39367194

>  <Name>
ligand

>  <RI>
0

>  <Rbt.Current_Directory>
/home/itssahil/PROJECTS/Mol_Feturizer/New_Systems/rnas/3D2X

>  <Rbt.Executable>
rbdock ($Id: //depot/dev/client3/rdock/2013.1/src/exe/rbdock.cxx#4 $)

>  <Rbt.Library>
libRbt.so (2013.1, Build901 2013/11/27)

>  <Rbt.Parameter_File>
/export/apps/rDock/src/rDock_2013.1_src/data/scripts/dock_solv.prm

>  <Rbt.Receptor>
prm/pocket_docking_6.prm

>  <SCORE>
-19.9386

>  <SCORE.INTER>
-20.0299

>  <SCORE.INTER.CONST>
1

>  <SCORE.INTER.POLAR>
0

>  <SCORE.INTER.ROT>
8

>  <SCORE.INTER.SOLV>
12.6785

>  <SCORE.INTER.VDW>
-26.5128

>  <SCORE.INTER.norm>
-0.770382

>  <SCORE.INTRA>
0.0912988

>  <SCORE.INTRA.DIHEDRAL>
1.92361

>  <SCORE.INTRA.DIHEDRAL.0>
7.88077

>  <SCORE.INTRA.POLAR>
0

>  <SCORE.INTRA.POLAR.0>
0

>  <SCORE.INTRA.REPUL>
0

>  <SCORE.INTRA.REPUL.0>
0

>  <SCORE.INTRA.SOLV>
-0.0961175

>  <SCORE.INTRA.SOLV.lig_0>
-63.2542

>  <SCORE.INTRA.VDW>
-0.822446

>  <SCORE.INTRA.VDW.0>
-3.15072

>  <SCORE.INTRA.norm>
0.00351149

>  <SCORE.RESTR>
0

>  <SCORE.RESTR.CAVITY>
0

>  <SCORE.RESTR.norm>
0

>  <SCORE.SYSTEM>
0

>  <SCORE.SYSTEM.CONST>
0

>  <SCORE.SYSTEM.DIHEDRAL>
0

>  <SCORE.SYSTEM.SOLV>
0

>  <SCORE.SYSTEM.norm>
0

>  <SCORE.heavy>
26

>  <SCORE.norm>
-0.76687

>  <RMSD>
6.027

$$$$
ligand
 OpenBabel11021811473D
libRbt.so/2013.1/901 2013/11/27
 26 27  0  0  0  0  0  0  0  0999 V2000
   -8.7798  -18.2904   19.4587 C   0  0  0  0  0  0  0  0  0  0  0  0
   -8.4095  -15.1664   23.9665 C   0  0  0  0  0  0  0  0  0  0  0  0
   -7.9943  -16.3390   23.3441 C   0  0  0  0  0  0  0  0  0  0  0  0
   -8.5208  -16.8007   21.9831 C   0  0  0  0  0  0  0  0  0  0  0  0
   -7.5505  -17.4508   19.8184 C   0  0  1  0  0  0  0  0  0  0  0  0
   -6.2617  -15.2457   27.1150 C   0  0  0  0  0  0  0  0  0  0  0  0
   -6.8910  -15.6358   25.7768 C   0  0  0  0  0  0  0  0  0  0  0  0
   -7.0346  -17.1142   23.9871 C   0  0  0  0  0  0  0  0  0  0  0  0
   -6.3491  -16.0614   21.1635 C   0  0  0  0  0  0  0  0  0  0  0  0
   -6.4643  -17.3265   18.9604 C   0  0  2  0  0  0  0  0  0  0  0  0
   -6.2125  -17.9135   17.5692 C   0  0  0  0  0  0  0  0  0  0  0  0
   -5.3189  -19.1556   17.5991 C   0  0  0  0  0  0  0  0  0  0  0  0
   -7.8568  -14.8029   25.1962 N   0  0  0  0  0  0  0  0  0  0  0  0
   -7.4571  -16.7778   20.9688 N   0  0  0  0  0  0  0  0  0  0  0  0
   -6.5184  -16.7606   25.1494 N   0  0  0  0  0  0  0  0  0  0  0  0
   -9.2576  -14.4475   23.4376 O   0  0  0  0  0  0  0  0  0  0  0  0
   -4.1722  -17.1213   15.2888 O   0  5  0  0  0  0  0  0  0  0  0  0
    0.1209  -19.8342   15.2215 O   0  0  0  0  0  0  0  0  0  0  0  0
   -3.9856  -18.8603   17.1719 O   0  0  0  0  0  0  0  0  0  0  0  0
   -2.0358  -18.4903   15.5150 O   0  0  0  0  0  0  0  0  0  0  0  0
   -0.6208  -19.1060   17.5905 O   0  5  0  0  0  0  0  0  0  0  0  0
   -4.1965  -19.6453   14.7313 O   0  0  0  0  0  0  0  0  0  0  0  0
   -1.9277  -20.9138   16.3209 O   0  0  0  0  0  0  0  0  0  0  0  0
   -5.3029  -16.3326   19.7951 S   0  0  0  0  0  0  0  0  0  0  0  0
   -3.6365  -18.6022   15.6211 P   0  0  2  0  0  0  0  0  0  0  0  0
   -1.0797  -19.5494   16.2551 P   0  0  2  0  0  0  0  0  0  0  0  0
  2 16  2  0  0  0  0
  2  3  1  0  0  0  0
  2 13  1  0  0  0  0
  3  8  2  0  0  0  0
  3  4  1  0  0  0  0
  4 14  1  0  0  0  0
  5  1  1  6  0  0  0
  5 14  1  0  0  0  0
  5 10  1  0  0  0  0
  6  7  1  0  0  0  0
  7 13  1  0  0  0  0
  7 15  2  0  0  0  0
  8 15  1  0  0  0  0
  9 14  1  0  0  0  0
  9 24  1  0  0  0  0
 10 24  1  0  0  0  0
 10 11  1  1  0  0  0
 11 12  1  0  0  0  0
 12 19  1  0  0  0  0
 17 25  1  0  0  0  0
 19 25  1  0  0  0  0
 20 26  1  0  0  0  0
 21 26  1  0  0  0  0
 22 25  2  0  0  0  0
 23 26  2  0  0  0  0
 25 20  1  6  0  0  0
 26 18  1  6  0  0  0
M  CHG  2  17  -1  21  -1
M  END
>  <CHROM.1>
113.75166464,-99.63450661,-103.59331216,161.89481110,-74.17150067,158.02934823
75.75133922,140.33958875,-5.12876321,-17.60682675,19.44794198,2.12935996
-0.23269049,1.31477251

>  <Name>
ligand

>  <RI>
0

>  <Rbt.Current_Directory>
/home/itssahil/PROJECTS/Mol_Feturizer/New_Systems/rnas/3D2X

>  <Rbt.Executable>
rbdock ($Id: //depot/dev/client3/rdock/2013.1/src/exe/rbdock.cxx#4 $)

>  <Rbt.Library>
libRbt.so (2013.1, Build901 2013/11/27)

>  <Rbt.Parameter_File>
/export/apps/rDock/src/rDock_2013.1_src/data/scripts/dock_solv.prm

>  <Rbt.Receptor>
prm/blind_docking_60.prm

>  <SCORE>
-7.36613

>  <SCORE.INTER>
-10.2795

>  <SCORE.INTER.CONST>
1

>  <SCORE.INTER.POLAR>
0

>  <SCORE.INTER.ROT>
8

>  <SCORE.INTER.SOLV>
16.0526

>  <SCORE.INTER.VDW>
-21.1372

>  <SCORE.INTER.norm>
-0.395367

>  <SCORE.INTRA>
2.751

>  <SCORE.INTRA.DIHEDRAL>
4.79218

>  <SCORE.INTRA.DIHEDRAL.0>
7.88077

>  <SCORE.INTRA.POLAR>
0

>  <SCORE.INTRA.POLAR.0>
0

>  <SCORE.INTRA.REPUL>
0

>  <SCORE.INTRA.REPUL.0>
0

>  <SCORE.INTRA.SOLV>
0.424483

>  <SCORE.INTRA.SOLV.lig_0>
-63.2542

>  <SCORE.INTRA.VDW>
0.142671

>  <SCORE.INTRA.VDW.0>
-3.15072

>  <SCORE.INTRA.norm>
0.105808

>  <SCORE.RESTR>
0.162407

>  <SCORE.RESTR.CAVITY>
0.162407

>  <SCORE.RESTR.norm>
0.00624643

>  <SCORE.SYSTEM>
0

>  <SCORE.SYSTEM.CONST>
0

>  <SCORE.SYSTEM.DIHEDRAL>
0

>  <SCORE.SYSTEM.SOLV>
0

>  <SCORE.SYSTEM.norm>
0

>  <SCORE.heavy>
26

>  <SCORE.norm>
-0.283313

>  <RMSD>
6.056

$$$$
ligand
 OpenBabel11021811473D
libRbt.so/2013.1/901 2013/11/27
 26 27  0  0  0  0  0  0  0  0999 V2000
   -4.4804  -12.3171   18.2863 C   0  0  0  0  0  0  0  0  0  0  0  0
   -7.0235  -12.9552   20.8487 C   0  0  0  0  0  0  0  0  0  0  0  0
   -7.3948  -13.3540   19.5689 C   0  0  0  0  0  0  0  0  0  0  0  0
   -7.4205  -12.4067   18.3670 C   0  0  0  0  0  0  0  0  0  0  0  0
   -5.3505  -11.1043   18.6295 C   0  0  1  0  0  0  0  0  0  0  0  0
   -7.3162  -16.2604   22.7255 C   0  0  0  0  0  0  0  0  0  0  0  0
   -7.3532  -15.2177   21.6072 C   0  0  0  0  0  0  0  0  0  0  0  0
   -7.7369  -14.6885   19.3751 C   0  0  0  0  0  0  0  0  0  0  0  0
   -7.3390  -10.0412   18.9437 C   0  0  0  0  0  0  0  0  0  0  0  0
   -4.8023   -9.8607   18.9199 C   0  0  2  0  0  0  0  0  0  0  0  0
   -3.3456   -9.3927   18.9672 C   0  0  0  0  0  0  0  0  0  0  0  0
   -2.8116   -9.2492   20.3943 C   0  0  0  0  0  0  0  0  0  0  0  0
   -6.9991  -13.8908   21.8850 N   0  0  0  0  0  0  0  0  0  0  0  0
   -6.6847  -11.1670   18.6546 N   0  0  0  0  0  0  0  0  0  0  0  0
   -7.7099  -15.5647   20.3622 N   0  0  0  0  0  0  0  0  0  0  0  0
   -6.7134  -11.7845   21.0704 O   0  0  0  0  0  0  0  0  0  0  0  0
   -1.8269   -8.1698   22.8426 O   0  5  0  0  0  0  0  0  0  0  0  0
   -1.6307  -10.5016   24.1931 O   0  0  0  0  0  0  0  0  0  0  0  0
   -1.4262   -8.8913   20.4088 O   0  0  0  0  0  0  0  0  0  0  0  0
    0.0028   -9.8665   22.3299 O   0  0  0  0  0  0  0  0  0  0  0  0
   -1.8369  -11.6256   21.8723 O   0  5  0  0  0  0  0  0  0  0  0  0
    0.3130   -7.4188   21.6022 O   0  0  0  0  0  0  0  0  0  0  0  0
    0.1423  -12.1791   23.4100 O   0  0  0  0  0  0  0  0  0  0  0  0
   -6.1465   -8.8168   19.2897 S   0  0  0  0  0  0  0  0  0  0  0  0
   -0.6689   -8.5134   21.7788 P   0  0  2  0  0  0  0  0  0  0  0  0
   -0.9009  -11.0769   22.8789 P   0  0  2  0  0  0  0  0  0  0  0  0
  2 16  2  0  0  0  0
  2  3  1  0  0  0  0
  2 13  1  0  0  0  0
  3  8  2  0  0  0  0
  3  4  1  0  0  0  0
  4 14  1  0  0  0  0
  5  1  1  6  0  0  0
  5 14  1  0  0  0  0
  5 10  1  0  0  0  0
  6  7  1  0  0  0  0
  7 13  1  0  0  0  0
  7 15  2  0  0  0  0
  8 15  1  0  0  0  0
  9 14  1  0  0  0  0
  9 24  1  0  0  0  0
 10 24  1  0  0  0  0
 10 11  1  1  0  0  0
 11 12  1  0  0  0  0
 12 19  1  0  0  0  0
 17 25  1  0  0  0  0
 19 25  1  0  0  0  0
 20 26  1  0  0  0  0
 21 26  1  0  0  0  0
 22 25  2  0  0  0  0
 23 26  2  0  0  0  0
 25 20  1  1  0  0  0
 26 18  1  1  0  0  0
M  CHG  2  17  -1  21  -1
M  END
>  <CHROM.1>
14.92074949,-103.39293538,176.39537777,77.84821357,172.82939959,43.56579103
-18.02175067,-65.17015749,-4.01015601,-11.08430385,20.89430956,2.85050200
0.54789548,2.55526242

>  <Name>
ligand

>  <RI>
0

>  <Rbt.Current_Directory>
/home/itssahil/PROJECTS/Mol_Feturizer/New_Systems/rnas/3D2X

>  <Rbt.Executable>
rbdock ($Id: //depot/dev/client3/rdock/2013.1/src/exe/rbdock.cxx#4 $)

>  <Rbt.Library>
libRbt.so (2013.1, Build901 2013/11/27)

>  <Rbt.Parameter_File>
/export/apps/rDock/src/rDock_2013.1_src/data/scripts/dock_solv.prm

>  <Rbt.Receptor>
prm/pocket_docking_7.prm

>  <SCORE>
-9.32952

>  <SCORE.INTER>
-9.21417

>  <SCORE.INTER.CONST>
1

>  <SCORE.INTER.POLAR>
0

>  <SCORE.INTER.ROT>
8

>  <SCORE.INTER.SOLV>
7.79313

>  <SCORE.INTER.VDW>
-17.6738

>  <SCORE.INTER.norm>
-0.354391

>  <SCORE.INTRA>
-0.115359

>  <SCORE.INTRA.DIHEDRAL>
-0.583307

>  <SCORE.INTRA.DIHEDRAL.0>
7.88077

>  <SCORE.INTRA.POLAR>
0

>  <SCORE.INTRA.POLAR.0>
0

>  <SCORE.INTRA.REPUL>
0

>  <SCORE.INTRA.REPUL.0>
0

>  <SCORE.INTRA.SOLV>
0.366667

>  <SCORE.INTRA.SOLV.lig_0>
-63.2542

>  <SCORE.INTRA.VDW>
-0.00703903

>  <SCORE.INTRA.VDW.0>
-3.15072

>  <SCORE.INTRA.norm>
-0.00443689

>  <SCORE.RESTR>
0

>  <SCORE.RESTR.CAVITY>
0

>  <SCORE.RESTR.norm>
0

>  <SCORE.SYSTEM>
0

>  <SCORE.SYSTEM.CONST>
0

>  <SCORE.SYSTEM.DIHEDRAL>
0

>  <SCORE.SYSTEM.SOLV>
0

>  <SCORE.SYSTEM.norm>
0

>  <SCORE.heavy>
26

>  <SCORE.norm>
-0.358828

>  <RMSD>
6.252

$$$$
ligand
 OpenBabel11021811473D
libRbt.so/2013.1/901 2013/11/27
 26 27  0  0  0  0  0  0  0  0999 V2000
   -5.0201  -14.1021   25.1760 C   0  0  0  0  0  0  0  0  0  0  0  0
   -7.5880  -11.3821   25.7603 C   0  0  0  0  0  0  0  0  0  0  0  0
   -7.0985  -11.5587   27.0502 C   0  0  0  0  0  0  0  0  0  0  0  0
   -6.2860  -12.7821   27.4812 C   0  0  0  0  0  0  0  0  0  0  0  0
   -6.2871  -14.6288   25.8565 C   0  0  1  0  0  0  0  0  0  0  0  0
   -9.2566   -7.9718   26.1047 C   0  0  0  0  0  0  0  0  0  0  0  0
   -8.4981   -9.2573   26.4386 C   0  0  0  0  0  0  0  0  0  0  0  0
   -7.3447  -10.5574   27.9841 C   0  0  0  0  0  0  0  0  0  0  0  0
   -7.9304  -14.5788   27.4313 C   0  0  0  0  0  0  0  0  0  0  0  0
   -6.9267  -15.7870   25.4311 C   0  0  2  0  0  0  0  0  0  0  0  0
   -6.5885  -16.7625   24.3009 C   0  0  0  0  0  0  0  0  0  0  0  0
   -6.8036  -16.1612   22.9101 C   0  0  0  0  0  0  0  0  0  0  0  0
   -8.2962  -10.2215   25.4421 N   0  0  0  0  0  0  0  0  0  0  0  0
   -6.8414  -14.0156   26.9060 N   0  0  0  0  0  0  0  0  0  0  0  0
   -8.0151   -9.4639   27.6721 N   0  0  0  0  0  0  0  0  0  0  0  0
   -7.3969  -12.2408   24.8989 O   0  0  0  0  0  0  0  0  0  0  0  0
   -6.1576  -15.0453   20.2432 O   0  5  0  0  0  0  0  0  0  0  0  0
   -3.7278  -18.0587   17.6082 O   0  0  0  0  0  0  0  0  0  0  0  0
   -6.3118  -17.0220   21.8782 O   0  0  0  0  0  0  0  0  0  0  0  0
   -5.1904  -17.3025   19.5658 O   0  0  0  0  0  0  0  0  0  0  0  0
   -6.2978  -18.3132   17.4585 O   0  5  0  0  0  0  0  0  0  0  0  0
   -7.7417  -17.0248   19.7398 O   0  0  0  0  0  0  0  0  0  0  0  0
   -5.2180  -15.9861   17.3747 O   0  0  0  0  0  0  0  0  0  0  0  0
   -8.3256  -15.9670   26.4528 S   0  0  0  0  0  0  0  0  0  0  0  0
   -6.4391  -16.6280   20.3220 P   0  0  2  0  0  0  0  0  0  0  0  0
   -5.1859  -17.4800   17.9683 P   0  0  2  0  0  0  0  0  0  0  0  0
  2 16  2  0  0  0  0
  2  3  1  0  0  0  0
  2 13  1  0  0  0  0
  3  8  2  0  0  0  0
  3  4  1  0  0  0  0
  4 14  1  0  0  0  0
  5  1  1  1  0  0  0
  5 14  1  0  0  0  0
  5 10  1  0  0  0  0
  6  7  1  0  0  0  0
  7 13  1  0  0  0  0
  7 15  2  0  0  0  0
  8 15  1  0  0  0  0
  9 14  1  0  0  0  0
  9 24  1  0  0  0  0
 10 24  1  0  0  0  0
 10 11  1  6  0  0  0
 11 12  1  0  0  0  0
 12 19  1  0  0  0  0
 17 25  1  0  0  0  0
 19 25  1  0  0  0  0
 20 26  1  0  0  0  0
 21 26  1  0  0  0  0
 22 25  2  0  0  0  0
 23 26  2  0  0  0  0
 25 20  1  6  0  0  0
 26 18  1  6  0  0  0
M  CHG  2  17  -1  21  -1
M  END
>  <CHROM.1>
-41.13698859,-69.83163494,172.10222353,102.68919393,179.05011645,-85.05897191
38.76308511,174.96294435,-6.73704424,-14.66548555,23.19386572,-3.06715820
1.35582222,-0.70339496

>  <Name>
ligand

>  <RI>
0

>  <Rbt.Current_Directory>
/home/itssahil/PROJECTS/Mol_Feturizer/New_Systems/rnas/3D2X

>  <Rbt.Executable>
rbdock ($Id: //depot/dev/client3/rdock/2013.1/src/exe/rbdock.cxx#4 $)

>  <Rbt.Library>
libRbt.so (2013.1, Build901 2013/11/27)

>  <Rbt.Parameter_File>
/export/apps/rDock/src/rDock_2013.1_src/data/scripts/dock_solv.prm

>  <Rbt.Receptor>
prm/pocket_docking_8.prm

>  <SCORE>
-17.6795

>  <SCORE.INTER>
-17.1845

>  <SCORE.INTER.CONST>
1

>  <SCORE.INTER.POLAR>
0

>  <SCORE.INTER.ROT>
8

>  <SCORE.INTER.SOLV>
17.2417

>  <SCORE.INTER.VDW>
-26.1369

>  <SCORE.INTER.norm>
-0.660941

>  <SCORE.INTRA>
-0.495023

>  <SCORE.INTRA.DIHEDRAL>
-1.47651

>  <SCORE.INTRA.DIHEDRAL.0>
7.88077

>  <SCORE.INTRA.POLAR>
0

>  <SCORE.INTRA.POLAR.0>
0

>  <SCORE.INTRA.REPUL>
0

>  <SCORE.INTRA.REPUL.0>
0

>  <SCORE.INTRA.SOLV>
1.05972

>  <SCORE.INTRA.SOLV.lig_0>
-63.2542

>  <SCORE.INTRA.VDW>
-0.286631

>  <SCORE.INTRA.VDW.0>
-3.15072

>  <SCORE.INTRA.norm>
-0.0190393

>  <SCORE.RESTR>
0

>  <SCORE.RESTR.CAVITY>
0

>  <SCORE.RESTR.norm>
0

>  <SCORE.SYSTEM>
0

>  <SCORE.SYSTEM.CONST>
0

>  <SCORE.SYSTEM.DIHEDRAL>
0

>  <SCORE.SYSTEM.SOLV>
0

>  <SCORE.SYSTEM.norm>
0

>  <SCORE.heavy>
26

>  <SCORE.norm>
-0.679981

>  <RMSD>
6.264

$$$$
ligand
 OpenBabel11021811473D
libRbt.so/2013.1/901 2013/11/27
 26 27  0  0  0  0  0  0  0  0999 V2000
   -1.6526  -15.9313   18.1653 C   0  0  0  0  0  0  0  0  0  0  0  0
   -6.1910  -18.4566   18.1749 C   0  0  0  0  0  0  0  0  0  0  0  0
   -5.1134  -17.5800   18.2467 C   0  0  0  0  0  0  0  0  0  0  0  0
   -3.8529  -17.7251   17.3907 C   0  0  0  0  0  0  0  0  0  0  0  0
   -2.5852  -15.6573   16.9817 C   0  0  1  0  0  0  0  0  0  0  0  0
   -8.5625  -16.8596   20.6965 C   0  0  0  0  0  0  0  0  0  0  0  0
   -7.3316  -17.1280   19.8294 C   0  0  0  0  0  0  0  0  0  0  0  0
   -5.2031  -16.5066   19.1271 C   0  0  0  0  0  0  0  0  0  0  0  0
   -4.3081  -16.1593   15.5807 C   0  0  0  0  0  0  0  0  0  0  0  0
   -2.4464  -14.5327   16.1771 C   0  0  2  0  0  0  0  0  0  0  0  0
   -1.4375  -13.3824   16.2261 C   0  0  0  0  0  0  0  0  0  0  0  0
   -2.0215  -12.1026   16.8289 C   0  0  0  0  0  0  0  0  0  0  0  0
   -7.3167  -18.2354   18.9710 N   0  0  0  0  0  0  0  0  0  0  0  0
   -3.5747  -16.4893   16.6448 N   0  0  0  0  0  0  0  0  0  0  0  0
   -6.2726  -16.3069   19.8748 N   0  0  0  0  0  0  0  0  0  0  0  0
   -6.1583  -19.4221   17.4118 O   0  0  0  0  0  0  0  0  0  0  0  0
   -2.1434   -9.9221   19.0341 O   0  5  0  0  0  0  0  0  0  0  0  0
   -6.4601   -9.1813   17.4633 O   0  0  0  0  0  0  0  0  0  0  0  0
   -2.4976  -12.3134   18.1618 O   0  0  0  0  0  0  0  0  0  0  0  0
   -4.4195  -10.5853   18.1021 O   0  0  0  0  0  0  0  0  0  0  0  0
   -6.0480   -9.7847   19.9449 O   0  5  0  0  0  0  0  0  0  0  0  0
   -3.6389  -11.5732   20.3451 O   0  0  0  0  0  0  0  0  0  0  0  0
   -4.5140   -8.1129   18.7448 O   0  0  0  0  0  0  0  0  0  0  0  0
   -3.7349  -14.6151   15.0083 S   0  0  0  0  0  0  0  0  0  0  0  0
   -3.2031  -11.1330   18.9999 P   0  0  2  0  0  0  0  0  0  0  0  0
   -5.4093   -9.4453   18.6536 P   0  0  2  0  0  0  0  0  0  0  0  0
  2 16  2  0  0  0  0
  2  3  1  0  0  0  0
  2 13  1  0  0  0  0
  3  8  2  0  0  0  0
  3  4  1  0  0  0  0
  4 14  1  0  0  0  0
  5  1  1  6  0  0  0
  5 14  1  0  0  0  0
  5 10  1  0  0  0  0
  6  7  1  0  0  0  0
  7 13  1  0  0  0  0
  7 15  2  0  0  0  0
  8 15  1  0  0  0  0
  9 14  1  0  0  0  0
  9 24  1  0  0  0  0
 10 24  1  0  0  0  0
 10 11  1  1  0  0  0
 11 12  1  0  0  0  0
 12 19  1  0  0  0  0
 17 25  1  0  0  0  0
 19 25  1  0  0  0  0
 20 26  1  0  0  0  0
 21 26  1  0  0  0  0
 22 25  2  0  0  0  0
 23 26  2  0  0  0  0
 25 20  1  6  0  0  0
 26 18  1  6  0  0  0
M  CHG  2  17  -1  21  -1
M  END
>  <CHROM.1>
125.47928266,-102.89445314,58.69287335,106.00052263,-177.96678613,-71.25543834
-56.43468381,179.59704396,-4.41551744,-13.72426539,18.07154496,-1.78004837
0.61896443,0.19684220

>  <Name>
ligand

>  <RI>
0

>  <Rbt.Current_Directory>
/home/itssahil/PROJECTS/Mol_Feturizer/New_Systems/rnas/3D2X

>  <Rbt.Executable>
rbdock ($Id: //depot/dev/client3/rdock/2013.1/src/exe/rbdock.cxx#4 $)

>  <Rbt.Library>
libRbt.so (2013.1, Build901 2013/11/27)

>  <Rbt.Parameter_File>
/export/apps/rDock/src/rDock_2013.1_src/data/scripts/dock_solv.prm

>  <Rbt.Receptor>
prm/pocket_docking_7.prm

>  <SCORE>
-15.5696

>  <SCORE.INTER>
-13.4371

>  <SCORE.INTER.CONST>
1

>  <SCORE.INTER.POLAR>
0

>  <SCORE.INTER.ROT>
8

>  <SCORE.INTER.SOLV>
11.2491

>  <SCORE.INTER.VDW>
-21.6411

>  <SCORE.INTER.norm>
-0.516811

>  <SCORE.INTRA>
-2.13255

>  <SCORE.INTRA.DIHEDRAL>
-2.64965

>  <SCORE.INTRA.DIHEDRAL.0>
7.88077

>  <SCORE.INTRA.POLAR>
0

>  <SCORE.INTRA.POLAR.0>
0

>  <SCORE.INTRA.REPUL>
0

>  <SCORE.INTRA.REPUL.0>
0

>  <SCORE.INTRA.SOLV>
0.185598

>  <SCORE.INTRA.SOLV.lig_0>
-63.2542

>  <SCORE.INTRA.VDW>
-0.900525

>  <SCORE.INTRA.VDW.0>
-3.15072

>  <SCORE.INTRA.norm>
-0.0820213

>  <SCORE.RESTR>
0

>  <SCORE.RESTR.CAVITY>
0

>  <SCORE.RESTR.norm>
0

>  <SCORE.SYSTEM>
0

>  <SCORE.SYSTEM.CONST>
0

>  <SCORE.SYSTEM.DIHEDRAL>
0

>  <SCORE.SYSTEM.SOLV>
0

>  <SCORE.SYSTEM.norm>
0

>  <SCORE.heavy>
26

>  <SCORE.norm>
-0.598833

>  <RMSD>
6.376

$$$$
ligand
 OpenBabel11021811473D
libRbt.so/2013.1/901 2013/11/27
 26 27  0  0  0  0  0  0  0  0999 V2000
   -6.9295  -17.1733   22.6115 C   0  0  0  0  0  0  0  0  0  0  0  0
   -6.8542  -19.0317   18.1618 C   0  0  0  0  0  0  0  0  0  0  0  0
   -6.7548  -17.8850   18.9427 C   0  0  0  0  0  0  0  0  0  0  0  0
   -7.8878  -17.3754   19.8367 C   0  0  0  0  0  0  0  0  0  0  0  0
   -7.1149  -15.9608   21.6945 C   0  0  1  0  0  0  0  0  0  0  0  0
   -3.3715  -19.1302   16.6147 C   0  0  0  0  0  0  0  0  0  0  0  0
   -4.5843  -18.6852   17.4333 C   0  0  0  0  0  0  0  0  0  0  0  0
   -5.5533  -17.1839   18.9222 C   0  0  0  0  0  0  0  0  0  0  0  0
   -7.6468  -14.9539   19.7232 C   0  0  0  0  0  0  0  0  0  0  0  0
   -6.8293  -14.6670   22.1142 C   0  0  2  0  0  0  0  0  0  0  0  0
   -6.3011  -14.1394   23.4506 C   0  0  0  0  0  0  0  0  0  0  0  0
   -4.7745  -14.0377   23.4899 C   0  0  0  0  0  0  0  0  0  0  0  0
   -5.7618  -19.4439   17.3960 N   0  0  0  0  0  0  0  0  0  0  0  0
   -7.5462  -16.0770   20.4355 N   0  0  0  0  0  0  0  0  0  0  0  0
   -4.5267  -17.5831   18.1947 N   0  0  0  0  0  0  0  0  0  0  0  0
   -7.8974  -19.6853   18.1457 O   0  0  0  0  0  0  0  0  0  0  0  0
   -2.3903  -11.7218   23.0135 O   0  5  0  0  0  0  0  0  0  0  0  0
    0.2449  -14.5745   21.6366 O   0  0  0  0  0  0  0  0  0  0  0  0
   -4.2588  -13.3541   22.3435 O   0  0  0  0  0  0  0  0  0  0  0  0
   -1.9069  -14.2226   22.9743 O   0  0  0  0  0  0  0  0  0  0  0  0
    0.2382  -12.9427   23.6440 O   0  5  0  0  0  0  0  0  0  0  0  0
   -2.2713  -12.9738   20.7552 O   0  0  0  0  0  0  0  0  0  0  0  0
    0.0565  -15.4738   24.0297 O   0  0  0  0  0  0  0  0  0  0  0  0
   -7.2296  -13.6274   20.7754 S   0  0  0  0  0  0  0  0  0  0  0  0
   -2.6838  -13.0637   22.1748 P   0  0  2  0  0  0  0  0  0  0  0  0
   -0.3050  -14.2094   23.1046 P   0  0  2  0  0  0  0  0  0  0  0  0
  2 16  2  0  0  0  0
  2  3  1  0  0  0  0
  2 13  1  0  0  0  0
  3  8  2  0  0  0  0
  3  4  1  0  0  0  0
  4 14  1  0  0  0  0
  5  1  1  6  0  0  0
  5 14  1  0  0  0  0
  5 10  1  0  0  0  0
  6  7  1  0  0  0  0
  7 13  1  0  0  0  0
  7 15  2  0  0  0  0
  8 15  1  0  0  0  0
  9 14  1  0  0  0  0
  9 24  1  0  0  0  0
 10 24  1  0  0  0  0
 10 11  1  1  0  0  0
 11 12  1  0  0  0  0
 12 19  1  0  0  0  0
 17 25  1  0  0  0  0
 19 25  1  0  0  0  0
 20 26  1  0  0  0  0
 21 26  1  0  0  0  0
 22 25  2  0  0  0  0
 23 26  2  0  0  0  0
 25 20  1  1  0  0  0
 26 18  1  6  0  0  0
M  CHG  2  17  -1  21  -1
M  END
>  <CHROM.1>
-174.31326450,91.59458521,49.56455907,-100.79770179,177.52215465,-64.11376676
-83.22787252,-71.54756952,-4.35579820,-15.39810254,21.05817142,2.29114931
0.04032924,-2.41545059

>  <Name>
ligand

>  <RI>
0

>  <Rbt.Current_Directory>
/home/itssahil/PROJECTS/Mol_Feturizer/New_Systems/rnas/3D2X

>  <Rbt.Executable>
rbdock ($Id: //depot/dev/client3/rdock/2013.1/src/exe/rbdock.cxx#4 $)

>  <Rbt.Library>
libRbt.so (2013.1, Build901 2013/11/27)

>  <Rbt.Parameter_File>
/export/apps/rDock/src/rDock_2013.1_src/data/scripts/dock_solv.prm

>  <Rbt.Receptor>
prm/pocket_docking_8.prm

>  <SCORE>
-18.884

>  <SCORE.INTER>
-17.0927

>  <SCORE.INTER.CONST>
1

>  <SCORE.INTER.POLAR>
0

>  <SCORE.INTER.ROT>
8

>  <SCORE.INTER.SOLV>
19.1339

>  <SCORE.INTER.VDW>
-26.7064

>  <SCORE.INTER.norm>
-0.657411

>  <SCORE.INTRA>
-1.79127

>  <SCORE.INTRA.DIHEDRAL>
-1.36331

>  <SCORE.INTRA.DIHEDRAL.0>
7.88077

>  <SCORE.INTRA.POLAR>
0

>  <SCORE.INTRA.POLAR.0>
0

>  <SCORE.INTRA.REPUL>
0

>  <SCORE.INTRA.REPUL.0>
0

>  <SCORE.INTRA.SOLV>
-1.47323

>  <SCORE.INTRA.SOLV.lig_0>
-63.2542

>  <SCORE.INTRA.VDW>
-0.372998

>  <SCORE.INTRA.VDW.0>
-3.15072

>  <SCORE.INTRA.norm>
-0.0688949

>  <SCORE.RESTR>
0

>  <SCORE.RESTR.CAVITY>
0

>  <SCORE.RESTR.norm>
0

>  <SCORE.SYSTEM>
0

>  <SCORE.SYSTEM.CONST>
0

>  <SCORE.SYSTEM.DIHEDRAL>
0

>  <SCORE.SYSTEM.SOLV>
0

>  <SCORE.SYSTEM.norm>
0

>  <SCORE.heavy>
26

>  <SCORE.norm>
-0.726306

>  <RMSD>
6.427

$$$$
ligand
 OpenBabel11021811473D
libRbt.so/2013.1/901 2013/11/27
 26 27  0  0  0  0  0  0  0  0999 V2000
   -8.4378  -14.3003   22.5425 C   0  0  0  0  0  0  0  0  0  0  0  0
   -5.6831  -16.4365   19.5730 C   0  0  0  0  0  0  0  0  0  0  0  0
   -6.9187  -17.0547   19.7339 C   0  0  0  0  0  0  0  0  0  0  0  0
   -7.9821  -16.5652   20.7199 C   0  0  0  0  0  0  0  0  0  0  0  0
   -7.6612  -15.5587   22.9412 C   0  0  1  0  0  0  0  0  0  0  0  0
   -4.1759  -18.5905   16.8124 C   0  0  0  0  0  0  0  0  0  0  0  0
   -5.1445  -18.0456   17.8630 C   0  0  0  0  0  0  0  0  0  0  0  0
   -7.2037  -18.1599   18.9383 C   0  0  0  0  0  0  0  0  0  0  0  0
   -6.7996  -17.6319   22.5634 C   0  0  0  0  0  0  0  0  0  0  0  0
   -7.1210  -15.7216   24.2112 C   0  0  2  0  0  0  0  0  0  0  0  0
   -7.1482  -14.8064   25.4380 C   0  0  0  0  0  0  0  0  0  0  0  0
   -6.1216  -13.6741   25.3599 C   0  0  0  0  0  0  0  0  0  0  0  0
   -4.7803  -16.9304   18.6292 N   0  0  0  0  0  0  0  0  0  0  0  0
   -7.4713  -16.5777   22.0983 N   0  0  0  0  0  0  0  0  0  0  0  0
   -6.3427  -18.6180   18.0487 N   0  0  0  0  0  0  0  0  0  0  0  0
   -5.3842  -15.4560   20.2549 O   0  0  0  0  0  0  0  0  0  0  0  0
   -5.2265  -11.1054   23.5648 O   0  5  0  0  0  0  0  0  0  0  0  0
   -8.7617  -11.2713   23.9073 O   0  0  0  0  0  0  0  0  0  0  0  0
   -6.7491  -12.4006   25.1800 O   0  0  0  0  0  0  0  0  0  0  0  0
   -6.9312   -9.8309   24.9644 O   0  0  0  0  0  0  0  0  0  0  0  0
   -9.0780   -8.7083   24.0591 O   0  5  0  0  0  0  0  0  0  0  0  0
   -4.8908  -10.8897   26.1187 O   0  0  0  0  0  0  0  0  0  0  0  0
   -7.3503   -9.7084   22.4457 O   0  0  0  0  0  0  0  0  0  0  0  0
   -6.3000  -17.2575   24.1916 S   0  0  0  0  0  0  0  0  0  0  0  0
   -5.8847  -11.0499   25.0325 P   0  0  2  0  0  0  0  0  0  0  0  0
   -8.1022   -9.8038   23.8638 P   0  0  2  0  0  0  0  0  0  0  0  0
  2 16  2  0  0  0  0
  2  3  1  0  0  0  0
  2 13  1  0  0  0  0
  3  8  2  0  0  0  0
  3  4  1  0  0  0  0
  4 14  1  0  0  0  0
  5  1  1  1  0  0  0
  5 14  1  0  0  0  0
  5 10  1  0  0  0  0
  6  7  1  0  0  0  0
  7 13  1  0  0  0  0
  7 15  2  0  0  0  0
  8 15  1  0  0  0  0
  9 14  1  0  0  0  0
  9 24  1  0  0  0  0
 10 24  1  0  0  0  0
 10 11  1  6  0  0  0
 11 12  1  0  0  0  0
 12 19  1  0  0  0  0
 17 25  1  0  0  0  0
 19 25  1  0  0  0  0
 20 26  1  0  0  0  0
 21 26  1  0  0  0  0
 22 25  2  0  0  0  0
 23 26  2  0  0  0  0
 25 20  1  1  0  0  0
 26 18  1  1  0  0  0
M  CHG  2  17  -1  21  -1
M  END
>  <CHROM.1>
-59.62173744,-79.40812503,110.15279381,134.92500207,-178.52301855,56.54589757
73.08495907,47.11217453,-6.69174331,-14.06339321,22.62346143,-0.19828241
-1.43719782,1.99664017

>  <Name>
ligand

>  <RI>
0

>  <Rbt.Current_Directory>
/home/itssahil/PROJECTS/Mol_Feturizer/New_Systems/rnas/3D2X

>  <Rbt.Executable>
rbdock ($Id: //depot/dev/client3/rdock/2013.1/src/exe/rbdock.cxx#4 $)

>  <Rbt.Library>
libRbt.so (2013.1, Build901 2013/11/27)

>  <Rbt.Parameter_File>
/export/apps/rDock/src/rDock_2013.1_src/data/scripts/dock_solv.prm

>  <Rbt.Receptor>
prm/pocket_docking_7.prm

>  <SCORE>
-14.4209

>  <SCORE.INTER>
-13.8169

>  <SCORE.INTER.CONST>
1

>  <SCORE.INTER.POLAR>
0

>  <SCORE.INTER.ROT>
8

>  <SCORE.INTER.SOLV>
12.9547

>  <SCORE.INTER.VDW>
-22.4628

>  <SCORE.INTER.norm>
-0.531419

>  <SCORE.INTRA>
-0.604029

>  <SCORE.INTRA.DIHEDRAL>
2.21258

>  <SCORE.INTRA.DIHEDRAL.0>
7.88077

>  <SCORE.INTRA.POLAR>
0

>  <SCORE.INTRA.POLAR.0>
0

>  <SCORE.INTRA.REPUL>
0

>  <SCORE.INTRA.REPUL.0>
0

>  <SCORE.INTRA.SOLV>
-1.37592

>  <SCORE.INTRA.SOLV.lig_0>
-63.2542

>  <SCORE.INTRA.VDW>
-1.02235

>  <SCORE.INTRA.VDW.0>
-3.15072

>  <SCORE.INTRA.norm>
-0.0232319

>  <SCORE.RESTR>
0

>  <SCORE.RESTR.CAVITY>
0

>  <SCORE.RESTR.norm>
0

>  <SCORE.SYSTEM>
0

>  <SCORE.SYSTEM.CONST>
0

>  <SCORE.SYSTEM.DIHEDRAL>
0

>  <SCORE.SYSTEM.SOLV>
0

>  <SCORE.SYSTEM.norm>
0

>  <SCORE.heavy>
26

>  <SCORE.norm>
-0.554651

>  <RMSD>
6.525

$$$$
ligand
 OpenBabel11021811473D
libRbt.so/2013.1/901 2013/11/27
 26 27  0  0  0  0  0  0  0  0999 V2000
   -7.6982  -11.6179   18.0267 C   0  0  0  0  0  0  0  0  0  0  0  0
   -7.0899  -11.0669   22.4142 C   0  0  0  0  0  0  0  0  0  0  0  0
   -6.4682  -10.8366   21.1914 C   0  0  0  0  0  0  0  0  0  0  0  0
   -6.9415   -9.7767   20.1938 C   0  0  0  0  0  0  0  0  0  0  0  0
   -6.4922  -10.6770   17.9492 C   0  0  1  0  0  0  0  0  0  0  0  0
   -4.8513  -13.8068   23.8335 C   0  0  0  0  0  0  0  0  0  0  0  0
   -5.4389  -12.7550   22.8914 C   0  0  0  0  0  0  0  0  0  0  0  0
   -5.3464  -11.5967   20.8766 C   0  0  0  0  0  0  0  0  0  0  0  0
   -5.1128   -9.0550   18.7550 C   0  0  0  0  0  0  0  0  0  0  0  0
   -5.6692  -10.6219   16.8308 C   0  0  2  0  0  0  0  0  0  0  0  0
   -5.7251  -11.3860   15.5054 C   0  0  0  0  0  0  0  0  0  0  0  0
   -4.8609  -12.6490   15.5086 C   0  0  0  0  0  0  0  0  0  0  0  0
   -6.5760  -12.0344   23.2800 N   0  0  0  0  0  0  0  0  0  0  0  0
   -6.1707   -9.8450   18.9438 N   0  0  0  0  0  0  0  0  0  0  0  0
   -4.8688  -12.5086   21.7031 N   0  0  0  0  0  0  0  0  0  0  0  0
   -8.0866  -10.4204   22.7373 O   0  0  0  0  0  0  0  0  0  0  0  0
   -3.2962  -15.0673   16.7687 O   0  5  0  0  0  0  0  0  0  0  0  0
   -3.8758  -15.6025   19.4449 O   0  0  0  0  0  0  0  0  0  0  0  0
   -5.4096  -13.6650   16.3538 O   0  0  0  0  0  0  0  0  0  0  0  0
   -5.5541  -15.9541   17.5466 O   0  0  0  0  0  0  0  0  0  0  0  0
   -5.9379  -14.0519   19.2562 O   0  5  0  0  0  0  0  0  0  0  0  0
   -5.0443  -15.8390   15.0280 O   0  0  0  0  0  0  0  0  0  0  0  0
   -6.2204  -16.5064   19.9519 O   0  0  0  0  0  0  0  0  0  0  0  0
   -4.4230   -9.4649   17.2068 S   0  0  0  0  0  0  0  0  0  0  0  0
   -4.8426  -15.1722   16.3349 P   0  0  2  0  0  0  0  0  0  0  0  0
   -5.4289  -15.4277   19.0601 P   0  0  2  0  0  0  0  0  0  0  0  0
  2 16  2  0  0  0  0
  2  3  1  0  0  0  0
  2 13  1  0  0  0  0
  3  8  2  0  0  0  0
  3  4  1  0  0  0  0
  4 14  1  0  0  0  0
  5  1  1  6  0  0  0
  5 14  1  0  0  0  0
  5 10  1  0  0  0  0
  6  7  1  0  0  0  0
  7 13  1  0  0  0  0
  7 15  2  0  0  0  0
  8 15  1  0  0  0  0
  9 14  1  0  0  0  0
  9 24  1  0  0  0  0
 10 24  1  0  0  0  0
 10 11  1  1  0  0  0
 11 12  1  0  0  0  0
 12 19  1  0  0  0  0
 17 25  1  0  0  0  0
 19 25  1  0  0  0  0
 20 26  1  0  0  0  0
 21 26  1  0  0  0  0
 22 25  2  0  0  0  0
 23 26  2  0  0  0  0
 25 20  1  1  0  0  0
 26 18  1  1  0  0  0
M  CHG  2  17  -1  21  -1
M  END
>  <CHROM.1>
-174.83007865,-93.69012368,70.36820644,85.31287320,169.06412781,54.53286488
60.91012757,-66.41894587,-5.55826622,-12.80957165,18.88585167,3.04626430
-1.34389178,2.41736000

>  <Name>
ligand

>  <RI>
0

>  <Rbt.Current_Directory>
/home/itssahil/PROJECTS/Mol_Feturizer/New_Systems/rnas/3D2X

>  <Rbt.Executable>
rbdock ($Id: //depot/dev/client3/rdock/2013.1/src/exe/rbdock.cxx#4 $)

>  <Rbt.Library>
libRbt.so (2013.1, Build901 2013/11/27)

>  <Rbt.Parameter_File>
/export/apps/rDock/src/rDock_2013.1_src/data/scripts/dock_solv.prm

>  <Rbt.Receptor>
prm/pocket_docking_7.prm

>  <SCORE>
-12.4865

>  <SCORE.INTER>
-9.52062

>  <SCORE.INTER.CONST>
1

>  <SCORE.INTER.POLAR>
0

>  <SCORE.INTER.ROT>
8

>  <SCORE.INTER.SOLV>
9.2791

>  <SCORE.INTER.VDW>
-18.3734

>  <SCORE.INTER.norm>
-0.366178

>  <SCORE.INTRA>
-2.96587

>  <SCORE.INTRA.DIHEDRAL>
-1.95989

>  <SCORE.INTRA.DIHEDRAL.0>
7.88077

>  <SCORE.INTRA.POLAR>
0

>  <SCORE.INTRA.POLAR.0>
0

>  <SCORE.INTRA.REPUL>
0

>  <SCORE.INTRA.REPUL.0>
0

>  <SCORE.INTRA.SOLV>
0.339502

>  <SCORE.INTRA.SOLV.lig_0>
-63.2542

>  <SCORE.INTRA.VDW>
-2.15568

>  <SCORE.INTRA.VDW.0>
-3.15072

>  <SCORE.INTRA.norm>
-0.114072

>  <SCORE.RESTR>
0

>  <SCORE.RESTR.CAVITY>
0

>  <SCORE.RESTR.norm>
0

>  <SCORE.SYSTEM>
0

>  <SCORE.SYSTEM.CONST>
0

>  <SCORE.SYSTEM.DIHEDRAL>
0

>  <SCORE.SYSTEM.SOLV>
0

>  <SCORE.SYSTEM.norm>
0

>  <SCORE.heavy>
26

>  <SCORE.norm>
-0.48025

>  <RMSD>
6.581

$$$$
ligand
 OpenBabel11021811473D
libRbt.so/2013.1/901 2013/11/27
 26 27  0  0  0  0  0  0  0  0999 V2000
   -6.9750  -15.4082   23.0226 C   0  0  0  0  0  0  0  0  0  0  0  0
   -3.7732  -11.6040   23.7499 C   0  0  0  0  0  0  0  0  0  0  0  0
   -4.5282  -12.6333   23.1973 C   0  0  0  0  0  0  0  0  0  0  0  0
   -6.0573  -12.6146   23.1348 C   0  0  0  0  0  0  0  0  0  0  0  0
   -6.9589  -14.4779   21.8061 C   0  0  1  0  0  0  0  0  0  0  0  0
   -0.2463  -12.9146   23.1366 C   0  0  0  0  0  0  0  0  0  0  0  0
   -1.7720  -12.8139   23.1714 C   0  0  0  0  0  0  0  0  0  0  0  0
   -3.8507  -13.7209   22.6557 C   0  0  0  0  0  0  0  0  0  0  0  0
   -6.5957  -12.4875   20.7623 C   0  0  0  0  0  0  0  0  0  0  0  0
   -7.3921  -14.8937   20.5528 C   0  0  2  0  0  0  0  0  0  0  0  0
   -7.9530  -16.2373   20.0799 C   0  0  0  0  0  0  0  0  0  0  0  0
   -6.8936  -17.1293   19.4285 C   0  0  0  0  0  0  0  0  0  0  0  0
   -2.3793  -11.6867   23.7406 N   0  0  0  0  0  0  0  0  0  0  0  0
   -6.5430  -13.2106   21.8818 N   0  0  0  0  0  0  0  0  0  0  0  0
   -2.5323  -13.7884   22.6518 N   0  0  0  0  0  0  0  0  0  0  0  0
   -4.3271  -10.6210   24.2426 O   0  0  0  0  0  0  0  0  0  0  0  0
   -6.0204  -18.9939   17.3736 O   0  5  0  0  0  0  0  0  0  0  0  0
   -6.4768  -15.5878   13.6518 O   0  0  0  0  0  0  0  0  0  0  0  0
   -6.4401  -16.5910   18.1826 O   0  0  0  0  0  0  0  0  0  0  0  0
   -6.0587  -17.0951   15.6758 O   0  0  0  0  0  0  0  0  0  0  0  0
   -5.3889  -14.5993   15.7806 O   0  5  0  0  0  0  0  0  0  0  0  0
   -4.1037  -17.2599   17.3394 O   0  0  0  0  0  0  0  0  0  0  0  0
   -4.0831  -16.2382   14.2984 O   0  0  0  0  0  0  0  0  0  0  0  0
   -7.1503  -13.5384   19.4860 S   0  0  0  0  0  0  0  0  0  0  0  0
   -5.5589  -17.4671   17.1583 P   0  0  2  0  0  0  0  0  0  0  0  0
   -5.5003  -15.7943   14.9146 P   0  0  2  0  0  0  0  0  0  0  0  0
  2 16  2  0  0  0  0
  2  3  1  0  0  0  0
  2 13  1  0  0  0  0
  3  8  2  0  0  0  0
  3  4  1  0  0  0  0
  4 14  1  0  0  0  0
  5  1  1  1  0  0  0
  5 14  1  0  0  0  0
  5 10  1  0  0  0  0
  6  7  1  0  0  0  0
  7 13  1  0  0  0  0
  7 15  2  0  0  0  0
  8 15  1  0  0  0  0
  9 14  1  0  0  0  0
  9 24  1  0  0  0  0
 10 24  1  0  0  0  0
 10 11  1  6  0  0  0
 11 12  1  0  0  0  0
 12 19  1  0  0  0  0
 17 25  1  0  0  0  0
 19 25  1  0  0  0  0
 20 26  1  0  0  0  0
 21 26  1  0  0  0  0
 22 25  2  0  0  0  0
 23 26  2  0  0  0  0
 25 20  1  6  0  0  0
 26 18  1  6  0  0  0
M  CHG  2  17  -1  21  -1
M  END
>  <CHROM.1>
142.70850857,-97.20375372,-67.90769243,97.95208014,-167.43626682,-164.85148300
30.37030569,-167.00367870,-5.32825301,-14.80364706,19.52220927,1.35230525
0.25158404,1.12116992

>  <Name>
ligand

>  <RI>
0

>  <Rbt.Current_Directory>
/home/itssahil/PROJECTS/Mol_Feturizer/New_Systems/rnas/3D2X

>  <Rbt.Executable>
rbdock ($Id: //depot/dev/client3/rdock/2013.1/src/exe/rbdock.cxx#4 $)

>  <Rbt.Library>
libRbt.so (2013.1, Build901 2013/11/27)

>  <Rbt.Parameter_File>
/export/apps/rDock/src/rDock_2013.1_src/data/scripts/dock_solv.prm

>  <Rbt.Receptor>
prm/pocket_docking_7.prm

>  <SCORE>
-15.554

>  <SCORE.INTER>
-14.785

>  <SCORE.INTER.CONST>
1

>  <SCORE.INTER.POLAR>
0

>  <SCORE.INTER.ROT>
8

>  <SCORE.INTER.SOLV>
13.5125

>  <SCORE.INTER.VDW>
-23.2942

>  <SCORE.INTER.norm>
-0.568654

>  <SCORE.INTRA>
-0.768973

>  <SCORE.INTRA.DIHEDRAL>
0.574731

>  <SCORE.INTRA.DIHEDRAL.0>
7.88077

>  <SCORE.INTRA.POLAR>
0

>  <SCORE.INTRA.POLAR.0>
0

>  <SCORE.INTRA.REPUL>
0

>  <SCORE.INTRA.REPUL.0>
0

>  <SCORE.INTRA.SOLV>
-0.839299

>  <SCORE.INTRA.SOLV.lig_0>
-63.2542

>  <SCORE.INTRA.VDW>
-0.636688

>  <SCORE.INTRA.VDW.0>
-3.15072

>  <SCORE.INTRA.norm>
-0.0295759

>  <SCORE.RESTR>
0

>  <SCORE.RESTR.CAVITY>
0

>  <SCORE.RESTR.norm>
0

>  <SCORE.SYSTEM>
0

>  <SCORE.SYSTEM.CONST>
0

>  <SCORE.SYSTEM.DIHEDRAL>
0

>  <SCORE.SYSTEM.SOLV>
0

>  <SCORE.SYSTEM.norm>
0

>  <SCORE.heavy>
26

>  <SCORE.norm>
-0.59823

>  <RMSD>
6.586

$$$$
ligand
 OpenBabel11021811473D
libRbt.so/2013.1/901 2013/11/27
 26 27  0  0  0  0  0  0  0  0999 V2000
   -1.2595  -16.6648   17.8795 C   0  0  0  0  0  0  0  0  0  0  0  0
   -6.1949  -18.6215   18.0388 C   0  0  0  0  0  0  0  0  0  0  0  0
   -5.1526  -17.7026   18.1017 C   0  0  0  0  0  0  0  0  0  0  0  0
   -3.8985  -17.7922   17.2289 C   0  0  0  0  0  0  0  0  0  0  0  0
   -2.3035  -15.9299   17.0336 C   0  0  1  0  0  0  0  0  0  0  0  0
   -8.5959  -17.1345   20.5994 C   0  0  0  0  0  0  0  0  0  0  0  0
   -7.3665  -17.3485   19.7151 C   0  0  0  0  0  0  0  0  0  0  0  0
   -5.2741  -16.6381   18.9892 C   0  0  0  0  0  0  0  0  0  0  0  0
   -4.3135  -15.7414   15.9811 C   0  0  0  0  0  0  0  0  0  0  0  0
   -2.0672  -14.6683   16.5009 C   0  0  2  0  0  0  0  0  0  0  0  0
   -0.8397  -13.7575   16.5854 C   0  0  0  0  0  0  0  0  0  0  0  0
   -0.2774  -13.6449   18.0044 C   0  0  0  0  0  0  0  0  0  0  0  0
   -7.3181  -18.4501   18.8504 N   0  0  0  0  0  0  0  0  0  0  0  0
   -3.4939  -16.4640   16.7460 N   0  0  0  0  0  0  0  0  0  0  0  0
   -6.3410  -16.4856   19.7515 N   0  0  0  0  0  0  0  0  0  0  0  0
   -6.1332  -19.5811   17.2699 O   0  0  0  0  0  0  0  0  0  0  0  0
   -2.2201  -12.1824   19.9737 O   0  5  0  0  0  0  0  0  0  0  0  0
    1.0935  -11.1796   20.4665 O   0  0  0  0  0  0  0  0  0  0  0  0
   -0.1708  -12.2817   18.4261 O   0  0  0  0  0  0  0  0  0  0  0  0
   -0.9533  -10.0371   19.4424 O   0  0  0  0  0  0  0  0  0  0  0  0
    0.5449   -8.7315   21.0976 O   0  5  0  0  0  0  0  0  0  0  0  0
   -2.3390  -11.1732   17.5970 O   0  0  0  0  0  0  0  0  0  0  0  0
   -0.9473  -10.6494   21.9243 O   0  0  0  0  0  0  0  0  0  0  0  0
   -3.5280  -14.2166   15.6670 S   0  0  0  0  0  0  0  0  0  0  0  0
   -1.4752  -11.4050   18.7774 P   0  0  2  0  0  0  0  0  0  0  0  0
   -0.0216  -10.0545   20.7520 P   0  0  2  0  0  0  0  0  0  0  0  0
  2 16  2  0  0  0  0
  2  3  1  0  0  0  0
  2 13  1  0  0  0  0
  3  8  2  0  0  0  0
  3  4  1  0  0  0  0
  4 14  1  0  0  0  0
  5  1  1  6  0  0  0
  5 14  1  0  0  0  0
  5 10  1  0  0  0  0
  6  7  1  0  0  0  0
  7 13  1  0  0  0  0
  7 15  2  0  0  0  0
  8 15  1  0  0  0  0
  9 14  1  0  0  0  0
  9 24  1  0  0  0  0
 10 24  1  0  0  0  0
 10 11  1  1  0  0  0
 11 12  1  0  0  0  0
 12 19  1  0  0  0  0
 17 25  1  0  0  0  0
 19 25  1  0  0  0  0
 20 26  1  0  0  0  0
 21 26  1  0  0  0  0
 22 25  2  0  0  0  0
 23 26  2  0  0  0  0
 25 20  1  1  0  0  0
 26 18  1  6  0  0  0
M  CHG  2  17  -1  21  -1
M  END
>  <CHROM.1>
139.25557660,-46.21385792,-125.63993749,119.76404992,71.67315745,55.16008509
59.28784326,45.43531192,-2.82848385,-14.07872923,18.56047636,-2.47394857
0.68253131,0.92359159

>  <Name>
ligand

>  <RI>
0

>  <Rbt.Current_Directory>
/home/itssahil/PROJECTS/Mol_Feturizer/New_Systems/rnas/3D2X

>  <Rbt.Executable>
rbdock ($Id: //depot/dev/client3/rdock/2013.1/src/exe/rbdock.cxx#4 $)

>  <Rbt.Library>
libRbt.so (2013.1, Build901 2013/11/27)

>  <Rbt.Parameter_File>
/export/apps/rDock/src/rDock_2013.1_src/data/scripts/dock_solv.prm

>  <Rbt.Receptor>
prm/pocket_docking_8.prm

>  <SCORE>
-12.7369

>  <SCORE.INTER>
-14.0954

>  <SCORE.INTER.CONST>
1

>  <SCORE.INTER.POLAR>
0

>  <SCORE.INTER.ROT>
8

>  <SCORE.INTER.SOLV>
12.364

>  <SCORE.INTER.VDW>
-22.4516

>  <SCORE.INTER.norm>
-0.54213

>  <SCORE.INTRA>
1.35851

>  <SCORE.INTRA.DIHEDRAL>
3.14897

>  <SCORE.INTRA.DIHEDRAL.0>
7.88077

>  <SCORE.INTRA.POLAR>
0

>  <SCORE.INTRA.POLAR.0>
0

>  <SCORE.INTRA.REPUL>
0

>  <SCORE.INTRA.REPUL.0>
0

>  <SCORE.INTRA.SOLV>
-0.412501

>  <SCORE.INTRA.SOLV.lig_0>
-63.2542

>  <SCORE.INTRA.VDW>
-0.00972392

>  <SCORE.INTRA.VDW.0>
-3.15072

>  <SCORE.INTRA.norm>
0.0522504

>  <SCORE.RESTR>
0

>  <SCORE.RESTR.CAVITY>
0

>  <SCORE.RESTR.norm>
0

>  <SCORE.SYSTEM>
0

>  <SCORE.SYSTEM.CONST>
0

>  <SCORE.SYSTEM.DIHEDRAL>
0

>  <SCORE.SYSTEM.SOLV>
0

>  <SCORE.SYSTEM.norm>
0

>  <SCORE.heavy>
26

>  <SCORE.norm>
-0.489879

>  <RMSD>
6.639

$$$$
ligand
 OpenBabel11021811473D
libRbt.so/2013.1/901 2013/11/27
 26 27  0  0  0  0  0  0  0  0999 V2000
   -7.7853  -11.3559   18.2450 C   0  0  0  0  0  0  0  0  0  0  0  0
   -6.1930  -10.1567   22.7431 C   0  0  0  0  0  0  0  0  0  0  0  0
   -6.7231  -10.5315   21.5130 C   0  0  0  0  0  0  0  0  0  0  0  0
   -7.2815   -9.5312   20.4979 C   0  0  0  0  0  0  0  0  0  0  0  0
   -6.6615  -10.3153   18.2505 C   0  0  1  0  0  0  0  0  0  0  0  0
   -5.1315  -13.5524   24.1126 C   0  0  0  0  0  0  0  0  0  0  0  0
   -5.7075  -12.4726   23.1953 C   0  0  0  0  0  0  0  0  0  0  0  0
   -6.7213  -11.8839   21.1865 C   0  0  0  0  0  0  0  0  0  0  0  0
   -5.4609   -8.6114   19.1660 C   0  0  0  0  0  0  0  0  0  0  0  0
   -5.7990  -10.1543   17.1728 C   0  0  2  0  0  0  0  0  0  0  0  0
   -5.7329  -10.8756   15.8242 C   0  0  0  0  0  0  0  0  0  0  0  0
   -5.8431  -12.3964   15.9556 C   0  0  0  0  0  0  0  0  0  0  0  0
   -5.6769  -11.1313   23.5997 N   0  0  0  0  0  0  0  0  0  0  0  0
   -6.4549   -9.4931   19.2829 N   0  0  0  0  0  0  0  0  0  0  0  0
   -6.2302  -12.7967   22.0039 N   0  0  0  0  0  0  0  0  0  0  0  0
   -6.1735   -8.9721   23.0776 O   0  0  0  0  0  0  0  0  0  0  0  0
   -5.4273  -14.7498   18.3260 O   0  5  0  0  0  0  0  0  0  0  0  0
   -4.3649  -13.9874   13.9421 O   0  0  0  0  0  0  0  0  0  0  0  0
   -4.7123  -12.9537   16.6327 O   0  0  0  0  0  0  0  0  0  0  0  0
   -5.4890  -15.2875   15.8367 O   0  0  0  0  0  0  0  0  0  0  0  0
   -3.9923  -16.5397   14.1396 O   0  5  0  0  0  0  0  0  0  0  0  0
   -3.2172  -15.0124   17.0114 O   0  0  0  0  0  0  0  0  0  0  0  0
   -6.2779  -15.6141   13.4273 O   0  0  0  0  0  0  0  0  0  0  0  0
   -4.6730   -8.9102   17.6393 S   0  0  0  0  0  0  0  0  0  0  0  0
   -4.6158  -14.5287   16.9537 P   0  0  2  0  0  0  0  0  0  0  0  0
   -4.9576  -15.4336   14.3268 P   0  0  2  0  0  0  0  0  0  0  0  0
  2 16  2  0  0  0  0
  2  3  1  0  0  0  0
  2 13  1  0  0  0  0
  3  8  2  0  0  0  0
  3  4  1  0  0  0  0
  4 14  1  0  0  0  0
  5  1  1  6  0  0  0
  5 14  1  0  0  0  0
  5 10  1  0  0  0  0
  6  7  1  0  0  0  0
  7 13  1  0  0  0  0
  7 15  2  0  0  0  0
  8 15  1  0  0  0  0
  9 14  1  0  0  0  0
  9 24  1  0  0  0  0
 10 24  1  0  0  0  0
 10 11  1  1  0  0  0
 11 12  1  0  0  0  0
 12 19  1  0  0  0  0
 17 25  1  0  0  0  0
 19 25  1  0  0  0  0
 20 26  1  0  0  0  0
 21 26  1  0  0  0  0
 22 25  2  0  0  0  0
 23 26  2  0  0  0  0
 25 20  1  6  0  0  0
 26 18  1  6  0  0  0
M  CHG  2  17  -1  21  -1
M  END
>  <CHROM.1>
113.58360072,-46.17593748,-66.31740427,88.09992590,177.37510740,-174.11008586
-84.06583336,-43.99261250,-5.51186301,-12.41302617,18.20792063,2.54737586
-1.39155193,1.96949068

>  <Name>
ligand

>  <RI>
0

>  <Rbt.Current_Directory>
/home/itssahil/PROJECTS/Mol_Feturizer/New_Systems/rnas/3D2X

>  <Rbt.Executable>
rbdock ($Id: //depot/dev/client3/rdock/2013.1/src/exe/rbdock.cxx#4 $)

>  <Rbt.Library>
libRbt.so (2013.1, Build901 2013/11/27)

>  <Rbt.Parameter_File>
/export/apps/rDock/src/rDock_2013.1_src/data/scripts/dock_solv.prm

>  <Rbt.Receptor>
prm/pocket_docking_7.prm

>  <SCORE>
-13.2664

>  <SCORE.INTER>
-11.4531

>  <SCORE.INTER.CONST>
1

>  <SCORE.INTER.POLAR>
0

>  <SCORE.INTER.ROT>
8

>  <SCORE.INTER.SOLV>
13.4552

>  <SCORE.INTER.VDW>
-21.0538

>  <SCORE.INTER.norm>
-0.440506

>  <SCORE.INTRA>
-1.81323

>  <SCORE.INTRA.DIHEDRAL>
-1.10179

>  <SCORE.INTRA.DIHEDRAL.0>
7.88077

>  <SCORE.INTRA.POLAR>
0

>  <SCORE.INTRA.POLAR.0>
0

>  <SCORE.INTRA.REPUL>
0

>  <SCORE.INTRA.REPUL.0>
0

>  <SCORE.INTRA.SOLV>
-2.23176

>  <SCORE.INTRA.SOLV.lig_0>
-63.2542

>  <SCORE.INTRA.VDW>
-0.14646

>  <SCORE.INTRA.VDW.0>
-3.15072

>  <SCORE.INTRA.norm>
-0.0697397

>  <SCORE.RESTR>
0

>  <SCORE.RESTR.CAVITY>
0

>  <SCORE.RESTR.norm>
0

>  <SCORE.SYSTEM>
0

>  <SCORE.SYSTEM.CONST>
0

>  <SCORE.SYSTEM.DIHEDRAL>
0

>  <SCORE.SYSTEM.SOLV>
0

>  <SCORE.SYSTEM.norm>
0

>  <SCORE.heavy>
26

>  <SCORE.norm>
-0.510245

>  <RMSD>
6.679

$$$$
ligand
 OpenBabel11021811473D
libRbt.so/2013.1/901 2013/11/27
 26 27  0  0  0  0  0  0  0  0999 V2000
   -4.1581   -9.7342   18.7709 C   0  0  0  0  0  0  0  0  0  0  0  0
   -6.2253  -10.6399   23.1245 C   0  0  0  0  0  0  0  0  0  0  0  0
   -5.1878  -10.2175   22.2999 C   0  0  0  0  0  0  0  0  0  0  0  0
   -5.2847   -8.9933   21.3863 C   0  0  0  0  0  0  0  0  0  0  0  0
   -5.6610   -9.5960   19.0315 C   0  0  1  0  0  0  0  0  0  0  0  0
   -4.5889  -13.6281   24.8349 C   0  0  0  0  0  0  0  0  0  0  0  0
   -4.8122  -12.4189   23.9254 C   0  0  0  0  0  0  0  0  0  0  0  0
   -3.9969  -10.9362   22.3297 C   0  0  0  0  0  0  0  0  0  0  0  0
   -7.4774   -9.1961   20.3444 C   0  0  0  0  0  0  0  0  0  0  0  0
   -6.6066   -9.8242   18.0390 C   0  0  2  0  0  0  0  0  0  0  0  0
   -6.4438  -10.2392   16.5745 C   0  0  0  0  0  0  0  0  0  0  0  0
   -6.8518  -11.6918   16.3177 C   0  0  0  0  0  0  0  0  0  0  0  0
   -6.0440  -11.7515   23.9499 N   0  0  0  0  0  0  0  0  0  0  0  0
   -6.1503   -9.2637   20.2294 N   0  0  0  0  0  0  0  0  0  0  0  0
   -3.8364  -11.9854   23.1145 N   0  0  0  0  0  0  0  0  0  0  0  0
   -7.2988  -10.0373   23.1324 O   0  0  0  0  0  0  0  0  0  0  0  0
   -3.3882  -11.5512   16.1037 O   0  5  0  0  0  0  0  0  0  0  0  0
   -5.9785  -14.6172   14.0338 O   0  0  0  0  0  0  0  0  0  0  0  0
   -5.7288  -12.5766   16.3771 O   0  0  0  0  0  0  0  0  0  0  0  0
   -3.8309  -13.9008   15.2247 O   0  0  0  0  0  0  0  0  0  0  0  0
   -3.9704  -16.2446   14.1403 O   0  5  0  0  0  0  0  0  0  0  0  0
   -4.9067  -11.8875   14.0391 O   0  0  0  0  0  0  0  0  0  0  0  0
   -5.3168  -15.7060   16.2582 O   0  0  0  0  0  0  0  0  0  0  0  0
   -8.1560   -9.5069   18.7684 S   0  0  0  0  0  0  0  0  0  0  0  0
   -4.4962  -12.4422   15.3495 P   0  0  2  0  0  0  0  0  0  0  0  0
   -4.7195  -15.1889   14.8578 P   0  0  2  0  0  0  0  0  0  0  0  0
  2 16  2  0  0  0  0
  2  3  1  0  0  0  0
  2 13  1  0  0  0  0
  3  8  2  0  0  0  0
  3  4  1  0  0  0  0
  4 14  1  0  0  0  0
  5  1  1  1  0  0  0
  5 14  1  0  0  0  0
  5 10  1  0  0  0  0
  6  7  1  0  0  0  0
  7 13  1  0  0  0  0
  7 15  2  0  0  0  0
  8 15  1  0  0  0  0
  9 14  1  0  0  0  0
  9 24  1  0  0  0  0
 10 24  1  0  0  0  0
 10 11  1  6  0  0  0
 11 12  1  0  0  0  0
 12 19  1  0  0  0  0
 17 25  1  0  0  0  0
 19 25  1  0  0  0  0
 20 26  1  0  0  0  0
 21 26  1  0  0  0  0
 22 25  2  0  0  0  0
 23 26  2  0  0  0  0
 25 20  1  6  0  0  0
 26 18  1  6  0  0  0
M  CHG  2  17  -1  21  -1
M  END
>  <CHROM.1>
-73.12502276,106.86557309,-94.49544790,-98.78106796,-62.15110849,164.99208013
95.19218105,25.97982444,-5.44989906,-11.86652935,18.45688300,1.82412189,-1.10743102
1.39584926

>  <Name>
ligand

>  <RI>
0

>  <Rbt.Current_Directory>
/home/itssahil/PROJECTS/Mol_Feturizer/New_Systems/rnas/3D2X

>  <Rbt.Executable>
rbdock ($Id: //depot/dev/client3/rdock/2013.1/src/exe/rbdock.cxx#4 $)

>  <Rbt.Library>
libRbt.so (2013.1, Build901 2013/11/27)

>  <Rbt.Parameter_File>
/export/apps/rDock/src/rDock_2013.1_src/data/scripts/dock_solv.prm

>  <Rbt.Receptor>
prm/pocket_docking_7.prm

>  <SCORE>
-13.8837

>  <SCORE.INTER>
-14.4126

>  <SCORE.INTER.CONST>
1

>  <SCORE.INTER.POLAR>
0

>  <SCORE.INTER.ROT>
8

>  <SCORE.INTER.SOLV>
14.1241

>  <SCORE.INTER.VDW>
-23.2498

>  <SCORE.INTER.norm>
-0.55433

>  <SCORE.INTRA>
0.528873

>  <SCORE.INTRA.DIHEDRAL>
3.3165

>  <SCORE.INTRA.DIHEDRAL.0>
7.88077

>  <SCORE.INTRA.POLAR>
0

>  <SCORE.INTRA.POLAR.0>
0

>  <SCORE.INTRA.REPUL>
0

>  <SCORE.INTRA.REPUL.0>
0

>  <SCORE.INTRA.SOLV>
-0.248542

>  <SCORE.INTRA.SOLV.lig_0>
-63.2542

>  <SCORE.INTRA.VDW>
-1.00511

>  <SCORE.INTRA.VDW.0>
-3.15072

>  <SCORE.INTRA.norm>
0.0203413

>  <SCORE.RESTR>
0

>  <SCORE.RESTR.CAVITY>
0

>  <SCORE.RESTR.norm>
0

>  <SCORE.SYSTEM>
0

>  <SCORE.SYSTEM.CONST>
0

>  <SCORE.SYSTEM.DIHEDRAL>
0

>  <SCORE.SYSTEM.SOLV>
0

>  <SCORE.SYSTEM.norm>
0

>  <SCORE.heavy>
26

>  <SCORE.norm>
-0.533989

>  <RMSD>
6.872

$$$$
ligand
 OpenBabel11021811473D
libRbt.so/2013.1/901 2013/11/27
 26 27  0  0  0  0  0  0  0  0999 V2000
   -7.3029  -12.3379   16.6956 C   0  0  0  0  0  0  0  0  0  0  0  0
   -5.3793  -16.1636   17.4911 C   0  0  0  0  0  0  0  0  0  0  0  0
   -5.3043  -14.7748   17.4729 C   0  0  0  0  0  0  0  0  0  0  0  0
   -4.8984  -13.9706   16.2355 C   0  0  0  0  0  0  0  0  0  0  0  0
   -5.8797  -11.7749   16.7515 C   0  0  1  0  0  0  0  0  0  0  0  0
   -6.5764  -16.7542   21.0619 C   0  0  0  0  0  0  0  0  0  0  0  0
   -6.1115  -16.0551   19.7835 C   0  0  0  0  0  0  0  0  0  0  0  0
   -5.6387  -14.0882   18.6357 C   0  0  0  0  0  0  0  0  0  0  0  0
   -3.6119  -11.9421   16.6419 C   0  0  0  0  0  0  0  0  0  0  0  0
   -5.6248  -10.4389   17.0372 C   0  0  2  0  0  0  0  0  0  0  0  0
   -6.5757   -9.2809   17.3508 C   0  0  0  0  0  0  0  0  0  0  0  0
   -6.7585   -9.0498   18.8526 C   0  0  0  0  0  0  0  0  0  0  0  0
   -5.7869  -16.8191   18.6547 N   0  0  0  0  0  0  0  0  0  0  0  0
   -4.8019  -12.5366   16.5447 N   0  0  0  0  0  0  0  0  0  0  0  0
   -6.0233  -14.7182   19.7301 N   0  0  0  0  0  0  0  0  0  0  0  0
   -5.0921  -16.8157   16.4870 O   0  0  0  0  0  0  0  0  0  0  0  0
   -6.4003   -9.8259   21.7429 O   0  5  0  0  0  0  0  0  0  0  0  0
   -2.7182   -8.4426   19.4424 O   0  0  0  0  0  0  0  0  0  0  0  0
   -5.5034   -8.8942   19.5221 O   0  0  0  0  0  0  0  0  0  0  0  0
   -3.9440   -9.1746   21.5649 O   0  0  0  0  0  0  0  0  0  0  0  0
   -2.5131   -7.0205   21.5936 O   0  5  0  0  0  0  0  0  0  0  0  0
   -5.7407   -7.3338   21.5533 O   0  0  0  0  0  0  0  0  0  0  0  0
   -1.3948   -9.3265   21.4519 O   0  0  0  0  0  0  0  0  0  0  0  0
   -3.8960  -10.2488   16.9463 S   0  0  0  0  0  0  0  0  0  0  0  0
   -5.4187   -8.7129   21.1199 P   0  0  2  0  0  0  0  0  0  0  0  0
   -2.6389   -8.3910   21.0492 P   0  0  2  0  0  0  0  0  0  0  0  0
  2 16  2  0  0  0  0
  2  3  1  0  0  0  0
  2 13  1  0  0  0  0
  3  8  2  0  0  0  0
  3  4  1  0  0  0  0
  4 14  1  0  0  0  0
  5  1  1  1  0  0  0
  5 14  1  0  0  0  0
  5 10  1  0  0  0  0
  6  7  1  0  0  0  0
  7 13  1  0  0  0  0
  7 15  2  0  0  0  0
  8 15  1  0  0  0  0
  9 14  1  0  0  0  0
  9 24  1  0  0  0  0
 10 24  1  0  0  0  0
 10 11  1  6  0  0  0
 11 12  1  0  0  0  0
 12 19  1  0  0  0  0
 17 25  1  0  0  0  0
 19 25  1  0  0  0  0
 20 26  1  0  0  0  0
 21 26  1  0  0  0  0
 22 25  2  0  0  0  0
 23 26  2  0  0  0  0
 25 20  1  1  0  0  0
 26 18  1  6  0  0  0
M  CHG  2  17  -1  21  -1
M  END
>  <CHROM.1>
-175.35392103,95.75502572,53.30701473,-72.84462180,-176.88603129,175.19111932
45.73697019,-57.09788200,-4.89108191,-11.27743654,19.09056550,-2.89332526
1.33568208,1.70884542

>  <Name>
ligand

>  <RI>
0

>  <Rbt.Current_Directory>
/home/itssahil/PROJECTS/Mol_Feturizer/New_Systems/rnas/3D2X

>  <Rbt.Executable>
rbdock ($Id: //depot/dev/client3/rdock/2013.1/src/exe/rbdock.cxx#4 $)

>  <Rbt.Library>
libRbt.so (2013.1, Build901 2013/11/27)

>  <Rbt.Parameter_File>
/export/apps/rDock/src/rDock_2013.1_src/data/scripts/dock_solv.prm

>  <Rbt.Receptor>
prm/pocket_docking_6.prm

>  <SCORE>
-10.7509

>  <SCORE.INTER>
-7.75342

>  <SCORE.INTER.CONST>
1

>  <SCORE.INTER.POLAR>
0

>  <SCORE.INTER.ROT>
8

>  <SCORE.INTER.SOLV>
8.24077

>  <SCORE.INTER.VDW>
-16.8492

>  <SCORE.INTER.norm>
-0.298208

>  <SCORE.INTRA>
-2.99744

>  <SCORE.INTRA.DIHEDRAL>
-2.01277

>  <SCORE.INTRA.DIHEDRAL.0>
7.88077

>  <SCORE.INTRA.POLAR>
0

>  <SCORE.INTRA.POLAR.0>
0

>  <SCORE.INTRA.REPUL>
0

>  <SCORE.INTRA.REPUL.0>
0

>  <SCORE.INTRA.SOLV>
-2.85121

>  <SCORE.INTRA.SOLV.lig_0>
-63.2542

>  <SCORE.INTRA.VDW>
-0.565449

>  <SCORE.INTRA.VDW.0>
-3.15072

>  <SCORE.INTRA.norm>
-0.115286

>  <SCORE.RESTR>
0

>  <SCORE.RESTR.CAVITY>
0

>  <SCORE.RESTR.norm>
0

>  <SCORE.SYSTEM>
0

>  <SCORE.SYSTEM.CONST>
0

>  <SCORE.SYSTEM.DIHEDRAL>
0

>  <SCORE.SYSTEM.SOLV>
0

>  <SCORE.SYSTEM.norm>
0

>  <SCORE.heavy>
26

>  <SCORE.norm>
-0.413494

>  <RMSD>
6.896

$$$$
ligand
 OpenBabel11021811473D
libRbt.so/2013.1/901 2013/11/27
 26 27  0  0  0  0  0  0  0  0999 V2000
   -3.4452  -15.3472   15.3914 C   0  0  0  0  0  0  0  0  0  0  0  0
   -5.3755  -18.7867   17.5984 C   0  0  0  0  0  0  0  0  0  0  0  0
   -4.3937  -17.8023   17.6414 C   0  0  0  0  0  0  0  0  0  0  0  0
   -3.0889  -17.8806   16.8453 C   0  0  0  0  0  0  0  0  0  0  0  0
   -2.3730  -15.5584   16.4644 C   0  0  1  0  0  0  0  0  0  0  0  0
   -8.0008  -17.2592   19.9022 C   0  0  0  0  0  0  0  0  0  0  0  0
   -6.7127  -17.4637   19.1034 C   0  0  0  0  0  0  0  0  0  0  0  0
   -4.6272  -16.6822   18.4328 C   0  0  0  0  0  0  0  0  0  0  0  0
   -1.2798  -16.7767   18.0467 C   0  0  0  0  0  0  0  0  0  0  0  0
   -1.4911  -14.5505   16.8355 C   0  0  2  0  0  0  0  0  0  0  0  0
   -1.3550  -13.1062   16.3465 C   0  0  0  0  0  0  0  0  0  0  0  0
   -2.5777  -12.2472   16.6773 C   0  0  0  0  0  0  0  0  0  0  0  0
   -6.5512  -18.6235   18.3339 N   0  0  0  0  0  0  0  0  0  0  0  0
   -2.2332  -16.7163   17.1160 N   0  0  0  0  0  0  0  0  0  0  0  0
   -5.7428  -16.5381   19.1237 N   0  0  0  0  0  0  0  0  0  0  0  0
   -5.2145  -19.7970   16.9135 O   0  0  0  0  0  0  0  0  0  0  0  0
   -4.3505  -10.2728   18.3373 O   0  5  0  0  0  0  0  0  0  0  0  0
   -7.8569  -12.4145   16.3998 O   0  0  0  0  0  0  0  0  0  0  0  0
   -3.0185  -12.4482   18.0238 O   0  0  0  0  0  0  0  0  0  0  0  0
   -5.5488  -12.3594   17.5012 O   0  0  0  0  0  0  0  0  0  0  0  0
   -7.6271  -12.9616   18.9177 O   0  5  0  0  0  0  0  0  0  0  0  0
   -4.7282  -12.2675   19.9373 O   0  0  0  0  0  0  0  0  0  0  0  0
   -7.2749  -10.5631   18.0744 O   0  0  0  0  0  0  0  0  0  0  0  0
   -0.4385  -15.2493   18.0342 S   0  0  0  0  0  0  0  0  0  0  0  0
   -4.4276  -11.8672   18.5435 P   0  0  2  0  0  0  0  0  0  0  0  0
   -7.1127  -12.1391   17.8001 P   0  0  2  0  0  0  0  0  0  0  0  0
  2 16  2  0  0  0  0
  2  3  1  0  0  0  0
  2 13  1  0  0  0  0
  3  8  2  0  0  0  0
  3  4  1  0  0  0  0
  4 14  1  0  0  0  0
  5  1  1  1  0  0  0
  5 14  1  0  0  0  0
  5 10  1  0  0  0  0
  6  7  1  0  0  0  0
  7 13  1  0  0  0  0
  7 15  2  0  0  0  0
  8 15  1  0  0  0  0
  9 14  1  0  0  0  0
  9 24  1  0  0  0  0
 10 24  1  0  0  0  0
 10 11  1  6  0  0  0
 11 12  1  0  0  0  0
 12 19  1  0  0  0  0
 17 25  1  0  0  0  0
 19 25  1  0  0  0  0
 20 26  1  0  0  0  0
 21 26  1  0  0  0  0
 22 25  2  0  0  0  0
 23 26  2  0  0  0  0
 25 20  1  6  0  0  0
 26 18  1  6  0  0  0
M  CHG  2  17  -1  21  -1
M  END
>  <CHROM.1>
-178.57156380,64.68457954,45.00952824,-84.70265131,-169.11726008,-76.30494978
-59.37910801,166.17586716,-4.49917868,-14.55747942,17.83424766,-1.24403757
0.19810710,0.00816861

>  <Name>
ligand

>  <RI>
0

>  <Rbt.Current_Directory>
/home/itssahil/PROJECTS/Mol_Feturizer/New_Systems/rnas/3D2X

>  <Rbt.Executable>
rbdock ($Id: //depot/dev/client3/rdock/2013.1/src/exe/rbdock.cxx#4 $)

>  <Rbt.Library>
libRbt.so (2013.1, Build901 2013/11/27)

>  <Rbt.Parameter_File>
/export/apps/rDock/src/rDock_2013.1_src/data/scripts/dock_solv.prm

>  <Rbt.Receptor>
prm/pocket_docking_8.prm

>  <SCORE>
-17.8721

>  <SCORE.INTER>
-16.2123

>  <SCORE.INTER.CONST>
1

>  <SCORE.INTER.POLAR>
0

>  <SCORE.INTER.ROT>
8

>  <SCORE.INTER.SOLV>
10.8489

>  <SCORE.INTER.VDW>
-23.3578

>  <SCORE.INTER.norm>
-0.623549

>  <SCORE.INTRA>
-1.65981

>  <SCORE.INTRA.DIHEDRAL>
-1.48772

>  <SCORE.INTRA.DIHEDRAL.0>
7.88077

>  <SCORE.INTRA.POLAR>
0

>  <SCORE.INTRA.POLAR.0>
0

>  <SCORE.INTRA.REPUL>
0

>  <SCORE.INTRA.REPUL.0>
0

>  <SCORE.INTRA.SOLV>
0.406033

>  <SCORE.INTRA.SOLV.lig_0>
-63.2542

>  <SCORE.INTRA.VDW>
-1.11897

>  <SCORE.INTRA.VDW.0>
-3.15072

>  <SCORE.INTRA.norm>
-0.0638388

>  <SCORE.RESTR>
0

>  <SCORE.RESTR.CAVITY>
0

>  <SCORE.RESTR.norm>
0

>  <SCORE.SYSTEM>
0

>  <SCORE.SYSTEM.CONST>
0

>  <SCORE.SYSTEM.DIHEDRAL>
0

>  <SCORE.SYSTEM.SOLV>
0

>  <SCORE.SYSTEM.norm>
0

>  <SCORE.heavy>
26

>  <SCORE.norm>
-0.687388

>  <RMSD>
6.947

$$$$
ligand
 OpenBabel11021811473D
libRbt.so/2013.1/901 2013/11/27
 26 27  0  0  0  0  0  0  0  0999 V2000
   -4.2026   -9.6714   18.8750 C   0  0  0  0  0  0  0  0  0  0  0  0
   -6.2917   -8.3338   23.7880 C   0  0  0  0  0  0  0  0  0  0  0  0
   -6.2201   -9.2930   22.7834 C   0  0  0  0  0  0  0  0  0  0  0  0
   -5.3963   -9.1132   21.5060 C   0  0  0  0  0  0  0  0  0  0  0  0
   -5.7110   -9.5372   19.1036 C   0  0  1  0  0  0  0  0  0  0  0  0
   -8.5288  -10.1207   26.3050 C   0  0  0  0  0  0  0  0  0  0  0  0
   -7.7137   -9.8154   25.0474 C   0  0  0  0  0  0  0  0  0  0  0  0
   -6.9173  -10.4829   22.9667 C   0  0  0  0  0  0  0  0  0  0  0  0
   -7.5604   -9.2162   20.3920 C   0  0  0  0  0  0  0  0  0  0  0  0
   -6.6301   -9.6820   18.0713 C   0  0  2  0  0  0  0  0  0  0  0  0
   -6.4295   -9.9900   16.5853 C   0  0  0  0  0  0  0  0  0  0  0  0
   -6.4377  -11.4898   16.2809 C   0  0  0  0  0  0  0  0  0  0  0  0
   -7.0440   -8.5896   24.9363 N   0  0  0  0  0  0  0  0  0  0  0  0
   -6.2312   -9.2889   20.3088 N   0  0  0  0  0  0  0  0  0  0  0  0
   -7.6250  -10.7144   24.0566 N   0  0  0  0  0  0  0  0  0  0  0  0
   -5.6932   -7.2642   23.6713 O   0  0  0  0  0  0  0  0  0  0  0  0
   -3.3202  -13.8166   16.3889 O   0  5  0  0  0  0  0  0  0  0  0  0
   -5.6674  -16.5531   19.1758 O   0  0  0  0  0  0  0  0  0  0  0  0
   -5.2278  -12.1242   16.7069 O   0  0  0  0  0  0  0  0  0  0  0  0
   -5.4290  -14.5322   17.6258 O   0  0  0  0  0  0  0  0  0  0  0  0
   -5.6745  -16.8988   16.6121 O   0  5  0  0  0  0  0  0  0  0  0  0
   -5.5378  -14.1024   15.0920 O   0  0  0  0  0  0  0  0  0  0  0  0
   -3.5164  -16.2167   17.8226 O   0  0  0  0  0  0  0  0  0  0  0  0
   -8.1968   -9.4032   18.7793 S   0  0  0  0  0  0  0  0  0  0  0  0
   -4.9227  -13.6685   16.3674 P   0  0  2  0  0  0  0  0  0  0  0  0
   -5.1178  -16.1056   17.7307 P   0  0  2  0  0  0  0  0  0  0  0  0
  2 16  2  0  0  0  0
  2  3  1  0  0  0  0
  2 13  1  0  0  0  0
  3  8  2  0  0  0  0
  3  4  1  0  0  0  0
  4 14  1  0  0  0  0
  5  1  1  1  0  0  0
  5 14  1  0  0  0  0
  5 10  1  0  0  0  0
  6  7  1  0  0  0  0
  7 13  1  0  0  0  0
  7 15  2  0  0  0  0
  8 15  1  0  0  0  0
  9 14  1  0  0  0  0
  9 24  1  0  0  0  0
 10 24  1  0  0  0  0
 10 11  1  6  0  0  0
 11 12  1  0  0  0  0
 12 19  1  0  0  0  0
 17 25  1  0  0  0  0
 19 25  1  0  0  0  0
 20 26  1  0  0  0  0
 21 26  1  0  0  0  0
 22 25  2  0  0  0  0
 23 26  2  0  0  0  0
 25 20  1  1  0  0  0
 26 18  1  1  0  0  0
M  CHG  2  17  -1  21  -1
M  END
>  <CHROM.1>
-124.68850802,89.84972150,-74.16865803,-161.66567041,-173.66156677,-59.97657490
155.04282790,174.95320133,-5.99690685,-11.73585094,19.48311588,3.02354854
-1.34394500,2.29918915

>  <Name>
ligand

>  <RI>
0

>  <Rbt.Current_Directory>
/home/itssahil/PROJECTS/Mol_Feturizer/New_Systems/rnas/3D2X

>  <Rbt.Executable>
rbdock ($Id: //depot/dev/client3/rdock/2013.1/src/exe/rbdock.cxx#4 $)

>  <Rbt.Library>
libRbt.so (2013.1, Build901 2013/11/27)

>  <Rbt.Parameter_File>
/export/apps/rDock/src/rDock_2013.1_src/data/scripts/dock_solv.prm

>  <Rbt.Receptor>
prm/pocket_docking_8.prm

>  <SCORE>
-13.2159

>  <SCORE.INTER>
-13.2268

>  <SCORE.INTER.CONST>
1

>  <SCORE.INTER.POLAR>
0

>  <SCORE.INTER.ROT>
8

>  <SCORE.INTER.SOLV>
9.57972

>  <SCORE.INTER.VDW>
-20.9444

>  <SCORE.INTER.norm>
-0.508722

>  <SCORE.INTRA>
0.0108575

>  <SCORE.INTRA.DIHEDRAL>
-0.810729

>  <SCORE.INTRA.DIHEDRAL.0>
7.88077

>  <SCORE.INTRA.POLAR>
0

>  <SCORE.INTRA.POLAR.0>
0

>  <SCORE.INTRA.REPUL>
0

>  <SCORE.INTRA.REPUL.0>
0

>  <SCORE.INTRA.SOLV>
0.337202

>  <SCORE.INTRA.SOLV.lig_0>
-63.2542

>  <SCORE.INTRA.VDW>
0.247621

>  <SCORE.INTRA.VDW.0>
-3.15072

>  <SCORE.INTRA.norm>
0.000417596

>  <SCORE.RESTR>
0

>  <SCORE.RESTR.CAVITY>
0

>  <SCORE.RESTR.norm>
0

>  <SCORE.SYSTEM>
0

>  <SCORE.SYSTEM.CONST>
0

>  <SCORE.SYSTEM.DIHEDRAL>
0

>  <SCORE.SYSTEM.SOLV>
0

>  <SCORE.SYSTEM.norm>
0

>  <SCORE.heavy>
26

>  <SCORE.norm>
-0.508305

>  <RMSD>
6.961

$$$$
ligand
 OpenBabel11021811473D
libRbt.so/2013.1/901 2013/11/27
 26 27  0  0  0  0  0  0  0  0999 V2000
   -3.8705   -9.0854   19.2860 C   0  0  0  0  0  0  0  0  0  0  0  0
   -6.4134   -8.0621   24.0162 C   0  0  0  0  0  0  0  0  0  0  0  0
   -6.2893   -8.8383   22.8687 C   0  0  0  0  0  0  0  0  0  0  0  0
   -5.5058   -8.3920   21.6320 C   0  0  0  0  0  0  0  0  0  0  0  0
   -5.3946   -9.2312   19.3226 C   0  0  1  0  0  0  0  0  0  0  0  0
   -8.4620  -10.3984   26.2247 C   0  0  0  0  0  0  0  0  0  0  0  0
   -7.6962   -9.8324   25.0279 C   0  0  0  0  0  0  0  0  0  0  0  0
   -6.8917  -10.0923   22.8612 C   0  0  0  0  0  0  0  0  0  0  0  0
   -7.4344   -9.1057   20.3259 C   0  0  0  0  0  0  0  0  0  0  0  0
   -6.1162   -9.7169   18.2387 C   0  0  2  0  0  0  0  0  0  0  0  0
   -5.6546  -10.1990   16.8610 C   0  0  0  0  0  0  0  0  0  0  0  0
   -6.5853  -11.2521   16.2553 C   0  0  0  0  0  0  0  0  0  0  0  0
   -7.1224   -8.5569   25.1127 N   0  0  0  0  0  0  0  0  0  0  0  0
   -6.1164   -8.9152   20.4014 N   0  0  0  0  0  0  0  0  0  0  0  0
   -7.5593  -10.5504   23.9038 N   0  0  0  0  0  0  0  0  0  0  0  0
   -5.8990   -6.9448   24.0706 O   0  0  0  0  0  0  0  0  0  0  0  0
   -3.5752  -12.1939   15.9990 O   0  5  0  0  0  0  0  0  0  0  0  0
   -5.2261  -16.0110   18.0826 O   0  0  0  0  0  0  0  0  0  0  0  0
   -5.9813  -11.9154   15.1404 O   0  0  0  0  0  0  0  0  0  0  0  0
   -5.2928  -14.0098   16.4906 O   0  0  0  0  0  0  0  0  0  0  0  0
   -4.0589  -16.1685   15.7793 O   0  5  0  0  0  0  0  0  0  0  0  0
   -4.4499  -13.6904   14.0815 O   0  0  0  0  0  0  0  0  0  0  0  0
   -3.0952  -14.6629   17.6213 O   0  0  0  0  0  0  0  0  0  0  0  0
   -7.7913   -9.6622   18.7123 S   0  0  0  0  0  0  0  0  0  0  0  0
   -4.8051  -12.9968   15.3409 P   0  0  2  0  0  0  0  0  0  0  0  0
   -4.4000  -15.2783   16.9114 P   0  0  2  0  0  0  0  0  0  0  0  0
  2 16  2  0  0  0  0
  2  3  1  0  0  0  0
  2 13  1  0  0  0  0
  3  8  2  0  0  0  0
  3  4  1  0  0  0  0
  4 14  1  0  0  0  0
  5  1  1  1  0  0  0
  5 14  1  0  0  0  0
  5 10  1  0  0  0  0
  6  7  1  0  0  0  0
  7 13  1  0  0  0  0
  7 15  2  0  0  0  0
  8 15  1  0  0  0  0
  9 14  1  0  0  0  0
  9 24  1  0  0  0  0
 10 24  1  0  0  0  0
 10 11  1  6  0  0  0
 11 12  1  0  0  0  0
 12 19  1  0  0  0  0
 17 25  1  0  0  0  0
 19 25  1  0  0  0  0
 20 26  1  0  0  0  0
 21 26  1  0  0  0  0
 22 25  2  0  0  0  0
 23 26  2  0  0  0  0
 25 20  1  1  0  0  0
 26 18  1  1  0  0  0
M  CHG  2  17  -1  21  -1
M  END
>  <CHROM.1>
-147.08590139,151.21330571,-166.00066723,-147.89027633,73.48625050,-71.08441851
-63.13479758,179.52577227,-5.75161222,-11.32266895,19.16280795,2.94465681
-1.31657816,2.35242482

>  <Name>
ligand

>  <RI>
0

>  <Rbt.Current_Directory>
/home/itssahil/PROJECTS/Mol_Feturizer/New_Systems/rnas/3D2X

>  <Rbt.Executable>
rbdock ($Id: //depot/dev/client3/rdock/2013.1/src/exe/rbdock.cxx#4 $)

>  <Rbt.Library>
libRbt.so (2013.1, Build901 2013/11/27)

>  <Rbt.Parameter_File>
/export/apps/rDock/src/rDock_2013.1_src/data/scripts/dock_solv.prm

>  <Rbt.Receptor>
prm/pocket_docking_7.prm

>  <SCORE>
-11.2851

>  <SCORE.INTER>
-12.6264

>  <SCORE.INTER.CONST>
1

>  <SCORE.INTER.POLAR>
0

>  <SCORE.INTER.ROT>
8

>  <SCORE.INTER.SOLV>
8.97884

>  <SCORE.INTER.VDW>
-20.3439

>  <SCORE.INTER.norm>
-0.48563

>  <SCORE.INTRA>
1.34129

>  <SCORE.INTRA.DIHEDRAL>
-1.30165

>  <SCORE.INTRA.DIHEDRAL.0>
7.88077

>  <SCORE.INTRA.POLAR>
0

>  <SCORE.INTRA.POLAR.0>
0

>  <SCORE.INTRA.REPUL>
0

>  <SCORE.INTRA.REPUL.0>
0

>  <SCORE.INTRA.SOLV>
1.35186

>  <SCORE.INTRA.SOLV.lig_0>
-63.2542

>  <SCORE.INTRA.VDW>
1.31619

>  <SCORE.INTRA.VDW.0>
-3.15072

>  <SCORE.INTRA.norm>
0.0515881

>  <SCORE.RESTR>
0

>  <SCORE.RESTR.CAVITY>
0

>  <SCORE.RESTR.norm>
0

>  <SCORE.SYSTEM>
0

>  <SCORE.SYSTEM.CONST>
0

>  <SCORE.SYSTEM.DIHEDRAL>
0

>  <SCORE.SYSTEM.SOLV>
0

>  <SCORE.SYSTEM.norm>
0

>  <SCORE.heavy>
26

>  <SCORE.norm>
-0.434042

>  <RMSD>
7.017

$$$$
ligand
 OpenBabel11021811473D
libRbt.so/2013.1/901 2013/11/27
 26 27  0  0  0  0  0  0  0  0999 V2000
   -7.4630  -12.3069   16.4596 C   0  0  0  0  0  0  0  0  0  0  0  0
   -6.4382   -9.5640   20.2748 C   0  0  0  0  0  0  0  0  0  0  0  0
   -6.6384  -10.3452   19.1415 C   0  0  0  0  0  0  0  0  0  0  0  0
   -6.6323   -9.7804   17.7189 C   0  0  0  0  0  0  0  0  0  0  0  0
   -6.0728  -11.6913   16.2747 C   0  0  1  0  0  0  0  0  0  0  0  0
   -6.6034  -12.2258   22.9989 C   0  0  0  0  0  0  0  0  0  0  0  0
   -6.6261  -11.5482   21.6279 C   0  0  0  0  0  0  0  0  0  0  0  0
   -6.8304  -11.7119   19.3168 C   0  0  0  0  0  0  0  0  0  0  0  0
   -4.4899  -10.0878   16.6006 C   0  0  0  0  0  0  0  0  0  0  0  0
   -5.1007  -12.2879   15.4807 C   0  0  2  0  0  0  0  0  0  0  0  0
   -5.1332  -13.5742   14.6514 C   0  0  0  0  0  0  0  0  0  0  0  0
   -5.3072  -14.8310   15.5072 C   0  0  0  0  0  0  0  0  0  0  0  0
   -6.4300  -10.1639   21.5357 N   0  0  0  0  0  0  0  0  0  0  0  0
   -5.7194  -10.5396   16.8522 N   0  0  0  0  0  0  0  0  0  0  0  0
   -6.8201  -12.2685   20.5138 N   0  0  0  0  0  0  0  0  0  0  0  0
   -6.2651   -8.3495   20.1711 O   0  0  0  0  0  0  0  0  0  0  0  0
   -3.8344  -17.3566   16.9260 O   0  5  0  0  0  0  0  0  0  0  0  0
   -4.8200  -14.2007   20.1612 O   0  0  0  0  0  0  0  0  0  0  0  0
   -4.3758  -14.8665   16.5930 O   0  0  0  0  0  0  0  0  0  0  0  0
   -3.2758  -15.7001   18.7790 O   0  0  0  0  0  0  0  0  0  0  0  0
   -2.2779  -14.2078   20.6406 O   0  5  0  0  0  0  0  0  0  0  0  0
   -5.7384  -16.2504   18.2797 O   0  0  0  0  0  0  0  0  0  0  0  0
   -3.1871  -13.1630   18.4796 O   0  0  0  0  0  0  0  0  0  0  0  0
   -3.6897  -11.2744   15.6045 S   0  0  0  0  0  0  0  0  0  0  0  0
   -4.3978  -16.0523   17.6823 P   0  0  2  0  0  0  0  0  0  0  0  0
   -3.3183  -14.3151   19.5934 P   0  0  2  0  0  0  0  0  0  0  0  0
  2 16  2  0  0  0  0
  2  3  1  0  0  0  0
  2 13  1  0  0  0  0
  3  8  2  0  0  0  0
  3  4  1  0  0  0  0
  4 14  1  0  0  0  0
  5  1  1  6  0  0  0
  5 14  1  0  0  0  0
  5 10  1  0  0  0  0
  6  7  1  0  0  0  0
  7 13  1  0  0  0  0
  7 15  2  0  0  0  0
  8 15  1  0  0  0  0
  9 14  1  0  0  0  0
  9 24  1  0  0  0  0
 10 24  1  0  0  0  0
 10 11  1  1  0  0  0
 11 12  1  0  0  0  0
 12 19  1  0  0  0  0
 17 25  1  0  0  0  0
 19 25  1  0  0  0  0
 20 26  1  0  0  0  0
 21 26  1  0  0  0  0
 22 25  2  0  0  0  0
 23 26  2  0  0  0  0
 25 20  1  1  0  0  0
 26 18  1  1  0  0  0
M  CHG  2  17  -1  21  -1
M  END
>  <CHROM.1>
128.31950799,-64.29579810,-50.12248928,81.95461981,177.08473956,169.49924604
72.11587398,49.96377645,-5.04733794,-12.90061951,18.30126587,2.93304487,-1.18850984
1.80237539

>  <Name>
ligand

>  <RI>
0

>  <Rbt.Current_Directory>
/home/itssahil/PROJECTS/Mol_Feturizer/New_Systems/rnas/3D2X

>  <Rbt.Executable>
rbdock ($Id: //depot/dev/client3/rdock/2013.1/src/exe/rbdock.cxx#4 $)

>  <Rbt.Library>
libRbt.so (2013.1, Build901 2013/11/27)

>  <Rbt.Parameter_File>
/export/apps/rDock/src/rDock_2013.1_src/data/scripts/dock_solv.prm

>  <Rbt.Receptor>
prm/pocket_docking_8.prm

>  <SCORE>
-14.0804

>  <SCORE.INTER>
-10.2569

>  <SCORE.INTER.CONST>
1

>  <SCORE.INTER.POLAR>
0

>  <SCORE.INTER.ROT>
8

>  <SCORE.INTER.SOLV>
8.70655

>  <SCORE.INTER.VDW>
-18.6735

>  <SCORE.INTER.norm>
-0.394497

>  <SCORE.INTRA>
-3.8235

>  <SCORE.INTRA.DIHEDRAL>
-2.61571

>  <SCORE.INTRA.DIHEDRAL.0>
7.88077

>  <SCORE.INTRA.POLAR>
0

>  <SCORE.INTRA.POLAR.0>
0

>  <SCORE.INTRA.REPUL>
0

>  <SCORE.INTRA.REPUL.0>
0

>  <SCORE.INTRA.SOLV>
-1.4011

>  <SCORE.INTRA.SOLV.lig_0>
-63.2542

>  <SCORE.INTRA.VDW>
-1.8151

>  <SCORE.INTRA.VDW.0>
-3.15072

>  <SCORE.INTRA.norm>
-0.147058

>  <SCORE.RESTR>
0

>  <SCORE.RESTR.CAVITY>
0

>  <SCORE.RESTR.norm>
0

>  <SCORE.SYSTEM>
0

>  <SCORE.SYSTEM.CONST>
0

>  <SCORE.SYSTEM.DIHEDRAL>
0

>  <SCORE.SYSTEM.SOLV>
0

>  <SCORE.SYSTEM.norm>
0

>  <SCORE.heavy>
26

>  <SCORE.norm>
-0.541555

>  <RMSD>
7.036

$$$$
ligand
 OpenBabel11021811473D
libRbt.so/2013.1/901 2013/11/27
 26 27  0  0  0  0  0  0  0  0999 V2000
   -6.7207  -16.7750   21.9956 C   0  0  0  0  0  0  0  0  0  0  0  0
   -3.8912  -15.9542   17.5278 C   0  0  0  0  0  0  0  0  0  0  0  0
   -5.0129  -16.6971   17.8807 C   0  0  0  0  0  0  0  0  0  0  0  0
   -5.4870  -16.8696   19.3258 C   0  0  0  0  0  0  0  0  0  0  0  0
   -6.8039  -15.6241   20.9885 C   0  0  1  0  0  0  0  0  0  0  0  0
   -3.9856  -16.3023   13.7327 C   0  0  0  0  0  0  0  0  0  0  0  0
   -4.3401  -16.4488   15.2132 C   0  0  0  0  0  0  0  0  0  0  0  0
   -5.7490  -17.2916   16.8608 C   0  0  0  0  0  0  0  0  0  0  0  0
   -6.3493  -14.6147   18.9991 C   0  0  0  0  0  0  0  0  0  0  0  0
   -7.4682  -14.4378   21.2761 C   0  0  2  0  0  0  0  0  0  0  0  0
   -8.2133  -13.9847   22.5343 C   0  0  0  0  0  0  0  0  0  0  0  0
   -7.6180  -12.7195   23.1564 C   0  0  0  0  0  0  0  0  0  0  0  0
   -3.5440  -15.8229   16.1817 N   0  0  0  0  0  0  0  0  0  0  0  0
   -6.2308  -15.6871   19.7833 N   0  0  0  0  0  0  0  0  0  0  0  0
   -5.4118  -17.1604   15.5913 N   0  0  0  0  0  0  0  0  0  0  0  0
   -3.2070  -15.4101   18.3947 O   0  0  0  0  0  0  0  0  0  0  0  0
   -5.6132  -10.2459   23.0600 O   0  5  0  0  0  0  0  0  0  0  0  0
   -6.0025   -8.2787   19.3302 O   0  0  0  0  0  0  0  0  0  0  0  0
   -7.6192  -11.6243   22.2353 O   0  0  0  0  0  0  0  0  0  0  0  0
   -7.2221   -9.2200   21.3723 O   0  0  0  0  0  0  0  0  0  0  0  0
   -5.3485  -10.6061   20.2510 O   0  5  0  0  0  0  0  0  0  0  0  0
   -8.0107   -9.6119   23.7891 O   0  0  0  0  0  0  0  0  0  0  0  0
   -7.6020  -10.2649   19.0704 O   0  0  0  0  0  0  0  0  0  0  0  0
   -7.3439  -13.4569   19.8423 S   0  0  0  0  0  0  0  0  0  0  0  0
   -7.1757  -10.1438   22.6877 P   0  0  2  0  0  0  0  0  0  0  0  0
   -6.4608   -9.6561   20.0255 P   0  0  2  0  0  0  0  0  0  0  0  0
  2 16  2  0  0  0  0
  2  3  1  0  0  0  0
  2 13  1  0  0  0  0
  3  8  2  0  0  0  0
  3  4  1  0  0  0  0
  4 14  1  0  0  0  0
  5  1  1  1  0  0  0
  5 14  1  0  0  0  0
  5 10  1  0  0  0  0
  6  7  1  0  0  0  0
  7 13  1  0  0  0  0
  7 15  2  0  0  0  0
  8 15  1  0  0  0  0
  9 14  1  0  0  0  0
  9 24  1  0  0  0  0
 10 24  1  0  0  0  0
 10 11  1  6  0  0  0
 11 12  1  0  0  0  0
 12 19  1  0  0  0  0
 17 25  1  0  0  0  0
 19 25  1  0  0  0  0
 20 26  1  0  0  0  0
 21 26  1  0  0  0  0
 22 25  2  0  0  0  0
 23 26  2  0  0  0  0
 25 20  1  6  0  0  0
 26 18  1  6  0  0  0
M  CHG  2  17  -1  21  -1
M  END
>  <CHROM.1>
79.62434048,120.07890544,58.53329938,176.60528870,174.10095149,60.02292264
65.39003172,-147.95500132,-6.22561074,-13.16622000,19.88513955,0.83862154
-1.14582125,3.13799100

>  <Name>
ligand

>  <RI>
0

>  <Rbt.Current_Directory>
/home/itssahil/PROJECTS/Mol_Feturizer/New_Systems/rnas/3D2X

>  <Rbt.Executable>
rbdock ($Id: //depot/dev/client3/rdock/2013.1/src/exe/rbdock.cxx#4 $)

>  <Rbt.Library>
libRbt.so (2013.1, Build901 2013/11/27)

>  <Rbt.Parameter_File>
/export/apps/rDock/src/rDock_2013.1_src/data/scripts/dock_solv.prm

>  <Rbt.Receptor>
prm/pocket_docking_7.prm

>  <SCORE>
-14.9413

>  <SCORE.INTER>
-13.5089

>  <SCORE.INTER.CONST>
1

>  <SCORE.INTER.POLAR>
0

>  <SCORE.INTER.ROT>
8

>  <SCORE.INTER.SOLV>
10.6249

>  <SCORE.INTER.VDW>
-21.4809

>  <SCORE.INTER.norm>
-0.519573

>  <SCORE.INTRA>
-1.43244

>  <SCORE.INTRA.DIHEDRAL>
-0.922637

>  <SCORE.INTRA.DIHEDRAL.0>
7.88077

>  <SCORE.INTRA.POLAR>
0

>  <SCORE.INTRA.POLAR.0>
0

>  <SCORE.INTRA.REPUL>
0

>  <SCORE.INTRA.REPUL.0>
0

>  <SCORE.INTRA.SOLV>
0.105074

>  <SCORE.INTRA.SOLV.lig_0>
-63.2542

>  <SCORE.INTRA.VDW>
-1.02365

>  <SCORE.INTRA.VDW.0>
-3.15072

>  <SCORE.INTRA.norm>
-0.0550937

>  <SCORE.RESTR>
0

>  <SCORE.RESTR.CAVITY>
0

>  <SCORE.RESTR.norm>
0

>  <SCORE.SYSTEM>
0

>  <SCORE.SYSTEM.CONST>
0

>  <SCORE.SYSTEM.DIHEDRAL>
0

>  <SCORE.SYSTEM.SOLV>
0

>  <SCORE.SYSTEM.norm>
0

>  <SCORE.heavy>
26

>  <SCORE.norm>
-0.574667

>  <RMSD>
7.086

$$$$
ligand
 OpenBabel11021811473D
libRbt.so/2013.1/901 2013/11/27
 26 27  0  0  0  0  0  0  0  0999 V2000
   -7.6504  -10.3443   18.4548 C   0  0  0  0  0  0  0  0  0  0  0  0
   -5.4323  -10.4800   21.4591 C   0  0  0  0  0  0  0  0  0  0  0  0
   -6.2508   -9.4677   20.9690 C   0  0  0  0  0  0  0  0  0  0  0  0
   -5.8262   -8.5082   19.8547 C   0  0  0  0  0  0  0  0  0  0  0  0
   -6.2081  -10.0876   18.0081 C   0  0  1  0  0  0  0  0  0  0  0  0
   -7.7529  -12.0756   24.0283 C   0  0  0  0  0  0  0  0  0  0  0  0
   -7.2080  -11.1423   22.9461 C   0  0  0  0  0  0  0  0  0  0  0  0
   -7.5270   -9.3421   21.5085 C   0  0  0  0  0  0  0  0  0  0  0  0
   -4.1710   -9.0829   18.1621 C   0  0  0  0  0  0  0  0  0  0  0  0
   -5.6601  -10.7056   16.8905 C   0  0  2  0  0  0  0  0  0  0  0  0
   -6.2665  -11.6967   15.8937 C   0  0  0  0  0  0  0  0  0  0  0  0
   -5.5810  -13.0648   15.9215 C   0  0  0  0  0  0  0  0  0  0  0  0
   -5.9082  -11.3315   22.4582 N   0  0  0  0  0  0  0  0  0  0  0  0
   -5.3992   -9.2448   18.6563 N   0  0  0  0  0  0  0  0  0  0  0  0
   -7.9667  -10.1532   22.4526 N   0  0  0  0  0  0  0  0  0  0  0  0
   -4.2942  -10.6304   21.0143 O   0  0  0  0  0  0  0  0  0  0  0  0
   -5.2575  -15.4107   19.0639 O   0  5  0  0  0  0  0  0  0  0  0  0
   -5.2080  -18.0538   18.3462 O   0  0  0  0  0  0  0  0  0  0  0  0
   -5.6190  -13.6507   17.2264 O   0  0  0  0  0  0  0  0  0  0  0  0
   -5.5588  -16.1704   16.6512 O   0  0  0  0  0  0  0  0  0  0  0  0
   -5.9121  -18.6269   15.9238 O   0  5  0  0  0  0  0  0  0  0  0  0
   -3.3995  -14.9471   17.3277 O   0  0  0  0  0  0  0  0  0  0  0  0
   -3.5542  -17.7386   16.4131 O   0  0  0  0  0  0  0  0  0  0  0  0
   -4.0094  -10.1579   16.7986 S   0  0  0  0  0  0  0  0  0  0  0  0
   -4.8611  -15.0342   17.5501 P   0  0  2  0  0  0  0  0  0  0  0  0
   -5.1204  -17.7117   16.7758 P   0  0  2  0  0  0  0  0  0  0  0  0
  2 16  2  0  0  0  0
  2  3  1  0  0  0  0
  2 13  1  0  0  0  0
  3  8  2  0  0  0  0
  3  4  1  0  0  0  0
  4 14  1  0  0  0  0
  5  1  1  6  0  0  0
  5 14  1  0  0  0  0
  5 10  1  0  0  0  0
  6  7  1  0  0  0  0
  7 13  1  0  0  0  0
  7 15  2  0  0  0  0
  8 15  1  0  0  0  0
  9 14  1  0  0  0  0
  9 24  1  0  0  0  0
 10 24  1  0  0  0  0
 10 11  1  1  0  0  0
 11 12  1  0  0  0  0
 12 19  1  0  0  0  0
 17 25  1  0  0  0  0
 19 25  1  0  0  0  0
 20 26  1  0  0  0  0
 21 26  1  0  0  0  0
 22 25  2  0  0  0  0
 23 26  2  0  0  0  0
 25 20  1  6  0  0  0
 26 18  1  1  0  0  0
M  CHG  2  17  -1  21  -1
M  END
>  <CHROM.1>
55.08502409,-115.93462185,57.26293379,59.22726708,-174.89214785,-64.17942478
-174.98879010,52.04226069,-5.51563944,-12.90221384,18.57908223,-2.07191539
-1.23005337,-3.11730726

>  <Name>
ligand

>  <RI>
0

>  <Rbt.Current_Directory>
/home/itssahil/PROJECTS/Mol_Feturizer/New_Systems/rnas/3D2X

>  <Rbt.Executable>
rbdock ($Id: //depot/dev/client3/rdock/2013.1/src/exe/rbdock.cxx#4 $)

>  <Rbt.Library>
libRbt.so (2013.1, Build901 2013/11/27)

>  <Rbt.Parameter_File>
/export/apps/rDock/src/rDock_2013.1_src/data/scripts/dock_solv.prm

>  <Rbt.Receptor>
prm/pocket_docking_6.prm

>  <SCORE>
-15.1938

>  <SCORE.INTER>
-12.9328

>  <SCORE.INTER.CONST>
1

>  <SCORE.INTER.POLAR>
0

>  <SCORE.INTER.ROT>
8

>  <SCORE.INTER.SOLV>
8.45103

>  <SCORE.INTER.VDW>
-20.3722

>  <SCORE.INTER.norm>
-0.497414

>  <SCORE.INTRA>
-2.26104

>  <SCORE.INTRA.DIHEDRAL>
-2.494

>  <SCORE.INTRA.DIHEDRAL.0>
7.88077

>  <SCORE.INTRA.POLAR>
0

>  <SCORE.INTRA.POLAR.0>
0

>  <SCORE.INTRA.REPUL>
0

>  <SCORE.INTRA.REPUL.0>
0

>  <SCORE.INTRA.SOLV>
-0.951695

>  <SCORE.INTRA.SOLV.lig_0>
-63.2542

>  <SCORE.INTRA.VDW>
-0.538197

>  <SCORE.INTRA.VDW.0>
-3.15072

>  <SCORE.INTRA.norm>
-0.0869632

>  <SCORE.RESTR>
0

>  <SCORE.RESTR.CAVITY>
0

>  <SCORE.RESTR.norm>
0

>  <SCORE.SYSTEM>
0

>  <SCORE.SYSTEM.CONST>
0

>  <SCORE.SYSTEM.DIHEDRAL>
0

>  <SCORE.SYSTEM.SOLV>
0

>  <SCORE.SYSTEM.norm>
0

>  <SCORE.heavy>
26

>  <SCORE.norm>
-0.584377

>  <RMSD>
7.161

$$$$
ligand
 OpenBabel11021811473D
libRbt.so/2013.1/901 2013/11/27
 26 27  0  0  0  0  0  0  0  0999 V2000
   -7.0767  -12.9947   19.6504 C   0  0  0  0  0  0  0  0  0  0  0  0
   -4.7565  -12.0343   22.4761 C   0  0  0  0  0  0  0  0  0  0  0  0
   -5.2488  -10.8562   21.9243 C   0  0  0  0  0  0  0  0  0  0  0  0
   -6.6921  -10.6923   21.4420 C   0  0  0  0  0  0  0  0  0  0  0  0
   -6.9145  -11.5564   19.1499 C   0  0  1  0  0  0  0  0  0  0  0  0
   -1.1818  -10.9879   23.2877 C   0  0  0  0  0  0  0  0  0  0  0  0
   -2.6286  -10.9506   22.7932 C   0  0  0  0  0  0  0  0  0  0  0  0
   -4.3856   -9.7693   21.8304 C   0  0  0  0  0  0  0  0  0  0  0  0
   -6.6397   -9.3143   19.4337 C   0  0  0  0  0  0  0  0  0  0  0  0
   -6.9487  -11.2368   17.7978 C   0  0  2  0  0  0  0  0  0  0  0  0
   -7.1439  -12.1200   16.5628 C   0  0  0  0  0  0  0  0  0  0  0  0
   -5.9018  -12.9446   16.2172 C   0  0  0  0  0  0  0  0  0  0  0  0
   -3.4333  -12.0908   22.9185 N   0  0  0  0  0  0  0  0  0  0  0  0
   -6.7465  -10.5252   19.9825 N   0  0  0  0  0  0  0  0  0  0  0  0
   -3.1364   -9.8338   22.2523 N   0  0  0  0  0  0  0  0  0  0  0  0
   -5.4816  -13.0240   22.5793 O   0  0  0  0  0  0  0  0  0  0  0  0
   -4.0623  -15.5423   18.5009 O   0  5  0  0  0  0  0  0  0  0  0  0
   -4.9003  -18.0896   18.2255 O   0  0  0  0  0  0  0  0  0  0  0  0
   -5.5451  -13.8363   17.2780 O   0  0  0  0  0  0  0  0  0  0  0  0
   -5.4215  -16.2926   16.4812 O   0  0  0  0  0  0  0  0  0  0  0  0
   -5.7407  -18.7877   15.8806 O   0  5  0  0  0  0  0  0  0  0  0  0
   -3.4154  -14.7198   16.1373 O   0  0  0  0  0  0  0  0  0  0  0  0
   -3.3864  -17.8090   16.1760 O   0  0  0  0  0  0  0  0  0  0  0  0
   -6.6786   -9.5189   17.7024 S   0  0  0  0  0  0  0  0  0  0  0  0
   -4.5379  -15.0697   17.0377 P   0  0  2  0  0  0  0  0  0  0  0  0
   -4.9258  -17.8133   16.6400 P   0  0  2  0  0  0  0  0  0  0  0  0
  2 16  2  0  0  0  0
  2  3  1  0  0  0  0
  2 13  1  0  0  0  0
  3  8  2  0  0  0  0
  3  4  1  0  0  0  0
  4 14  1  0  0  0  0
  5  1  1  1  0  0  0
  5 14  1  0  0  0  0
  5 10  1  0  0  0  0
  6  7  1  0  0  0  0
  7 13  1  0  0  0  0
  7 15  2  0  0  0  0
  8 15  1  0  0  0  0
  9 14  1  0  0  0  0
  9 24  1  0  0  0  0
 10 24  1  0  0  0  0
 10 11  1  6  0  0  0
 11 12  1  0  0  0  0
 12 19  1  0  0  0  0
 17 25  1  0  0  0  0
 19 25  1  0  0  0  0
 20 26  1  0  0  0  0
 21 26  1  0  0  0  0
 22 25  2  0  0  0  0
 23 26  2  0  0  0  0
 25 20  1  6  0  0  0
 26 18  1  1  0  0  0
M  CHG  2  17  -1  21  -1
M  END
>  <CHROM.1>
-113.06598332,-75.05241561,60.99766286,92.86831125,163.75115707,-44.63908904
163.79083399,64.51005011,-5.12241889,-13.32381762,18.88374990,1.56768690
-0.89948720,0.63840851

>  <Name>
ligand

>  <RI>
0

>  <Rbt.Current_Directory>
/home/itssahil/PROJECTS/Mol_Feturizer/New_Systems/rnas/3D2X

>  <Rbt.Executable>
rbdock ($Id: //depot/dev/client3/rdock/2013.1/src/exe/rbdock.cxx#4 $)

>  <Rbt.Library>
libRbt.so (2013.1, Build901 2013/11/27)

>  <Rbt.Parameter_File>
/export/apps/rDock/src/rDock_2013.1_src/data/scripts/dock_solv.prm

>  <Rbt.Receptor>
prm/pocket_docking_6.prm

>  <SCORE>
-10.6046

>  <SCORE.INTER>
-9.70129

>  <SCORE.INTER.CONST>
1

>  <SCORE.INTER.POLAR>
0

>  <SCORE.INTER.ROT>
8

>  <SCORE.INTER.SOLV>
5.58151

>  <SCORE.INTER.VDW>
-17.2614

>  <SCORE.INTER.norm>
-0.373127

>  <SCORE.INTRA>
-0.903283

>  <SCORE.INTRA.DIHEDRAL>
-0.643781

>  <SCORE.INTRA.DIHEDRAL.0>
7.88077

>  <SCORE.INTRA.POLAR>
0

>  <SCORE.INTRA.POLAR.0>
0

>  <SCORE.INTRA.REPUL>
0

>  <SCORE.INTRA.REPUL.0>
0

>  <SCORE.INTRA.SOLV>
-0.0980387

>  <SCORE.INTRA.SOLV.lig_0>
-63.2542

>  <SCORE.INTRA.VDW>
-0.532373

>  <SCORE.INTRA.VDW.0>
-3.15072

>  <SCORE.INTRA.norm>
-0.0347417

>  <SCORE.RESTR>
0

>  <SCORE.RESTR.CAVITY>
0

>  <SCORE.RESTR.norm>
0

>  <SCORE.SYSTEM>
0

>  <SCORE.SYSTEM.CONST>
0

>  <SCORE.SYSTEM.DIHEDRAL>
0

>  <SCORE.SYSTEM.SOLV>
0

>  <SCORE.SYSTEM.norm>
0

>  <SCORE.heavy>
26

>  <SCORE.norm>
-0.407868

>  <RMSD>
7.305

$$$$
ligand
 OpenBabel11021811473D
libRbt.so/2013.1/901 2013/11/27
 26 27  0  0  0  0  0  0  0  0999 V2000
   -6.6649  -19.4511   17.7188 C   0  0  0  0  0  0  0  0  0  0  0  0
   -6.8651  -16.8287   21.7128 C   0  0  0  0  0  0  0  0  0  0  0  0
   -8.0043  -16.9571   20.9250 C   0  0  0  0  0  0  0  0  0  0  0  0
   -7.9827  -17.5143   19.4997 C   0  0  0  0  0  0  0  0  0  0  0  0
   -6.0968  -18.0606   18.0180 C   0  0  1  0  0  0  0  0  0  0  0  0
   -8.3874  -15.4588   24.9282 C   0  0  0  0  0  0  0  0  0  0  0  0
   -8.2430  -15.9826   23.4986 C   0  0  0  0  0  0  0  0  0  0  0  0
   -9.2245  -16.5790   21.4760 C   0  0  0  0  0  0  0  0  0  0  0  0
   -6.1391  -16.0042   18.9940 C   0  0  0  0  0  0  0  0  0  0  0  0
   -4.9097  -17.6106   17.4526 C   0  0  2  0  0  0  0  0  0  0  0  0
   -3.9437  -18.2869   16.4764 C   0  0  0  0  0  0  0  0  0  0  0  0
   -2.4916  -18.2584   16.9588 C   0  0  0  0  0  0  0  0  0  0  0  0
   -6.9766  -16.3374   23.0151 N   0  0  0  0  0  0  0  0  0  0  0  0
   -6.7157  -17.1951   18.8259 N   0  0  0  0  0  0  0  0  0  0  0  0
   -9.3182  -16.1162   22.7088 N   0  0  0  0  0  0  0  0  0  0  0  0
   -5.7622  -17.1489   21.2692 O   0  0  0  0  0  0  0  0  0  0  0  0
   -0.7272  -20.8799   17.2231 O   0  5  0  0  0  0  0  0  0  0  0  0
   -4.3724  -19.8346   14.1747 O   0  0  0  0  0  0  0  0  0  0  0  0
   -1.5978  -18.8039   15.9834 O   0  0  0  0  0  0  0  0  0  0  0  0
   -2.8431  -21.0633   15.8164 O   0  0  0  0  0  0  0  0  0  0  0  0
   -2.8105  -21.7077   13.3119 O   0  5  0  0  0  0  0  0  0  0  0  0
   -0.5742  -20.7483   14.6461 O   0  0  0  0  0  0  0  0  0  0  0  0
   -4.8366  -22.2820   14.7795 O   0  0  0  0  0  0  0  0  0  0  0  0
   -4.6383  -16.0192   18.1063 S   0  0  0  0  0  0  0  0  0  0  0  0
   -1.3816  -20.3928   15.8356 P   0  0  2  0  0  0  0  0  0  0  0  0
   -3.6519  -21.2493   14.4399 P   0  0  2  0  0  0  0  0  0  0  0  0
  2 16  2  0  0  0  0
  2  3  1  0  0  0  0
  2 13  1  0  0  0  0
  3  8  2  0  0  0  0
  3  4  1  0  0  0  0
  4 14  1  0  0  0  0
  5  1  1  6  0  0  0
  5 14  1  0  0  0  0
  5 10  1  0  0  0  0
  6  7  1  0  0  0  0
  7 13  1  0  0  0  0
  7 15  2  0  0  0  0
  8 15  1  0  0  0  0
  9 14  1  0  0  0  0
  9 24  1  0  0  0  0
 10 24  1  0  0  0  0
 10 11  1  1  0  0  0
 11 12  1  0  0  0  0
 12 19  1  0  0  0  0
 17 25  1  0  0  0  0
 19 25  1  0  0  0  0
 20 26  1  0  0  0  0
 21 26  1  0  0  0  0
 22 25  2  0  0  0  0
 23 26  2  0  0  0  0
 25 20  1  6  0  0  0
 26 18  1  6  0  0  0
M  CHG  2  17  -1  21  -1
M  END
>  <CHROM.1>
-31.57515197,-128.49984340,-175.52023393,141.05963191,-81.75072386,-159.65362690
-63.84073297,-83.45114310,-4.82130455,-18.55782898,17.96011266,2.14543603
0.11169390,0.93740045

>  <Name>
ligand

>  <RI>
0

>  <Rbt.Current_Directory>
/home/itssahil/PROJECTS/Mol_Feturizer/New_Systems/rnas/3D2X

>  <Rbt.Executable>
rbdock ($Id: //depot/dev/client3/rdock/2013.1/src/exe/rbdock.cxx#4 $)

>  <Rbt.Library>
libRbt.so (2013.1, Build901 2013/11/27)

>  <Rbt.Parameter_File>
/export/apps/rDock/src/rDock_2013.1_src/data/scripts/dock_solv.prm

>  <Rbt.Receptor>
prm/blind_docking_100.prm

>  <SCORE>
-8.7154

>  <SCORE.INTER>
-10.2848

>  <SCORE.INTER.CONST>
1

>  <SCORE.INTER.POLAR>
0

>  <SCORE.INTER.ROT>
8

>  <SCORE.INTER.SOLV>
20.8427

>  <SCORE.INTER.VDW>
-22.7375

>  <SCORE.INTER.norm>
-0.39557

>  <SCORE.INTRA>
1.1935

>  <SCORE.INTRA.DIHEDRAL>
0.910127

>  <SCORE.INTRA.DIHEDRAL.0>
7.88077

>  <SCORE.INTRA.POLAR>
0

>  <SCORE.INTRA.POLAR.0>
0

>  <SCORE.INTRA.REPUL>
0

>  <SCORE.INTRA.REPUL.0>
0

>  <SCORE.INTRA.SOLV>
-0.417524

>  <SCORE.INTRA.SOLV.lig_0>
-63.2542

>  <SCORE.INTRA.VDW>
0.947196

>  <SCORE.INTRA.VDW.0>
-3.15072

>  <SCORE.INTRA.norm>
0.0459038

>  <SCORE.RESTR>
0.375923

>  <SCORE.RESTR.CAVITY>
0.375923

>  <SCORE.RESTR.norm>
0.0144586

>  <SCORE.SYSTEM>
0

>  <SCORE.SYSTEM.CONST>
0

>  <SCORE.SYSTEM.DIHEDRAL>
0

>  <SCORE.SYSTEM.SOLV>
0

>  <SCORE.SYSTEM.norm>
0

>  <SCORE.heavy>
26

>  <SCORE.norm>
-0.335208

>  <RMSD>
7.324

$$$$
ligand
 OpenBabel11021811473D
libRbt.so/2013.1/901 2013/11/27
 26 27  0  0  0  0  0  0  0  0999 V2000
   -2.6029  -13.3866   16.4019 C   0  0  0  0  0  0  0  0  0  0  0  0
   -6.2468  -13.0101   17.8099 C   0  0  0  0  0  0  0  0  0  0  0  0
   -5.9119  -12.8746   16.4667 C   0  0  0  0  0  0  0  0  0  0  0  0
   -5.3660  -14.0239   15.6159 C   0  0  0  0  0  0  0  0  0  0  0  0
   -3.3109  -14.6868   16.7938 C   0  0  1  0  0  0  0  0  0  0  0  0
   -7.5217   -9.4992   18.5720 C   0  0  0  0  0  0  0  0  0  0  0  0
   -6.9378  -10.7025   17.8301 C   0  0  0  0  0  0  0  0  0  0  0  0
   -6.1072  -11.6343   15.8676 C   0  0  0  0  0  0  0  0  0  0  0  0
   -5.0898  -16.1066   16.8493 C   0  0  0  0  0  0  0  0  0  0  0  0
   -2.6906  -15.6617   17.5661 C   0  0  2  0  0  0  0  0  0  0  0  0
   -1.2910  -15.7117   18.1841 C   0  0  0  0  0  0  0  0  0  0  0  0
   -1.2780  -15.3176   19.6629 C   0  0  0  0  0  0  0  0  0  0  0  0
   -6.7666  -11.9174   18.5068 N   0  0  0  0  0  0  0  0  0  0  0  0
   -4.5687  -14.9526   16.4301 N   0  0  0  0  0  0  0  0  0  0  0  0
   -6.5998  -10.6081   16.5360 N   0  0  0  0  0  0  0  0  0  0  0  0
   -6.0908  -14.0876   18.3847 O   0  0  0  0  0  0  0  0  0  0  0  0
   -0.1052  -13.6643   21.9632 O   0  5  0  0  0  0  0  0  0  0  0  0
    1.0240  -11.6537   20.2420 O   0  0  0  0  0  0  0  0  0  0  0  0
   -1.5331  -13.9210   19.8420 O   0  0  0  0  0  0  0  0  0  0  0  0
   -1.3940  -11.6538   21.0765 O   0  0  0  0  0  0  0  0  0  0  0  0
   -0.9100  -11.3015   18.5605 O   0  5  0  0  0  0  0  0  0  0  0  0
   -2.6847  -13.6179   22.1221 O   0  0  0  0  0  0  0  0  0  0  0  0
   -0.3277   -9.4758   20.2681 O   0  0  0  0  0  0  0  0  0  0  0  0
   -3.8410  -16.9606   17.7164 S   0  0  0  0  0  0  0  0  0  0  0  0
   -1.5104  -13.2418   21.3019 P   0  0  2  0  0  0  0  0  0  0  0  0
   -0.4352  -11.0459   19.9388 P   0  0  2  0  0  0  0  0  0  0  0  0
  2 16  2  0  0  0  0
  2  3  1  0  0  0  0
  2 13  1  0  0  0  0
  3  8  2  0  0  0  0
  3  4  1  0  0  0  0
  4 14  1  0  0  0  0
  5  1  1  1  0  0  0
  5 14  1  0  0  0  0
  5 10  1  0  0  0  0
  6  7  1  0  0  0  0
  7 13  1  0  0  0  0
  7 15  2  0  0  0  0
  8 15  1  0  0  0  0
  9 14  1  0  0  0  0
  9 24  1  0  0  0  0
 10 24  1  0  0  0  0
 10 11  1  6  0  0  0
 11 12  1  0  0  0  0
 12 19  1  0  0  0  0
 17 25  1  0  0  0  0
 19 25  1  0  0  0  0
 20 26  1  0  0  0  0
 21 26  1  0  0  0  0
 22 25  2  0  0  0  0
 23 26  2  0  0  0  0
 25 20  1  6  0  0  0
 26 18  1  1  0  0  0
M  CHG  2  17  -1  21  -1
M  END
>  <CHROM.1>
-31.65250999,98.66582351,-70.27014289,-78.44761573,-177.33404460,71.59869398
52.09768240,-55.30570877,-3.15624835,-13.14486311,18.73370922,-2.85337035
-0.54693358,0.27967787

>  <Name>
ligand

>  <RI>
0

>  <Rbt.Current_Directory>
/home/itssahil/PROJECTS/Mol_Feturizer/New_Systems/rnas/3D2X

>  <Rbt.Executable>
rbdock ($Id: //depot/dev/client3/rdock/2013.1/src/exe/rbdock.cxx#4 $)

>  <Rbt.Library>
libRbt.so (2013.1, Build901 2013/11/27)

>  <Rbt.Parameter_File>
/export/apps/rDock/src/rDock_2013.1_src/data/scripts/dock_solv.prm

>  <Rbt.Receptor>
prm/pocket_docking_5.prm

>  <SCORE>
-11.9875

>  <SCORE.INTER>
-9.39399

>  <SCORE.INTER.CONST>
1

>  <SCORE.INTER.POLAR>
0

>  <SCORE.INTER.ROT>
8

>  <SCORE.INTER.SOLV>
8.97454

>  <SCORE.INTER.VDW>
-18.1875

>  <SCORE.INTER.norm>
-0.361307

>  <SCORE.INTRA>
-2.59349

>  <SCORE.INTRA.DIHEDRAL>
-1.67427

>  <SCORE.INTRA.DIHEDRAL.0>
7.88077

>  <SCORE.INTRA.POLAR>
0

>  <SCORE.INTRA.POLAR.0>
0

>  <SCORE.INTRA.REPUL>
0

>  <SCORE.INTRA.REPUL.0>
0

>  <SCORE.INTRA.SOLV>
-0.952225

>  <SCORE.INTRA.SOLV.lig_0>
-63.2542

>  <SCORE.INTRA.VDW>
-1.28024

>  <SCORE.INTRA.VDW.0>
-3.15072

>  <SCORE.INTRA.norm>
-0.0997494

>  <SCORE.RESTR>
0

>  <SCORE.RESTR.CAVITY>
0

>  <SCORE.RESTR.norm>
0

>  <SCORE.SYSTEM>
0

>  <SCORE.SYSTEM.CONST>
0

>  <SCORE.SYSTEM.DIHEDRAL>
0

>  <SCORE.SYSTEM.SOLV>
0

>  <SCORE.SYSTEM.norm>
0

>  <SCORE.heavy>
26

>  <SCORE.norm>
-0.461057

>  <RMSD>
7.336

$$$$
ligand
 OpenBabel11021811473D
libRbt.so/2013.1/901 2013/11/27
 26 27  0  0  0  0  0  0  0  0999 V2000
   -4.3176  -10.2937   16.7935 C   0  0  0  0  0  0  0  0  0  0  0  0
   -5.4387   -8.9239   20.9810 C   0  0  0  0  0  0  0  0  0  0  0  0
   -6.4768   -9.0938   20.0709 C   0  0  0  0  0  0  0  0  0  0  0  0
   -6.2894   -9.0017   18.5546 C   0  0  0  0  0  0  0  0  0  0  0  0
   -5.6931  -10.8934   17.0999 C   0  0  1  0  0  0  0  0  0  0  0  0
   -7.2823   -9.5145   24.2651 C   0  0  0  0  0  0  0  0  0  0  0  0
   -6.9914   -9.3521   22.7724 C   0  0  0  0  0  0  0  0  0  0  0  0
   -7.7420   -9.3843   20.5712 C   0  0  0  0  0  0  0  0  0  0  0  0
   -7.7285  -10.9187   18.1196 C   0  0  0  0  0  0  0  0  0  0  0  0
   -6.1038  -12.1096   16.5673 C   0  0  2  0  0  0  0  0  0  0  0  0
   -5.3854  -13.0917   15.6384 C   0  0  0  0  0  0  0  0  0  0  0  0
   -5.1185  -14.4477   16.2961 C   0  0  0  0  0  0  0  0  0  0  0  0
   -5.6897   -9.0532   22.3485 N   0  0  0  0  0  0  0  0  0  0  0  0
   -6.5707  -10.2914   17.9075 N   0  0  0  0  0  0  0  0  0  0  0  0
   -7.9678   -9.5048   21.8662 N   0  0  0  0  0  0  0  0  0  0  0  0
   -4.3016   -8.6642   20.5869 O   0  0  0  0  0  0  0  0  0  0  0  0
   -5.5767  -15.9821   18.9224 O   0  5  0  0  0  0  0  0  0  0  0  0
   -2.1108  -15.6447   15.8458 O   0  0  0  0  0  0  0  0  0  0  0  0
   -4.2809  -14.3220   17.4495 O   0  0  0  0  0  0  0  0  0  0  0  0
   -3.5215  -16.7851   17.6493 O   0  0  0  0  0  0  0  0  0  0  0  0
   -0.9750  -16.5059   18.0046 O   0  5  0  0  0  0  0  0  0  0  0  0
   -3.2261  -15.1764   19.6346 O   0  0  0  0  0  0  0  0  0  0  0  0
   -1.8742  -18.1629   16.2627 O   0  0  0  0  0  0  0  0  0  0  0  0
   -7.7279  -12.3631   17.1426 S   0  0  0  0  0  0  0  0  0  0  0  0
   -4.0918  -15.5377   18.4886 P   0  0  2  0  0  0  0  0  0  0  0  0
   -2.0459  -16.7512   17.0129 P   0  0  2  0  0  0  0  0  0  0  0  0
  2 16  2  0  0  0  0
  2  3  1  0  0  0  0
  2 13  1  0  0  0  0
  3  8  2  0  0  0  0
  3  4  1  0  0  0  0
  4 14  1  0  0  0  0
  5  1  1  1  0  0  0
  5 14  1  0  0  0  0
  5 10  1  0  0  0  0
  6  7  1  0  0  0  0
  7 13  1  0  0  0  0
  7 15  2  0  0  0  0
  8 15  1  0  0  0  0
  9 14  1  0  0  0  0
  9 24  1  0  0  0  0
 10 24  1  0  0  0  0
 10 11  1  6  0  0  0
 11 12  1  0  0  0  0
 12 19  1  0  0  0  0
 17 25  1  0  0  0  0
 19 25  1  0  0  0  0
 20 26  1  0  0  0  0
 21 26  1  0  0  0  0
 22 25  2  0  0  0  0
 23 26  2  0  0  0  0
 25 20  1  6  0  0  0
 26 18  1  6  0  0  0
M  CHG  2  17  -1  21  -1
M  END
>  <CHROM.1>
115.87775306,115.89629694,-60.97128279,-125.66681478,167.41980603,179.58452288
-53.28256100,-68.28609280,-4.99607721,-12.84863534,18.53689875,2.39204980
-0.91865338,1.19297369

>  <Name>
ligand

>  <RI>
0

>  <Rbt.Current_Directory>
/home/itssahil/PROJECTS/Mol_Feturizer/New_Systems/rnas/3D2X

>  <Rbt.Executable>
rbdock ($Id: //depot/dev/client3/rdock/2013.1/src/exe/rbdock.cxx#4 $)

>  <Rbt.Library>
libRbt.so (2013.1, Build901 2013/11/27)

>  <Rbt.Parameter_File>
/export/apps/rDock/src/rDock_2013.1_src/data/scripts/dock_solv.prm

>  <Rbt.Receptor>
prm/pocket_docking_6.prm

>  <SCORE>
-15.216

>  <SCORE.INTER>
-12.3063

>  <SCORE.INTER.CONST>
1

>  <SCORE.INTER.POLAR>
0

>  <SCORE.INTER.ROT>
8

>  <SCORE.INTER.SOLV>
12.1044

>  <SCORE.INTER.VDW>
-21.1723

>  <SCORE.INTER.norm>
-0.47332

>  <SCORE.INTRA>
-2.90968

>  <SCORE.INTRA.DIHEDRAL>
-1.8503

>  <SCORE.INTRA.DIHEDRAL.0>
7.88077

>  <SCORE.INTRA.POLAR>
0

>  <SCORE.INTRA.POLAR.0>
0

>  <SCORE.INTRA.REPUL>
0

>  <SCORE.INTRA.REPUL.0>
0

>  <SCORE.INTRA.SOLV>
-2.51973

>  <SCORE.INTRA.SOLV.lig_0>
-63.2542

>  <SCORE.INTRA.VDW>
-0.724663

>  <SCORE.INTRA.VDW.0>
-3.15072

>  <SCORE.INTRA.norm>
-0.111911

>  <SCORE.RESTR>
0

>  <SCORE.RESTR.CAVITY>
0

>  <SCORE.RESTR.norm>
0

>  <SCORE.SYSTEM>
0

>  <SCORE.SYSTEM.CONST>
0

>  <SCORE.SYSTEM.DIHEDRAL>
0

>  <SCORE.SYSTEM.SOLV>
0

>  <SCORE.SYSTEM.norm>
0

>  <SCORE.heavy>
26

>  <SCORE.norm>
-0.585231

>  <RMSD>
7.347

$$$$
ligand
 OpenBabel11021811473D
libRbt.so/2013.1/901 2013/11/27
 26 27  0  0  0  0  0  0  0  0999 V2000
   -6.2522  -12.7353   20.6758 C   0  0  0  0  0  0  0  0  0  0  0  0
   -4.1225   -9.4322   22.0783 C   0  0  0  0  0  0  0  0  0  0  0  0
   -4.9298  -10.4127   22.6453 C   0  0  0  0  0  0  0  0  0  0  0  0
   -6.4533  -10.4353   22.5003 C   0  0  0  0  0  0  0  0  0  0  0  0
   -6.7641  -11.3586   20.2417 C   0  0  1  0  0  0  0  0  0  0  0  0
   -0.6737  -10.6680   23.1324 C   0  0  0  0  0  0  0  0  0  0  0  0
   -2.1905  -10.5654   22.9650 C   0  0  0  0  0  0  0  0  0  0  0  0
   -4.3116  -11.4338   23.3600 C   0  0  0  0  0  0  0  0  0  0  0  0
   -7.3346   -9.1847   20.6044 C   0  0  0  0  0  0  0  0  0  0  0  0
   -7.1831  -11.1029   18.9416 C   0  0  2  0  0  0  0  0  0  0  0  0
   -7.2558  -12.0139   17.7134 C   0  0  0  0  0  0  0  0  0  0  0  0
   -5.8784  -12.3431   17.1331 C   0  0  0  0  0  0  0  0  0  0  0  0
   -2.7366   -9.5018   22.2344 N   0  0  0  0  0  0  0  0  0  0  0  0
   -6.8521  -10.3297   21.0893 N   0  0  0  0  0  0  0  0  0  0  0  0
   -3.0003  -11.4900   23.5008 N   0  0  0  0  0  0  0  0  0  0  0  0
   -4.6230   -8.5075   21.4378 O   0  0  0  0  0  0  0  0  0  0  0  0
   -3.8532  -12.7006   14.7931 O   0  5  0  0  0  0  0  0  0  0  0  0
   -5.4423  -15.4277   18.2066 O   0  0  0  0  0  0  0  0  0  0  0  0
   -5.9569  -13.3495   16.1188 O   0  0  0  0  0  0  0  0  0  0  0  0
   -3.6802  -14.4666   16.6208 O   0  0  0  0  0  0  0  0  0  0  0  0
   -4.0969  -17.0185   16.6732 O   0  5  0  0  0  0  0  0  0  0  0  0
   -4.9403  -15.0202   14.4477 O   0  0  0  0  0  0  0  0  0  0  0  0
   -2.9516  -15.8439   18.6473 O   0  0  0  0  0  0  0  0  0  0  0  0
   -7.6278   -9.4195   18.9016 S   0  0  0  0  0  0  0  0  0  0  0  0
   -4.6333  -13.9558   15.4306 P   0  0  2  0  0  0  0  0  0  0  0  0
   -4.0510  -15.7760   17.4760 P   0  0  2  0  0  0  0  0  0  0  0  0
  2 16  2  0  0  0  0
  2  3  1  0  0  0  0
  2 13  1  0  0  0  0
  3  8  2  0  0  0  0
  3  4  1  0  0  0  0
  4 14  1  0  0  0  0
  5  1  1  1  0  0  0
  5 14  1  0  0  0  0
  5 10  1  0  0  0  0
  6  7  1  0  0  0  0
  7 13  1  0  0  0  0
  7 15  2  0  0  0  0
  8 15  1  0  0  0  0
  9 14  1  0  0  0  0
  9 24  1  0  0  0  0
 10 24  1  0  0  0  0
 10 11  1  6  0  0  0
 11 12  1  0  0  0  0
 12 19  1  0  0  0  0
 17 25  1  0  0  0  0
 19 25  1  0  0  0  0
 20 26  1  0  0  0  0
 21 26  1  0  0  0  0
 22 25  2  0  0  0  0
 23 26  2  0  0  0  0
 25 20  1  1  0  0  0
 26 18  1  1  0  0  0
M  CHG  2  17  -1  21  -1
M  END
>  <CHROM.1>
51.78232147,-72.30695883,171.21362631,76.27487316,-175.19498408,-176.43560011
-57.75114094,-62.48733261,-4.94912556,-12.32951294,19.10052330,1.57692135
-0.65215640,0.89175554

>  <Name>
ligand

>  <RI>
0

>  <Rbt.Current_Directory>
/home/itssahil/PROJECTS/Mol_Feturizer/New_Systems/rnas/3D2X

>  <Rbt.Executable>
rbdock ($Id: //depot/dev/client3/rdock/2013.1/src/exe/rbdock.cxx#4 $)

>  <Rbt.Library>
libRbt.so (2013.1, Build901 2013/11/27)

>  <Rbt.Parameter_File>
/export/apps/rDock/src/rDock_2013.1_src/data/scripts/dock_solv.prm

>  <Rbt.Receptor>
prm/pocket_docking_5.prm

>  <SCORE>
-12.5291

>  <SCORE.INTER>
-8.59273

>  <SCORE.INTER.CONST>
1

>  <SCORE.INTER.POLAR>
0

>  <SCORE.INTER.ROT>
8

>  <SCORE.INTER.SOLV>
7.90523

>  <SCORE.INTER.VDW>
-17.2969

>  <SCORE.INTER.norm>
-0.33049

>  <SCORE.INTRA>
-3.93642

>  <SCORE.INTRA.DIHEDRAL>
-2.70276

>  <SCORE.INTRA.DIHEDRAL.0>
7.88077

>  <SCORE.INTRA.POLAR>
0

>  <SCORE.INTRA.POLAR.0>
0

>  <SCORE.INTRA.REPUL>
0

>  <SCORE.INTRA.REPUL.0>
0

>  <SCORE.INTRA.SOLV>
-2.50046

>  <SCORE.INTRA.SOLV.lig_0>
-63.2542

>  <SCORE.INTRA.VDW>
-1.33481

>  <SCORE.INTRA.VDW.0>
-3.15072

>  <SCORE.INTRA.norm>
-0.151401

>  <SCORE.RESTR>
0

>  <SCORE.RESTR.CAVITY>
0

>  <SCORE.RESTR.norm>
0

>  <SCORE.SYSTEM>
0

>  <SCORE.SYSTEM.CONST>
0

>  <SCORE.SYSTEM.DIHEDRAL>
0

>  <SCORE.SYSTEM.SOLV>
0

>  <SCORE.SYSTEM.norm>
0

>  <SCORE.heavy>
26

>  <SCORE.norm>
-0.48189

>  <RMSD>
7.380

$$$$
ligand
 OpenBabel11021811473D
libRbt.so/2013.1/901 2013/11/27
 26 27  0  0  0  0  0  0  0  0999 V2000
  -10.0218  -16.0597   22.8816 C   0  0  0  0  0  0  0  0  0  0  0  0
   -6.0417  -16.7409   19.3407 C   0  0  0  0  0  0  0  0  0  0  0  0
   -7.2651  -17.3357   19.6309 C   0  0  0  0  0  0  0  0  0  0  0  0
   -8.2790  -16.7392   20.6101 C   0  0  0  0  0  0  0  0  0  0  0  0
   -8.5814  -16.5542   23.0441 C   0  0  1  0  0  0  0  0  0  0  0  0
   -4.6678  -19.1870   16.7596 C   0  0  0  0  0  0  0  0  0  0  0  0
   -5.5841  -18.5286   17.7921 C   0  0  0  0  0  0  0  0  0  0  0  0
   -7.5857  -18.5209   18.9767 C   0  0  0  0  0  0  0  0  0  0  0  0
   -6.5798  -17.3053   22.2615 C   0  0  0  0  0  0  0  0  0  0  0  0
   -7.9964  -16.7270   24.2929 C   0  0  2  0  0  0  0  0  0  0  0  0
   -8.5552  -16.5092   25.7013 C   0  0  0  0  0  0  0  0  0  0  0  0
   -7.9646  -15.2784   26.3932 C   0  0  0  0  0  0  0  0  0  0  0  0
   -5.1859  -17.3368   18.4120 N   0  0  0  0  0  0  0  0  0  0  0  0
   -7.8099  -16.8623   21.9979 N   0  0  0  0  0  0  0  0  0  0  0  0
   -6.7691  -19.0752   18.1001 N   0  0  0  0  0  0  0  0  0  0  0  0
   -5.7124  -15.6920   19.8950 O   0  0  0  0  0  0  0  0  0  0  0  0
   -5.0543  -13.6634   25.6629 O   0  5  0  0  0  0  0  0  0  0  0  0
   -7.3413  -10.6556   28.1774 O   0  0  0  0  0  0  0  0  0  0  0  0
   -6.5777  -15.4557   26.6980 O   0  0  0  0  0  0  0  0  0  0  0  0
   -6.5914  -13.0304   27.5932 O   0  0  0  0  0  0  0  0  0  0  0  0
   -4.8766  -11.3474   28.5500 O   0  5  0  0  0  0  0  0  0  0  0  0
   -4.5727  -14.5612   28.0385 O   0  0  0  0  0  0  0  0  0  0  0  0
   -5.7974  -11.0600   26.1714 O   0  0  0  0  0  0  0  0  0  0  0  0
   -6.3626  -17.2493   23.9908 S   0  0  0  0  0  0  0  0  0  0  0  0
   -5.6302  -14.2062   27.0644 P   0  0  2  0  0  0  0  0  0  0  0  0
   -6.0695  -11.5133   27.6899 P   0  0  2  0  0  0  0  0  0  0  0  0
  2 16  2  0  0  0  0
  2  3  1  0  0  0  0
  2 13  1  0  0  0  0
  3  8  2  0  0  0  0
  3  4  1  0  0  0  0
  4 14  1  0  0  0  0
  5  1  1  1  0  0  0
  5 14  1  0  0  0  0
  5 10  1  0  0  0  0
  6  7  1  0  0  0  0
  7 13  1  0  0  0  0
  7 15  2  0  0  0  0
  8 15  1  0  0  0  0
  9 14  1  0  0  0  0
  9 24  1  0  0  0  0
 10 24  1  0  0  0  0
 10 11  1  6  0  0  0
 11 12  1  0  0  0  0
 12 19  1  0  0  0  0
 17 25  1  0  0  0  0
 19 25  1  0  0  0  0
 20 26  1  0  0  0  0
 21 26  1  0  0  0  0
 22 25  2  0  0  0  0
 23 26  2  0  0  0  0
 25 20  1  1  0  0  0
 26 18  1  1  0  0  0
M  CHG  2  17  -1  21  -1
M  END
>  <CHROM.1>
-71.62967808,-107.86069245,-68.04666592,-172.26895098,163.74159958,-51.75342831
-88.34328018,176.96331327,-6.54948077,-15.36161229,23.83953451,1.62176689
-0.63190503,-2.10403826

>  <Name>
ligand

>  <RI>
0

>  <Rbt.Current_Directory>
/home/itssahil/PROJECTS/Mol_Feturizer/New_Systems/rnas/3D2X

>  <Rbt.Executable>
rbdock ($Id: //depot/dev/client3/rdock/2013.1/src/exe/rbdock.cxx#4 $)

>  <Rbt.Library>
libRbt.so (2013.1, Build901 2013/11/27)

>  <Rbt.Parameter_File>
/export/apps/rDock/src/rDock_2013.1_src/data/scripts/dock_solv.prm

>  <Rbt.Receptor>
prm/pocket_docking_8.prm

>  <SCORE>
-21.4823

>  <SCORE.INTER>
-21.9926

>  <SCORE.INTER.CONST>
1

>  <SCORE.INTER.POLAR>
0

>  <SCORE.INTER.ROT>
8

>  <SCORE.INTER.SOLV>
18.9336

>  <SCORE.INTER.VDW>
-29.9062

>  <SCORE.INTER.norm>
-0.845868

>  <SCORE.INTRA>
0.510298

>  <SCORE.INTRA.DIHEDRAL>
0.332836

>  <SCORE.INTRA.DIHEDRAL.0>
7.88077

>  <SCORE.INTRA.POLAR>
0

>  <SCORE.INTRA.POLAR.0>
0

>  <SCORE.INTRA.REPUL>
0

>  <SCORE.INTRA.REPUL.0>
0

>  <SCORE.INTRA.SOLV>
0.583441

>  <SCORE.INTRA.SOLV.lig_0>
-63.2542

>  <SCORE.INTRA.VDW>
0.0521594

>  <SCORE.INTRA.VDW.0>
-3.15072

>  <SCORE.INTRA.norm>
0.0196268

>  <SCORE.RESTR>
0

>  <SCORE.RESTR.CAVITY>
0

>  <SCORE.RESTR.norm>
0

>  <SCORE.SYSTEM>
0

>  <SCORE.SYSTEM.CONST>
0

>  <SCORE.SYSTEM.DIHEDRAL>
0

>  <SCORE.SYSTEM.SOLV>
0

>  <SCORE.SYSTEM.norm>
0

>  <SCORE.heavy>
26

>  <SCORE.norm>
-0.826241

>  <RMSD>
7.392

$$$$
ligand
 OpenBabel11021811473D
libRbt.so/2013.1/901 2013/11/27
 26 27  0  0  0  0  0  0  0  0999 V2000
  -10.2480  -16.4152   23.1545 C   0  0  0  0  0  0  0  0  0  0  0  0
   -6.6416  -16.1677   19.3196 C   0  0  0  0  0  0  0  0  0  0  0  0
   -7.7047  -15.9653   20.1934 C   0  0  0  0  0  0  0  0  0  0  0  0
   -8.3448  -17.0881   21.0134 C   0  0  0  0  0  0  0  0  0  0  0  0
   -8.7673  -16.7141   23.4075 C   0  0  1  0  0  0  0  0  0  0  0  0
   -6.0445  -12.6037   18.1053 C   0  0  0  0  0  0  0  0  0  0  0  0
   -6.6392  -13.8073   18.8380 C   0  0  0  0  0  0  0  0  0  0  0  0
   -8.1904  -14.6700   20.3411 C   0  0  0  0  0  0  0  0  0  0  0  0
   -6.6605  -17.2870   22.7622 C   0  0  0  0  0  0  0  0  0  0  0  0
   -8.2182  -16.6972   24.6841 C   0  0  2  0  0  0  0  0  0  0  0  0
   -8.8566  -16.4178   26.0471 C   0  0  0  0  0  0  0  0  0  0  0  0
   -7.9802  -15.5445   26.9480 C   0  0  0  0  0  0  0  0  0  0  0  0
   -6.0964  -15.0823   18.6306 N   0  0  0  0  0  0  0  0  0  0  0  0
   -7.9223  -17.0231   22.4199 N   0  0  0  0  0  0  0  0  0  0  0  0
   -7.6669  -13.6512   19.6849 N   0  0  0  0  0  0  0  0  0  0  0  0
   -6.1779  -17.2961   19.1542 O   0  0  0  0  0  0  0  0  0  0  0  0
   -5.5844  -12.7132   25.7888 O   0  5  0  0  0  0  0  0  0  0  0  0
   -5.5660  -10.7120   28.5320 O   0  0  0  0  0  0  0  0  0  0  0  0
   -7.4561  -14.4145   26.2439 O   0  0  0  0  0  0  0  0  0  0  0  0
   -7.4052  -12.1426   27.4765 O   0  0  0  0  0  0  0  0  0  0  0  0
   -6.5341  -10.0535   26.2252 O   0  5  0  0  0  0  0  0  0  0  0  0
   -5.6804  -13.9629   28.0495 O   0  0  0  0  0  0  0  0  0  0  0  0
   -7.9558   -9.8032   28.3476 O   0  0  0  0  0  0  0  0  0  0  0  0
   -6.5232  -17.0435   24.4835 S   0  0  0  0  0  0  0  0  0  0  0  0
   -6.4806  -13.3536   26.9623 P   0  0  2  0  0  0  0  0  0  0  0  0
   -6.8388  -10.6401   27.5494 P   0  0  2  0  0  0  0  0  0  0  0  0
  2 16  2  0  0  0  0
  2  3  1  0  0  0  0
  2 13  1  0  0  0  0
  3  8  2  0  0  0  0
  3  4  1  0  0  0  0
  4 14  1  0  0  0  0
  5  1  1  1  0  0  0
  5 14  1  0  0  0  0
  5 10  1  0  0  0  0
  6  7  1  0  0  0  0
  7 13  1  0  0  0  0
  7 15  2  0  0  0  0
  8 15  1  0  0  0  0
  9 14  1  0  0  0  0
  9 24  1  0  0  0  0
 10 24  1  0  0  0  0
 10 11  1  6  0  0  0
 11 12  1  0  0  0  0
 12 19  1  0  0  0  0
 17 25  1  0  0  0  0
 19 25  1  0  0  0  0
 20 26  1  0  0  0  0
 21 26  1  0  0  0  0
 22 25  2  0  0  0  0
 23 26  2  0  0  0  0
 25 20  1  1  0  0  0
 26 18  1  1  0  0  0
M  CHG  2  17  -1  21  -1
M  END
>  <CHROM.1>
104.11160603,-138.20631129,46.28439771,112.23298935,-178.87662708,-36.52557815
153.49160331,-58.66608587,-7.12854037,-14.29919633,24.11820999,1.78410091
-1.31803141,-1.86209343

>  <Name>
ligand

>  <RI>
0

>  <Rbt.Current_Directory>
/home/itssahil/PROJECTS/Mol_Feturizer/New_Systems/rnas/3D2X

>  <Rbt.Executable>
rbdock ($Id: //depot/dev/client3/rdock/2013.1/src/exe/rbdock.cxx#4 $)

>  <Rbt.Library>
libRbt.so (2013.1, Build901 2013/11/27)

>  <Rbt.Parameter_File>
/export/apps/rDock/src/rDock_2013.1_src/data/scripts/dock_solv.prm

>  <Rbt.Receptor>
prm/pocket_docking_7.prm

>  <SCORE>
-18.6149

>  <SCORE.INTER>
-17.4891

>  <SCORE.INTER.CONST>
1

>  <SCORE.INTER.POLAR>
0

>  <SCORE.INTER.ROT>
8

>  <SCORE.INTER.SOLV>
16.8275

>  <SCORE.INTER.VDW>
-26.2019

>  <SCORE.INTER.norm>
-0.672659

>  <SCORE.INTRA>
-1.12575

>  <SCORE.INTRA.DIHEDRAL>
0.235554

>  <SCORE.INTRA.DIHEDRAL.0>
7.88077

>  <SCORE.INTRA.POLAR>
0

>  <SCORE.INTRA.POLAR.0>
0

>  <SCORE.INTRA.REPUL>
0

>  <SCORE.INTRA.REPUL.0>
0

>  <SCORE.INTRA.SOLV>
-1.5756

>  <SCORE.INTRA.SOLV.lig_0>
-63.2542

>  <SCORE.INTRA.VDW>
-0.455731

>  <SCORE.INTRA.VDW.0>
-3.15072

>  <SCORE.INTRA.norm>
-0.0432982

>  <SCORE.RESTR>
0

>  <SCORE.RESTR.CAVITY>
0

>  <SCORE.RESTR.norm>
0

>  <SCORE.SYSTEM>
0

>  <SCORE.SYSTEM.CONST>
0

>  <SCORE.SYSTEM.DIHEDRAL>
0

>  <SCORE.SYSTEM.SOLV>
0

>  <SCORE.SYSTEM.norm>
0

>  <SCORE.heavy>
26

>  <SCORE.norm>
-0.715957

>  <RMSD>
7.409

$$$$
ligand
 OpenBabel11021811473D
libRbt.so/2013.1/901 2013/11/27
 26 27  0  0  0  0  0  0  0  0999 V2000
   -4.3382   -9.9867   17.1669 C   0  0  0  0  0  0  0  0  0  0  0  0
   -5.5681  -13.7753   15.9322 C   0  0  0  0  0  0  0  0  0  0  0  0
   -6.1656  -12.9105   16.8432 C   0  0  0  0  0  0  0  0  0  0  0  0
   -6.7327  -11.5425   16.4566 C   0  0  0  0  0  0  0  0  0  0  0  0
   -5.6527   -9.9129   17.9494 C   0  0  1  0  0  0  0  0  0  0  0  0
   -4.7599  -16.7319   18.1989 C   0  0  0  0  0  0  0  0  0  0  0  0
   -5.2486  -15.3669   17.7121 C   0  0  0  0  0  0  0  0  0  0  0  0
   -6.2696  -13.3271   18.1665 C   0  0  0  0  0  0  0  0  0  0  0  0
   -7.8262  -10.4618   18.3464 C   0  0  0  0  0  0  0  0  0  0  0  0
   -5.8078   -9.0873   19.0565 C   0  0  2  0  0  0  0  0  0  0  0  0
   -4.8318   -8.1200   19.7312 C   0  0  0  0  0  0  0  0  0  0  0  0
   -4.3580   -8.6103   21.1014 C   0  0  0  0  0  0  0  0  0  0  0  0
   -5.1021  -15.0193   16.3626 N   0  0  0  0  0  0  0  0  0  0  0  0
   -6.7295  -10.6247   17.6050 N   0  0  0  0  0  0  0  0  0  0  0  0
   -5.8260  -14.5057   18.5622 N   0  0  0  0  0  0  0  0  0  0  0  0
   -5.4518  -13.4511   14.7502 O   0  0  0  0  0  0  0  0  0  0  0  0
   -4.3060  -10.8833   23.2696 O   0  5  0  0  0  0  0  0  0  0  0  0
   -2.2228  -11.6525   19.3295 O   0  0  0  0  0  0  0  0  0  0  0  0
   -3.6564   -9.8539   21.0062 O   0  0  0  0  0  0  0  0  0  0  0  0
   -2.5363  -12.0295   21.8401 O   0  0  0  0  0  0  0  0  0  0  0  0
   -0.1804  -11.5059   20.9104 O   0  5  0  0  0  0  0  0  0  0  0  0
   -1.9881   -9.7811   22.9629 O   0  0  0  0  0  0  0  0  0  0  0  0
   -1.2947  -13.7693   20.4379 O   0  0  0  0  0  0  0  0  0  0  0  0
   -7.4247   -9.3649   19.6411 S   0  0  0  0  0  0  0  0  0  0  0  0
   -3.0503  -10.5799   22.3095 P   0  0  2  0  0  0  0  0  0  0  0  0
   -1.4691  -12.1849   20.6482 P   0  0  2  0  0  0  0  0  0  0  0  0
  2 16  2  0  0  0  0
  2  3  1  0  0  0  0
  2 13  1  0  0  0  0
  3  8  2  0  0  0  0
  3  4  1  0  0  0  0
  4 14  1  0  0  0  0
  5  1  1  6  0  0  0
  5 14  1  0  0  0  0
  5 10  1  0  0  0  0
  6  7  1  0  0  0  0
  7 13  1  0  0  0  0
  7 15  2  0  0  0  0
  8 15  1  0  0  0  0
  9 14  1  0  0  0  0
  9 24  1  0  0  0  0
 10 24  1  0  0  0  0
 10 11  1  1  0  0  0
 11 12  1  0  0  0  0
 12 19  1  0  0  0  0
 17 25  1  0  0  0  0
 19 25  1  0  0  0  0
 20 26  1  0  0  0  0
 21 26  1  0  0  0  0
 22 25  2  0  0  0  0
 23 26  2  0  0  0  0
 25 20  1  6  0  0  0
 26 18  1  6  0  0  0
M  CHG  2  17  -1  21  -1
M  END
>  <CHROM.1>
-154.07189528,-109.57271124,61.34286354,84.14532385,179.77825616,168.23173982
60.67296687,-65.30466423,-4.38446849,-11.59263883,19.39984649,2.29065234
0.64821620,-2.54623293

>  <Name>
ligand

>  <RI>
0

>  <Rbt.Current_Directory>
/home/itssahil/PROJECTS/Mol_Feturizer/New_Systems/rnas/3D2X

>  <Rbt.Executable>
rbdock ($Id: //depot/dev/client3/rdock/2013.1/src/exe/rbdock.cxx#4 $)

>  <Rbt.Library>
libRbt.so (2013.1, Build901 2013/11/27)

>  <Rbt.Parameter_File>
/export/apps/rDock/src/rDock_2013.1_src/data/scripts/dock_solv.prm

>  <Rbt.Receptor>
prm/pocket_docking_5.prm

>  <SCORE>
-13.3769

>  <SCORE.INTER>
-9.35449

>  <SCORE.INTER.CONST>
1

>  <SCORE.INTER.POLAR>
0

>  <SCORE.INTER.ROT>
8

>  <SCORE.INTER.SOLV>
4.36686

>  <SCORE.INTER.VDW>
-16.6253

>  <SCORE.INTER.norm>
-0.359788

>  <SCORE.INTRA>
-4.02244

>  <SCORE.INTRA.DIHEDRAL>
-2.63694

>  <SCORE.INTRA.DIHEDRAL.0>
7.88077

>  <SCORE.INTRA.POLAR>
0

>  <SCORE.INTRA.POLAR.0>
0

>  <SCORE.INTRA.REPUL>
0

>  <SCORE.INTRA.REPUL.0>
0

>  <SCORE.INTRA.SOLV>
-2.84199

>  <SCORE.INTRA.SOLV.lig_0>
-63.2542

>  <SCORE.INTRA.VDW>
-1.28297

>  <SCORE.INTRA.VDW.0>
-3.15072

>  <SCORE.INTRA.norm>
-0.154709

>  <SCORE.RESTR>
0

>  <SCORE.RESTR.CAVITY>
0

>  <SCORE.RESTR.norm>
0

>  <SCORE.SYSTEM>
0

>  <SCORE.SYSTEM.CONST>
0

>  <SCORE.SYSTEM.DIHEDRAL>
0

>  <SCORE.SYSTEM.SOLV>
0

>  <SCORE.SYSTEM.norm>
0

>  <SCORE.heavy>
26

>  <SCORE.norm>
-0.514497

>  <RMSD>
7.447

$$$$
ligand
 OpenBabel11021811473D
libRbt.so/2013.1/901 2013/11/27
 26 27  0  0  0  0  0  0  0  0999 V2000
   -6.8142  -13.8188   19.7925 C   0  0  0  0  0  0  0  0  0  0  0  0
   -2.0546  -15.2515   19.5330 C   0  0  0  0  0  0  0  0  0  0  0  0
   -3.2301  -14.5099   19.5867 C   0  0  0  0  0  0  0  0  0  0  0  0
   -4.2782  -14.5129   18.4712 C   0  0  0  0  0  0  0  0  0  0  0  0
   -6.4694  -15.2354   19.3237 C   0  0  1  0  0  0  0  0  0  0  0  0
   -0.5246  -14.3858   22.9156 C   0  0  0  0  0  0  0  0  0  0  0  0
   -1.4794  -14.4252   21.7215 C   0  0  0  0  0  0  0  0  0  0  0  0
   -3.4687  -13.7470   20.7254 C   0  0  0  0  0  0  0  0  0  0  0  0
   -5.1325  -16.7902   18.3345 C   0  0  0  0  0  0  0  0  0  0  0  0
   -7.3475  -16.3006   19.4840 C   0  0  2  0  0  0  0  0  0  0  0  0
   -8.7503  -16.3612   20.0939 C   0  0  0  0  0  0  0  0  0  0  0  0
   -8.8248  -15.7218   21.4824 C   0  0  0  0  0  0  0  0  0  0  0  0
   -1.1641  -15.2151   20.6079 N   0  0  0  0  0  0  0  0  0  0  0  0
   -5.3134  -15.5264   18.7205 N   0  0  0  0  0  0  0  0  0  0  0  0
   -2.6199  -13.7204   21.7360 N   0  0  0  0  0  0  0  0  0  0  0  0
   -1.7983  -15.9412   18.5458 O   0  0  0  0  0  0  0  0  0  0  0  0
   -8.1631  -16.7905   24.6849 O   0  5  0  0  0  0  0  0  0  0  0  0
   -3.6168  -14.6179   24.2859 O   0  0  0  0  0  0  0  0  0  0  0  0
   -7.6770  -16.0405   22.2754 O   0  0  0  0  0  0  0  0  0  0  0  0
   -5.9960  -15.5512   24.1776 O   0  0  0  0  0  0  0  0  0  0  0  0
   -5.4269  -13.3543   22.9372 O   0  5  0  0  0  0  0  0  0  0  0  0
   -8.2302  -14.2810   24.0686 O   0  0  0  0  0  0  0  0  0  0  0  0
   -5.5267  -13.4153   25.5013 O   0  0  0  0  0  0  0  0  0  0  0  0
   -6.5248  -17.7013   18.8562 S   0  0  0  0  0  0  0  0  0  0  0  0
   -7.5621  -15.5780   23.8136 P   0  0  2  0  0  0  0  0  0  0  0  0
   -5.1584  -14.1800   24.1358 P   0  0  2  0  0  0  0  0  0  0  0  0
  2 16  2  0  0  0  0
  2  3  1  0  0  0  0
  2 13  1  0  0  0  0
  3  8  2  0  0  0  0
  3  4  1  0  0  0  0
  4 14  1  0  0  0  0
  5  1  1  6  0  0  0
  5 14  1  0  0  0  0
  5 10  1  0  0  0  0
  6  7  1  0  0  0  0
  7 13  1  0  0  0  0
  7 15  2  0  0  0  0
  8 15  1  0  0  0  0
  9 14  1  0  0  0  0
  9 24  1  0  0  0  0
 10 24  1  0  0  0  0
 10 11  1  1  0  0  0
 11 12  1  0  0  0  0
 12 19  1  0  0  0  0
 17 25  1  0  0  0  0
 19 25  1  0  0  0  0
 20 26  1  0  0  0  0
 21 26  1  0  0  0  0
 22 25  2  0  0  0  0
 23 26  2  0  0  0  0
 25 20  1  1  0  0  0
 26 18  1  1  0  0  0
M  CHG  2  17  -1  21  -1
M  END
>  <CHROM.1>
92.66780244,-50.76844094,-40.56791800,95.11603206,-175.50793104,-150.39397564
91.74898903,-169.70641495,-5.33235302,-15.19503325,21.60369082,0.65064905
-0.26307451,-1.87358445

>  <Name>
ligand

>  <RI>
0

>  <Rbt.Current_Directory>
/home/itssahil/PROJECTS/Mol_Feturizer/New_Systems/rnas/3D2X

>  <Rbt.Executable>
rbdock ($Id: //depot/dev/client3/rdock/2013.1/src/exe/rbdock.cxx#4 $)

>  <Rbt.Library>
libRbt.so (2013.1, Build901 2013/11/27)

>  <Rbt.Parameter_File>
/export/apps/rDock/src/rDock_2013.1_src/data/scripts/dock_solv.prm

>  <Rbt.Receptor>
prm/pocket_docking_5.prm

>  <SCORE>
-15.1875

>  <SCORE.INTER>
-14.3451

>  <SCORE.INTER.CONST>
1

>  <SCORE.INTER.POLAR>
0

>  <SCORE.INTER.ROT>
8

>  <SCORE.INTER.SOLV>
10.4437

>  <SCORE.INTER.VDW>
-21.978

>  <SCORE.INTER.norm>
-0.551733

>  <SCORE.INTRA>
-0.842459

>  <SCORE.INTRA.DIHEDRAL>
0.928349

>  <SCORE.INTRA.DIHEDRAL.0>
7.88077

>  <SCORE.INTRA.POLAR>
0

>  <SCORE.INTRA.POLAR.0>
0

>  <SCORE.INTRA.REPUL>
0

>  <SCORE.INTRA.REPUL.0>
0

>  <SCORE.INTRA.SOLV>
1.48093

>  <SCORE.INTRA.SOLV.lig_0>
-63.2542

>  <SCORE.INTRA.VDW>
-2.0471

>  <SCORE.INTRA.VDW.0>
-3.15072

>  <SCORE.INTRA.norm>
-0.0324023

>  <SCORE.RESTR>
0

>  <SCORE.RESTR.CAVITY>
0

>  <SCORE.RESTR.norm>
0

>  <SCORE.SYSTEM>
0

>  <SCORE.SYSTEM.CONST>
0

>  <SCORE.SYSTEM.DIHEDRAL>
0

>  <SCORE.SYSTEM.SOLV>
0

>  <SCORE.SYSTEM.norm>
0

>  <SCORE.heavy>
26

>  <SCORE.norm>
-0.584136

>  <RMSD>
7.492

$$$$
ligand
 OpenBabel11021811473D
libRbt.so/2013.1/901 2013/11/27
 26 27  0  0  0  0  0  0  0  0999 V2000
   -1.2194  -12.9745   17.0692 C   0  0  0  0  0  0  0  0  0  0  0  0
   -3.9647  -15.2316   18.6804 C   0  0  0  0  0  0  0  0  0  0  0  0
   -3.1614  -16.1520   18.0154 C   0  0  0  0  0  0  0  0  0  0  0  0
   -1.7475  -15.8334   17.5233 C   0  0  0  0  0  0  0  0  0  0  0  0
   -0.7580  -13.7273   18.3205 C   0  0  1  0  0  0  0  0  0  0  0  0
   -7.0478  -17.3640   19.3732 C   0  0  0  0  0  0  0  0  0  0  0  0
   -5.6683  -16.9229   18.8818 C   0  0  0  0  0  0  0  0  0  0  0  0
   -3.6672  -17.4318   17.8111 C   0  0  0  0  0  0  0  0  0  0  0  0
   -0.5834  -15.5693   19.6471 C   0  0  0  0  0  0  0  0  0  0  0  0
   -0.0581  -13.0995   19.3440 C   0  0  2  0  0  0  0  0  0  0  0  0
    0.3939  -11.6459   19.5055 C   0  0  0  0  0  0  0  0  0  0  0  0
    0.3833  -11.1767   20.9622 C   0  0  0  0  0  0  0  0  0  0  0  0
   -5.2332  -15.6129   19.1224 N   0  0  0  0  0  0  0  0  0  0  0  0
   -1.0141  -15.0250   18.5081 N   0  0  0  0  0  0  0  0  0  0  0  0
   -4.8679  -17.7815   18.2337 N   0  0  0  0  0  0  0  0  0  0  0  0
   -3.5617  -14.0862   18.8838 O   0  0  0  0  0  0  0  0  0  0  0  0
   -1.3573   -9.7841   23.4592 O   0  5  0  0  0  0  0  0  0  0  0  0
   -2.8253  -13.4779   21.4912 O   0  0  0  0  0  0  0  0  0  0  0  0
   -0.8487  -11.4996   21.6146 O   0  0  0  0  0  0  0  0  0  0  0  0
   -2.3751  -12.1146   23.6083 O   0  0  0  0  0  0  0  0  0  0  0  0
   -1.6299  -14.5887   23.4985 O   0  5  0  0  0  0  0  0  0  0  0  0
    0.1556  -11.8189   23.9612 O   0  0  0  0  0  0  0  0  0  0  0  0
   -4.1197  -13.9826   23.6455 O   0  0  0  0  0  0  0  0  0  0  0  0
    0.2916  -14.3377   20.5178 S   0  0  0  0  0  0  0  0  0  0  0  0
   -1.0251  -11.3386   23.2071 P   0  0  2  0  0  0  0  0  0  0  0  0
   -2.6593  -13.6082   23.0869 P   0  0  2  0  0  0  0  0  0  0  0  0
  2 16  2  0  0  0  0
  2  3  1  0  0  0  0
  2 13  1  0  0  0  0
  3  8  2  0  0  0  0
  3  4  1  0  0  0  0
  4 14  1  0  0  0  0
  5  1  1  1  0  0  0
  5 14  1  0  0  0  0
  5 10  1  0  0  0  0
  6  7  1  0  0  0  0
  7 13  1  0  0  0  0
  7 15  2  0  0  0  0
  8 15  1  0  0  0  0
  9 14  1  0  0  0  0
  9 24  1  0  0  0  0
 10 24  1  0  0  0  0
 10 11  1  6  0  0  0
 11 12  1  0  0  0  0
 12 19  1  0  0  0  0
 17 25  1  0  0  0  0
 19 25  1  0  0  0  0
 20 26  1  0  0  0  0
 21 26  1  0  0  0  0
 22 25  2  0  0  0  0
 23 26  2  0  0  0  0
 25 20  1  1  0  0  0
 26 18  1  6  0  0  0
M  CHG  2  17  -1  21  -1
M  END
>  <CHROM.1>
40.37689646,146.58934639,-48.67865448,-107.09716834,169.66036258,160.46904750
82.14757220,-65.97669642,-2.08893926,-13.87101214,20.67303655,-2.15009509
0.56569779,1.08795240

>  <Name>
ligand

>  <RI>
0

>  <Rbt.Current_Directory>
/home/itssahil/PROJECTS/Mol_Feturizer/New_Systems/rnas/3D2X

>  <Rbt.Executable>
rbdock ($Id: //depot/dev/client3/rdock/2013.1/src/exe/rbdock.cxx#4 $)

>  <Rbt.Library>
libRbt.so (2013.1, Build901 2013/11/27)

>  <Rbt.Parameter_File>
/export/apps/rDock/src/rDock_2013.1_src/data/scripts/dock_solv.prm

>  <Rbt.Receptor>
prm/pocket_docking_8.prm

>  <SCORE>
-15.2972

>  <SCORE.INTER>
-11.2672

>  <SCORE.INTER.CONST>
1

>  <SCORE.INTER.POLAR>
0

>  <SCORE.INTER.ROT>
8

>  <SCORE.INTER.SOLV>
16.799

>  <SCORE.INTER.VDW>
-22.0445

>  <SCORE.INTER.norm>
-0.433354

>  <SCORE.INTRA>
-4.02999

>  <SCORE.INTRA.DIHEDRAL>
-1.10263

>  <SCORE.INTRA.DIHEDRAL.0>
7.88077

>  <SCORE.INTRA.POLAR>
0

>  <SCORE.INTRA.POLAR.0>
0

>  <SCORE.INTRA.REPUL>
0

>  <SCORE.INTRA.REPUL.0>
0

>  <SCORE.INTRA.SOLV>
-1.90279

>  <SCORE.INTRA.SOLV.lig_0>
-63.2542

>  <SCORE.INTRA.VDW>
-2.52728

>  <SCORE.INTRA.VDW.0>
-3.15072

>  <SCORE.INTRA.norm>
-0.155

>  <SCORE.RESTR>
0

>  <SCORE.RESTR.CAVITY>
0

>  <SCORE.RESTR.norm>
0

>  <SCORE.SYSTEM>
0

>  <SCORE.SYSTEM.CONST>
0

>  <SCORE.SYSTEM.DIHEDRAL>
0

>  <SCORE.SYSTEM.SOLV>
0

>  <SCORE.SYSTEM.norm>
0

>  <SCORE.heavy>
26

>  <SCORE.norm>
-0.588353

>  <RMSD>
7.497

$$$$
ligand
 OpenBabel11021811473D
libRbt.so/2013.1/901 2013/11/27
 26 27  0  0  0  0  0  0  0  0999 V2000
   -2.4619  -14.7499   16.4394 C   0  0  0  0  0  0  0  0  0  0  0  0
   -5.7544  -18.5858   17.4389 C   0  0  0  0  0  0  0  0  0  0  0  0
   -4.7974  -18.5152   16.4320 C   0  0  0  0  0  0  0  0  0  0  0  0
   -3.7781  -17.3790   16.3187 C   0  0  0  0  0  0  0  0  0  0  0  0
   -3.7973  -14.9909   15.7294 C   0  0  1  0  0  0  0  0  0  0  0  0
   -7.4583  -21.8799   16.5566 C   0  0  0  0  0  0  0  0  0  0  0  0
   -6.5203  -20.6727   16.5108 C   0  0  0  0  0  0  0  0  0  0  0  0
   -4.7563  -19.5451   15.4977 C   0  0  0  0  0  0  0  0  0  0  0  0
   -5.5252  -16.2903   15.0158 C   0  0  0  0  0  0  0  0  0  0  0  0
   -4.4813  -13.9721   15.0770 C   0  0  2  0  0  0  0  0  0  0  0  0
   -4.1377  -12.4919   14.8914 C   0  0  0  0  0  0  0  0  0  0  0  0
   -3.8668  -11.7723   16.2146 C   0  0  0  0  0  0  0  0  0  0  0  0
   -6.6292  -19.6731   17.4867 N   0  0  0  0  0  0  0  0  0  0  0  0
   -4.3740  -16.1952   15.6826 N   0  0  0  0  0  0  0  0  0  0  0  0
   -5.5880  -20.5687   15.5528 N   0  0  0  0  0  0  0  0  0  0  0  0
   -5.8311  -17.6978   18.2882 O   0  0  0  0  0  0  0  0  0  0  0  0
   -7.3431  -10.9965   17.8907 O   0  5  0  0  0  0  0  0  0  0  0  0
   -4.3553   -7.5046   18.5636 O   0  0  0  0  0  0  0  0  0  0  0  0
   -5.0309  -11.7347   17.0460 O   0  0  0  0  0  0  0  0  0  0  0  0
   -5.6496   -9.2286   17.1866 O   0  0  0  0  0  0  0  0  0  0  0  0
   -6.0873   -9.0332   19.7280 O   0  5  0  0  0  0  0  0  0  0  0  0
   -6.7267  -10.7272   15.3948 O   0  0  0  0  0  0  0  0  0  0  0  0
   -3.8775  -10.0059   18.8569 O   0  0  0  0  0  0  0  0  0  0  0  0
   -5.9470  -14.6894   14.4683 S   0  0  0  0  0  0  0  0  0  0  0  0
   -6.2178  -10.6782   16.7848 P   0  0  2  0  0  0  0  0  0  0  0  0
   -5.0686   -8.9444   18.6581 P   0  0  2  0  0  0  0  0  0  0  0  0
  2 16  2  0  0  0  0
  2  3  1  0  0  0  0
  2 13  1  0  0  0  0
  3  8  2  0  0  0  0
  3  4  1  0  0  0  0
  4 14  1  0  0  0  0
  5  1  1  6  0  0  0
  5 14  1  0  0  0  0
  5 10  1  0  0  0  0
  6  7  1  0  0  0  0
  7 13  1  0  0  0  0
  7 15  2  0  0  0  0
  8 15  1  0  0  0  0
  9 14  1  0  0  0  0
  9 24  1  0  0  0  0
 10 24  1  0  0  0  0
 10 11  1  1  0  0  0
 11 12  1  0  0  0  0
 12 19  1  0  0  0  0
 17 25  1  0  0  0  0
 19 25  1  0  0  0  0
 20 26  1  0  0  0  0
 21 26  1  0  0  0  0
 22 25  2  0  0  0  0
 23 26  2  0  0  0  0
 25 20  1  1  0  0  0
 26 18  1  1  0  0  0
M  CHG  2  17  -1  21  -1
M  END
>  <CHROM.1>
-80.95508206,-54.54494449,-64.22149150,165.04773203,-78.64040821,55.26131634
178.12233444,169.32338099,-5.31450853,-13.96091139,16.73823195,-1.65571438
1.05722898,0.23402454

>  <Name>
ligand

>  <RI>
0

>  <Rbt.Current_Directory>
/home/itssahil/PROJECTS/Mol_Feturizer/New_Systems/rnas/3D2X

>  <Rbt.Executable>
rbdock ($Id: //depot/dev/client3/rdock/2013.1/src/exe/rbdock.cxx#4 $)

>  <Rbt.Library>
libRbt.so (2013.1, Build901 2013/11/27)

>  <Rbt.Parameter_File>
/export/apps/rDock/src/rDock_2013.1_src/data/scripts/dock_solv.prm

>  <Rbt.Receptor>
prm/pocket_docking_8.prm

>  <SCORE>
-18.3378

>  <SCORE.INTER>
-17.9522

>  <SCORE.INTER.CONST>
1

>  <SCORE.INTER.POLAR>
0

>  <SCORE.INTER.ROT>
8

>  <SCORE.INTER.SOLV>
16.2605

>  <SCORE.INTER.VDW>
-26.3216

>  <SCORE.INTER.norm>
-0.690468

>  <SCORE.INTRA>
-0.385571

>  <SCORE.INTRA.DIHEDRAL>
-1.43018

>  <SCORE.INTRA.DIHEDRAL.0>
7.88077

>  <SCORE.INTRA.POLAR>
0

>  <SCORE.INTRA.POLAR.0>
0

>  <SCORE.INTRA.REPUL>
0

>  <SCORE.INTRA.REPUL.0>
0

>  <SCORE.INTRA.SOLV>
1.35893

>  <SCORE.INTRA.SOLV.lig_0>
-63.2542

>  <SCORE.INTRA.VDW>
-0.349946

>  <SCORE.INTRA.VDW.0>
-3.15072

>  <SCORE.INTRA.norm>
-0.0148297

>  <SCORE.RESTR>
0

>  <SCORE.RESTR.CAVITY>
0

>  <SCORE.RESTR.norm>
0

>  <SCORE.SYSTEM>
0

>  <SCORE.SYSTEM.CONST>
0

>  <SCORE.SYSTEM.DIHEDRAL>
0

>  <SCORE.SYSTEM.SOLV>
0

>  <SCORE.SYSTEM.norm>
0

>  <SCORE.heavy>
26

>  <SCORE.norm>
-0.705298

>  <RMSD>
7.510

$$$$
ligand
 OpenBabel11021811473D
libRbt.so/2013.1/901 2013/11/27
 26 27  0  0  0  0  0  0  0  0999 V2000
   -5.2916  -13.9062   17.9916 C   0  0  0  0  0  0  0  0  0  0  0  0
   -6.5307  -11.0735   19.7735 C   0  0  0  0  0  0  0  0  0  0  0  0
   -6.6447  -10.6842   18.4430 C   0  0  0  0  0  0  0  0  0  0  0  0
   -7.0455  -11.6415   17.3180 C   0  0  0  0  0  0  0  0  0  0  0  0
   -5.0750  -13.0080   16.7701 C   0  0  1  0  0  0  0  0  0  0  0  0
   -5.6048   -7.7517   21.3987 C   0  0  0  0  0  0  0  0  0  0  0  0
   -5.9645   -8.8036   20.3484 C   0  0  0  0  0  0  0  0  0  0  0  0
   -6.4026   -9.3503   18.1305 C   0  0  0  0  0  0  0  0  0  0  0  0
   -5.6146  -11.2892   15.3781 C   0  0  0  0  0  0  0  0  0  0  0  0
   -4.0270  -13.2115   15.8804 C   0  0  2  0  0  0  0  0  0  0  0  0
   -2.9214  -14.2701   15.8577 C   0  0  0  0  0  0  0  0  0  0  0  0
   -1.8248  -14.0089   16.8928 C   0  0  0  0  0  0  0  0  0  0  0  0
   -6.1878  -10.1293   20.7434 N   0  0  0  0  0  0  0  0  0  0  0  0
   -5.8880  -11.9881   16.4807 N   0  0  0  0  0  0  0  0  0  0  0  0
   -6.0795   -8.4660   19.0559 N   0  0  0  0  0  0  0  0  0  0  0  0
   -6.7338  -12.2432   20.0994 O   0  0  0  0  0  0  0  0  0  0  0  0
   -0.7092  -12.4081   19.3818 O   0  5  0  0  0  0  0  0  0  0  0  0
   -0.8258  -14.9416   22.5188 O   0  0  0  0  0  0  0  0  0  0  0  0
   -2.3408  -14.0236   18.2274 O   0  0  0  0  0  0  0  0  0  0  0  0
   -2.3216  -13.7777   20.8009 O   0  0  0  0  0  0  0  0  0  0  0  0
   -0.9373  -12.3577   22.4609 O   0  5  0  0  0  0  0  0  0  0  0  0
   -0.3790  -14.9624   19.6012 O   0  0  0  0  0  0  0  0  0  0  0  0
   -2.9503  -13.7246   23.2781 O   0  0  0  0  0  0  0  0  0  0  0  0
   -4.1487  -11.9414   14.6949 S   0  0  0  0  0  0  0  0  0  0  0  0
   -1.3733  -13.8690   19.5054 P   0  0  2  0  0  0  0  0  0  0  0  0
   -1.6997  -13.6123   22.2738 P   0  0  2  0  0  0  0  0  0  0  0  0
  2 16  2  0  0  0  0
  2  3  1  0  0  0  0
  2 13  1  0  0  0  0
  3  8  2  0  0  0  0
  3  4  1  0  0  0  0
  4 14  1  0  0  0  0
  5  1  1  6  0  0  0
  5 14  1  0  0  0  0
  5 10  1  0  0  0  0
  6  7  1  0  0  0  0
  7 13  1  0  0  0  0
  7 15  2  0  0  0  0
  8 15  1  0  0  0  0
  9 14  1  0  0  0  0
  9 24  1  0  0  0  0
 10 24  1  0  0  0  0
 10 11  1  1  0  0  0
 11 12  1  0  0  0  0
 12 19  1  0  0  0  0
 17 25  1  0  0  0  0
 19 25  1  0  0  0  0
 20 26  1  0  0  0  0
 21 26  1  0  0  0  0
 22 25  2  0  0  0  0
 23 26  2  0  0  0  0
 25 20  1  1  0  0  0
 26 18  1  1  0  0  0
M  CHG  2  17  -1  21  -1
M  END
>  <CHROM.1>
-106.12648457,-75.60657845,61.24430847,87.52732901,176.00294548,-67.76890118
62.94671030,-62.53956436,-3.73685451,-12.40417026,19.05501665,-2.68930320
-0.71585132,1.30638074

>  <Name>
ligand

>  <RI>
0

>  <Rbt.Current_Directory>
/home/itssahil/PROJECTS/Mol_Feturizer/New_Systems/rnas/3D2X

>  <Rbt.Executable>
rbdock ($Id: //depot/dev/client3/rdock/2013.1/src/exe/rbdock.cxx#4 $)

>  <Rbt.Library>
libRbt.so (2013.1, Build901 2013/11/27)

>  <Rbt.Parameter_File>
/export/apps/rDock/src/rDock_2013.1_src/data/scripts/dock_solv.prm

>  <Rbt.Receptor>
prm/pocket_docking_5.prm

>  <SCORE>
-13.5142

>  <SCORE.INTER>
-10.9153

>  <SCORE.INTER.CONST>
1

>  <SCORE.INTER.POLAR>
0

>  <SCORE.INTER.ROT>
8

>  <SCORE.INTER.SOLV>
7.82848

>  <SCORE.INTER.VDW>
-18.8197

>  <SCORE.INTER.norm>
-0.419819

>  <SCORE.INTRA>
-2.59891

>  <SCORE.INTRA.DIHEDRAL>
-3.0415

>  <SCORE.INTRA.DIHEDRAL.0>
7.88077

>  <SCORE.INTRA.POLAR>
0

>  <SCORE.INTRA.POLAR.0>
0

>  <SCORE.INTRA.REPUL>
0

>  <SCORE.INTRA.REPUL.0>
0

>  <SCORE.INTRA.SOLV>
-0.833037

>  <SCORE.INTRA.SOLV.lig_0>
-63.2542

>  <SCORE.INTRA.VDW>
-0.661641

>  <SCORE.INTRA.VDW.0>
-3.15072

>  <SCORE.INTRA.norm>
-0.099958

>  <SCORE.RESTR>
0

>  <SCORE.RESTR.CAVITY>
0

>  <SCORE.RESTR.norm>
0

>  <SCORE.SYSTEM>
0

>  <SCORE.SYSTEM.CONST>
0

>  <SCORE.SYSTEM.DIHEDRAL>
0

>  <SCORE.SYSTEM.SOLV>
0

>  <SCORE.SYSTEM.norm>
0

>  <SCORE.heavy>
26

>  <SCORE.norm>
-0.519777

>  <RMSD>
7.642

$$$$
ligand
 OpenBabel11021811473D
libRbt.so/2013.1/901 2013/11/27
 26 27  0  0  0  0  0  0  0  0999 V2000
   -4.1348   -9.1704   18.4916 C   0  0  0  0  0  0  0  0  0  0  0  0
   -3.0448   -9.8943   22.1987 C   0  0  0  0  0  0  0  0  0  0  0  0
   -4.3446   -9.9479   21.7065 C   0  0  0  0  0  0  0  0  0  0  0  0
   -5.1145   -8.7145   21.2286 C   0  0  0  0  0  0  0  0  0  0  0  0
   -5.6127   -9.2618   18.8829 C   0  0  1  0  0  0  0  0  0  0  0  0
   -2.3985  -13.5899   22.8752 C   0  0  0  0  0  0  0  0  0  0  0  0
   -3.0908  -12.2874   22.4709 C   0  0  0  0  0  0  0  0  0  0  0  0
   -4.9610  -11.1926   21.6265 C   0  0  0  0  0  0  0  0  0  0  0  0
   -7.3420   -9.1856   20.3617 C   0  0  0  0  0  0  0  0  0  0  0  0
   -6.6024   -9.5804   17.9607 C   0  0  2  0  0  0  0  0  0  0  0  0
   -6.5153   -9.9034   16.4669 C   0  0  0  0  0  0  0  0  0  0  0  0
   -6.3868  -11.4027   16.1877 C   0  0  0  0  0  0  0  0  0  0  0  0
   -2.4031  -11.0721   22.5870 N   0  0  0  0  0  0  0  0  0  0  0  0
   -6.0342   -9.0561   20.1338 N   0  0  0  0  0  0  0  0  0  0  0  0
   -4.3446  -12.2999   21.9960 N   0  0  0  0  0  0  0  0  0  0  0  0
   -2.4577   -8.8160   22.2899 O   0  0  0  0  0  0  0  0  0  0  0  0
   -2.9277  -13.2794   16.0945 O   0  5  0  0  0  0  0  0  0  0  0  0
   -6.3240  -15.4171   13.9544 O   0  0  0  0  0  0  0  0  0  0  0  0
   -5.0542  -11.8722   16.4143 O   0  0  0  0  0  0  0  0  0  0  0  0
   -5.2025  -14.4241   16.0280 O   0  0  0  0  0  0  0  0  0  0  0  0
   -3.9063  -16.1118   14.5582 O   0  5  0  0  0  0  0  0  0  0  0  0
   -4.5197  -12.8627   14.1012 O   0  0  0  0  0  0  0  0  0  0  0  0
   -5.8787  -16.8892   16.0052 O   0  0  0  0  0  0  0  0  0  0  0  0
   -8.1091   -9.5219   18.8323 S   0  0  0  0  0  0  0  0  0  0  0  0
   -4.4347  -13.0901   15.5621 P   0  0  2  0  0  0  0  0  0  0  0  0
   -5.2325  -15.7323   15.0946 P   0  0  2  0  0  0  0  0  0  0  0  0
  2 16  2  0  0  0  0
  2  3  1  0  0  0  0
  2 13  1  0  0  0  0
  3  8  2  0  0  0  0
  3  4  1  0  0  0  0
  4 14  1  0  0  0  0
  5  1  1  1  0  0  0
  5 14  1  0  0  0  0
  5 10  1  0  0  0  0
  6  7  1  0  0  0  0
  7 13  1  0  0  0  0
  7 15  2  0  0  0  0
  8 15  1  0  0  0  0
  9 14  1  0  0  0  0
  9 24  1  0  0  0  0
 10 24  1  0  0  0  0
 10 11  1  6  0  0  0
 11 12  1  0  0  0  0
 12 19  1  0  0  0  0
 17 25  1  0  0  0  0
 19 25  1  0  0  0  0
 20 26  1  0  0  0  0
 21 26  1  0  0  0  0
 22 25  2  0  0  0  0
 23 26  2  0  0  0  0
 25 20  1  1  0  0  0
 26 18  1  6  0  0  0
M  CHG  2  17  -1  21  -1
M  END
>  <CHROM.1>
147.76103770,92.52528573,-78.07976345,-76.55151002,-148.61801300,-88.82415011
178.71569420,-77.38473152,-4.97335240,-11.96240340,18.20981890,1.44513253
-0.85886361,0.83025797

>  <Name>
ligand

>  <RI>
0

>  <Rbt.Current_Directory>
/home/itssahil/PROJECTS/Mol_Feturizer/New_Systems/rnas/3D2X

>  <Rbt.Executable>
rbdock ($Id: //depot/dev/client3/rdock/2013.1/src/exe/rbdock.cxx#4 $)

>  <Rbt.Library>
libRbt.so (2013.1, Build901 2013/11/27)

>  <Rbt.Parameter_File>
/export/apps/rDock/src/rDock_2013.1_src/data/scripts/dock_solv.prm

>  <Rbt.Receptor>
prm/pocket_docking_6.prm

>  <SCORE>
-13.6389

>  <SCORE.INTER>
-13.7708

>  <SCORE.INTER.CONST>
1

>  <SCORE.INTER.POLAR>
0

>  <SCORE.INTER.ROT>
8

>  <SCORE.INTER.SOLV>
13.6763

>  <SCORE.INTER.VDW>
-22.6727

>  <SCORE.INTER.norm>
-0.529648

>  <SCORE.INTRA>
0.131959

>  <SCORE.INTRA.DIHEDRAL>
3.36106

>  <SCORE.INTRA.DIHEDRAL.0>
7.88077

>  <SCORE.INTRA.POLAR>
0

>  <SCORE.INTRA.POLAR.0>
0

>  <SCORE.INTRA.REPUL>
0

>  <SCORE.INTRA.REPUL.0>
0

>  <SCORE.INTRA.SOLV>
-1.32825

>  <SCORE.INTRA.SOLV.lig_0>
-63.2542

>  <SCORE.INTRA.VDW>
-0.88445

>  <SCORE.INTRA.VDW.0>
-3.15072

>  <SCORE.INTRA.norm>
0.00507535

>  <SCORE.RESTR>
0

>  <SCORE.RESTR.CAVITY>
0

>  <SCORE.RESTR.norm>
0

>  <SCORE.SYSTEM>
0

>  <SCORE.SYSTEM.CONST>
0

>  <SCORE.SYSTEM.DIHEDRAL>
0

>  <SCORE.SYSTEM.SOLV>
0

>  <SCORE.SYSTEM.norm>
0

>  <SCORE.heavy>
26

>  <SCORE.norm>
-0.524573

>  <RMSD>
7.643

$$$$
ligand
 OpenBabel11021811473D
libRbt.so/2013.1/901 2013/11/27
 26 27  0  0  0  0  0  0  0  0999 V2000
   -2.9449  -11.9767   16.5084 C   0  0  0  0  0  0  0  0  0  0  0  0
   -4.2354  -16.2073   17.1085 C   0  0  0  0  0  0  0  0  0  0  0  0
   -4.6798  -15.6868   15.8976 C   0  0  0  0  0  0  0  0  0  0  0  0
   -4.1672  -14.3700   15.3095 C   0  0  0  0  0  0  0  0  0  0  0  0
   -4.4546  -12.1415   16.3103 C   0  0  1  0  0  0  0  0  0  0  0  0
   -6.2220  -19.4581   17.2452 C   0  0  0  0  0  0  0  0  0  0  0  0
   -5.6772  -18.1083   16.7758 C   0  0  0  0  0  0  0  0  0  0  0  0
   -5.6214  -16.4173   15.1798 C   0  0  0  0  0  0  0  0  0  0  0  0
   -6.3130  -13.2577   15.6147 C   0  0  0  0  0  0  0  0  0  0  0  0
   -5.3600  -11.1539   16.6794 C   0  0  2  0  0  0  0  0  0  0  0  0
   -5.1400   -9.7752   17.3075 C   0  0  0  0  0  0  0  0  0  0  0  0
   -4.9660   -9.8333   18.8269 C   0  0  0  0  0  0  0  0  0  0  0  0
   -4.7338  -17.4311   17.5599 N   0  0  0  0  0  0  0  0  0  0  0  0
   -4.9872  -13.2353   15.7582 N   0  0  0  0  0  0  0  0  0  0  0  0
   -6.0854  -17.5736   15.6159 N   0  0  0  0  0  0  0  0  0  0  0  0
   -3.4037  -15.5971   17.7806 O   0  0  0  0  0  0  0  0  0  0  0  0
   -6.3561   -9.7392   21.7963 O   0  5  0  0  0  0  0  0  0  0  0  0
   -8.4093  -14.2619   20.9295 O   0  0  0  0  0  0  0  0  0  0  0  0
   -5.9428  -10.6799   19.4407 O   0  0  0  0  0  0  0  0  0  0  0  0
   -7.0175  -12.1445   21.2801 O   0  0  0  0  0  0  0  0  0  0  0  0
   -6.8755  -13.4092   19.0288 O   0  5  0  0  0  0  0  0  0  0  0  0
   -4.5250  -11.5232   21.4145 O   0  0  0  0  0  0  0  0  0  0  0  0
   -5.8611  -14.4209   21.1584 O   0  0  0  0  0  0  0  0  0  0  0  0
   -6.9403  -11.7896   16.3161 S   0  0  0  0  0  0  0  0  0  0  0  0
   -5.8686  -11.0534   21.0054 P   0  0  2  0  0  0  0  0  0  0  0  0
   -7.0350  -13.5461   20.4937 P   0  0  2  0  0  0  0  0  0  0  0  0
  2 16  2  0  0  0  0
  2  3  1  0  0  0  0
  2 13  1  0  0  0  0
  3  8  2  0  0  0  0
  3  4  1  0  0  0  0
  4 14  1  0  0  0  0
  5  1  1  6  0  0  0
  5 14  1  0  0  0  0
  5 10  1  0  0  0  0
  6  7  1  0  0  0  0
  7 13  1  0  0  0  0
  7 15  2  0  0  0  0
  8 15  1  0  0  0  0
  9 14  1  0  0  0  0
  9 24  1  0  0  0  0
 10 24  1  0  0  0  0
 10 11  1  1  0  0  0
 11 12  1  0  0  0  0
 12 19  1  0  0  0  0
 17 25  1  0  0  0  0
 19 25  1  0  0  0  0
 20 26  1  0  0  0  0
 21 26  1  0  0  0  0
 22 25  2  0  0  0  0
 23 26  2  0  0  0  0
 25 20  1  1  0  0  0
 26 18  1  1  0  0  0
M  CHG  2  17  -1  21  -1
M  END
>  <CHROM.1>
-90.26513606,-82.34932763,-45.52659436,128.11435151,172.43136128,170.96646677
75.24917854,-173.90588829,-5.69264079,-13.39674932,18.30381065,-1.22111069
1.22954359,0.28114656

>  <Name>
ligand

>  <RI>
0

>  <Rbt.Current_Directory>
/home/itssahil/PROJECTS/Mol_Feturizer/New_Systems/rnas/3D2X

>  <Rbt.Executable>
rbdock ($Id: //depot/dev/client3/rdock/2013.1/src/exe/rbdock.cxx#4 $)

>  <Rbt.Library>
libRbt.so (2013.1, Build901 2013/11/27)

>  <Rbt.Parameter_File>
/export/apps/rDock/src/rDock_2013.1_src/data/scripts/dock_solv.prm

>  <Rbt.Receptor>
prm/pocket_docking_8.prm

>  <SCORE>
-15.295

>  <SCORE.INTER>
-12.649

>  <SCORE.INTER.CONST>
1

>  <SCORE.INTER.POLAR>
0

>  <SCORE.INTER.ROT>
8

>  <SCORE.INTER.SOLV>
7.07389

>  <SCORE.INTER.VDW>
-19.724

>  <SCORE.INTER.norm>
-0.4865

>  <SCORE.INTRA>
-2.64602

>  <SCORE.INTRA.DIHEDRAL>
-1.65363

>  <SCORE.INTRA.DIHEDRAL.0>
7.88077

>  <SCORE.INTRA.POLAR>
0

>  <SCORE.INTRA.POLAR.0>
0

>  <SCORE.INTRA.REPUL>
0

>  <SCORE.INTRA.REPUL.0>
0

>  <SCORE.INTRA.SOLV>
0.533791

>  <SCORE.INTRA.SOLV.lig_0>
-63.2542

>  <SCORE.INTRA.VDW>
-2.0861

>  <SCORE.INTRA.VDW.0>
-3.15072

>  <SCORE.INTRA.norm>
-0.10177

>  <SCORE.RESTR>
0

>  <SCORE.RESTR.CAVITY>
0

>  <SCORE.RESTR.norm>
0

>  <SCORE.SYSTEM>
0

>  <SCORE.SYSTEM.CONST>
0

>  <SCORE.SYSTEM.DIHEDRAL>
0

>  <SCORE.SYSTEM.SOLV>
0

>  <SCORE.SYSTEM.norm>
0

>  <SCORE.heavy>
26

>  <SCORE.norm>
-0.58827

>  <RMSD>
7.700

$$$$
ligand
 OpenBabel11021811473D
libRbt.so/2013.1/901 2013/11/27
 26 27  0  0  0  0  0  0  0  0999 V2000
   -7.7042  -12.2416   17.5932 C   0  0  0  0  0  0  0  0  0  0  0  0
   -6.2808  -10.3025   21.0927 C   0  0  0  0  0  0  0  0  0  0  0  0
   -6.4631   -9.3381   20.1070 C   0  0  0  0  0  0  0  0  0  0  0  0
   -7.2142   -9.6030   18.8000 C   0  0  0  0  0  0  0  0  0  0  0  0
   -6.5150  -11.3521   17.2183 C   0  0  1  0  0  0  0  0  0  0  0  0
   -4.4038   -8.2744   23.7188 C   0  0  0  0  0  0  0  0  0  0  0  0
   -5.1285   -8.6625   22.4291 C   0  0  0  0  0  0  0  0  0  0  0  0
   -5.9535   -8.0644   20.3383 C   0  0  0  0  0  0  0  0  0  0  0  0
   -5.2591   -9.4581   17.3539 C   0  0  0  0  0  0  0  0  0  0  0  0
   -5.5806  -11.7327   16.2626 C   0  0  2  0  0  0  0  0  0  0  0  0
   -5.4826  -12.9950   15.4021 C   0  0  0  0  0  0  0  0  0  0  0  0
   -4.5111  -14.0311   15.9721 C   0  0  0  0  0  0  0  0  0  0  0  0
   -5.6078   -9.9696   22.2700 N   0  0  0  0  0  0  0  0  0  0  0  0
   -6.3156  -10.1545   17.7756 N   0  0  0  0  0  0  0  0  0  0  0  0
   -5.3192   -7.7606   21.4554 N   0  0  0  0  0  0  0  0  0  0  0  0
   -6.7125  -11.4445   20.9336 O   0  0  0  0  0  0  0  0  0  0  0  0
   -3.0874  -15.5034   18.4505 O   0  5  0  0  0  0  0  0  0  0  0  0
   -6.2997  -16.6844   21.1782 O   0  0  0  0  0  0  0  0  0  0  0  0
   -5.1061  -14.7914   17.0284 O   0  0  0  0  0  0  0  0  0  0  0  0
   -5.3332  -16.6508   18.8101 O   0  0  0  0  0  0  0  0  0  0  0  0
   -4.9585  -14.6243   20.3726 O   0  5  0  0  0  0  0  0  0  0  0  0
   -4.0245  -17.0928   16.6402 O   0  0  0  0  0  0  0  0  0  0  0  0
   -7.2864  -15.1140   19.4086 O   0  0  0  0  0  0  0  0  0  0  0  0
   -4.4031  -10.4507   16.2037 S   0  0  0  0  0  0  0  0  0  0  0  0
   -4.3675  -16.0754   17.6602 P   0  0  2  0  0  0  0  0  0  0  0  0
   -5.8979  -15.6959   19.9732 P   0  0  2  0  0  0  0  0  0  0  0  0
  2 16  2  0  0  0  0
  2  3  1  0  0  0  0
  2 13  1  0  0  0  0
  3  8  2  0  0  0  0
  3  4  1  0  0  0  0
  4 14  1  0  0  0  0
  5  1  1  6  0  0  0
  5 14  1  0  0  0  0
  5 10  1  0  0  0  0
  6  7  1  0  0  0  0
  7 13  1  0  0  0  0
  7 15  2  0  0  0  0
  8 15  1  0  0  0  0
  9 14  1  0  0  0  0
  9 24  1  0  0  0  0
 10 24  1  0  0  0  0
 10 11  1  1  0  0  0
 11 12  1  0  0  0  0
 12 19  1  0  0  0  0
 17 25  1  0  0  0  0
 19 25  1  0  0  0  0
 20 26  1  0  0  0  0
 21 26  1  0  0  0  0
 22 25  2  0  0  0  0
 23 26  2  0  0  0  0
 25 20  1  1  0  0  0
 26 18  1  1  0  0  0
M  CHG  2  17  -1  21  -1
M  END
>  <CHROM.1>
-86.74848322,-98.33290357,80.05174359,119.82454008,171.58408335,59.71789072
68.51825830,-158.47761240,-5.48143162,-12.63546135,18.88314431,-2.45497556
-1.44660628,2.62673926

>  <Name>
ligand

>  <RI>
0

>  <Rbt.Current_Directory>
/home/itssahil/PROJECTS/Mol_Feturizer/New_Systems/rnas/3D2X

>  <Rbt.Executable>
rbdock ($Id: //depot/dev/client3/rdock/2013.1/src/exe/rbdock.cxx#4 $)

>  <Rbt.Library>
libRbt.so (2013.1, Build901 2013/11/27)

>  <Rbt.Parameter_File>
/export/apps/rDock/src/rDock_2013.1_src/data/scripts/dock_solv.prm

>  <Rbt.Receptor>
prm/pocket_docking_8.prm

>  <SCORE>
-14.2163

>  <SCORE.INTER>
-13.2016

>  <SCORE.INTER.CONST>
1

>  <SCORE.INTER.POLAR>
0

>  <SCORE.INTER.ROT>
8

>  <SCORE.INTER.SOLV>
8.26759

>  <SCORE.INTER.VDW>
-20.4902

>  <SCORE.INTER.norm>
-0.507753

>  <SCORE.INTRA>
-1.01472

>  <SCORE.INTRA.DIHEDRAL>
-0.122012

>  <SCORE.INTRA.DIHEDRAL.0>
7.88077

>  <SCORE.INTRA.POLAR>
0

>  <SCORE.INTRA.POLAR.0>
0

>  <SCORE.INTRA.REPUL>
0

>  <SCORE.INTRA.REPUL.0>
0

>  <SCORE.INTRA.SOLV>
1.25038

>  <SCORE.INTRA.SOLV.lig_0>
-63.2542

>  <SCORE.INTRA.VDW>
-1.57891

>  <SCORE.INTRA.VDW.0>
-3.15072

>  <SCORE.INTRA.norm>
-0.0390278

>  <SCORE.RESTR>
0

>  <SCORE.RESTR.CAVITY>
0

>  <SCORE.RESTR.norm>
0

>  <SCORE.SYSTEM>
0

>  <SCORE.SYSTEM.CONST>
0

>  <SCORE.SYSTEM.DIHEDRAL>
0

>  <SCORE.SYSTEM.SOLV>
0

>  <SCORE.SYSTEM.norm>
0

>  <SCORE.heavy>
26

>  <SCORE.norm>
-0.546781

>  <RMSD>
7.702

$$$$
ligand
 OpenBabel11021811473D
libRbt.so/2013.1/901 2013/11/27
 26 27  0  0  0  0  0  0  0  0999 V2000
   -6.6470  -12.7806   18.6466 C   0  0  0  0  0  0  0  0  0  0  0  0
   -6.7639   -8.9796   20.6480 C   0  0  0  0  0  0  0  0  0  0  0  0
   -6.5490   -9.1838   19.2890 C   0  0  0  0  0  0  0  0  0  0  0  0
   -7.5059   -9.9773   18.3961 C   0  0  0  0  0  0  0  0  0  0  0  0
   -6.3748  -11.9244   17.4063 C   0  0  1  0  0  0  0  0  0  0  0  0
   -3.7430   -6.8237   21.5190 C   0  0  0  0  0  0  0  0  0  0  0  0
   -4.7404   -7.6751   20.7321 C   0  0  0  0  0  0  0  0  0  0  0  0
   -5.4162   -8.6156   18.7151 C   0  0  0  0  0  0  0  0  0  0  0  0
   -6.5063  -10.0141   16.1748 C   0  0  0  0  0  0  0  0  0  0  0  0
   -5.7035  -12.4241   16.2968 C   0  0  2  0  0  0  0  0  0  0  0  0
   -5.1183  -13.8112   16.0189 C   0  0  0  0  0  0  0  0  0  0  0  0
   -3.9886  -14.1852   16.9813 C   0  0  0  0  0  0  0  0  0  0  0  0
   -5.8551   -8.2177   21.3851 N   0  0  0  0  0  0  0  0  0  0  0  0
   -6.7794  -10.6546   17.3124 N   0  0  0  0  0  0  0  0  0  0  0  0
   -4.5638   -7.8967   19.4216 N   0  0  0  0  0  0  0  0  0  0  0  0
   -7.7515   -9.4633   21.2016 O   0  0  0  0  0  0  0  0  0  0  0  0
   -3.5308  -12.4181   19.2548 O   0  5  0  0  0  0  0  0  0  0  0  0
   -1.3261  -11.8844   20.8171 O   0  0  0  0  0  0  0  0  0  0  0  0
   -2.9013  -13.2577   16.9090 O   0  0  0  0  0  0  0  0  0  0  0  0
   -1.2758  -11.7711   18.2621 O   0  0  0  0  0  0  0  0  0  0  0  0
    0.5885  -10.6128   19.6300 O   0  5  0  0  0  0  0  0  0  0  0  0
   -3.4255  -10.7653   17.2701 O   0  0  0  0  0  0  0  0  0  0  0  0
   -1.7981   -9.6682   19.6185 O   0  0  0  0  0  0  0  0  0  0  0  0
   -5.5857  -11.1017   15.1696 S   0  0  0  0  0  0  0  0  0  0  0  0
   -2.8242  -11.9743   17.8785 P   0  0  2  0  0  0  0  0  0  0  0  0
   -0.8482  -10.9651   19.5854 P   0  0  2  0  0  0  0  0  0  0  0  0
  2 16  2  0  0  0  0
  2  3  1  0  0  0  0
  2 13  1  0  0  0  0
  3  8  2  0  0  0  0
  3  4  1  0  0  0  0
  4 14  1  0  0  0  0
  5  1  1  6  0  0  0
  5 14  1  0  0  0  0
  5 10  1  0  0  0  0
  6  7  1  0  0  0  0
  7 13  1  0  0  0  0
  7 15  2  0  0  0  0
  8 15  1  0  0  0  0
  9 14  1  0  0  0  0
  9 24  1  0  0  0  0
 10 24  1  0  0  0  0
 10 11  1  1  0  0  0
 11 12  1  0  0  0  0
 12 19  1  0  0  0  0
 17 25  1  0  0  0  0
 19 25  1  0  0  0  0
 20 26  1  0  0  0  0
 21 26  1  0  0  0  0
 22 25  2  0  0  0  0
 23 26  2  0  0  0  0
 25 20  1  1  0  0  0
 26 18  1  1  0  0  0
M  CHG  2  17  -1  21  -1
M  END
>  <CHROM.1>
-148.76385777,-63.28277375,-59.66212833,95.06659539,91.84102936,-45.59674667
31.55127452,67.80529071,-4.21362416,-10.78582853,18.52586164,2.91692714,-0.26390708
0.79222461

>  <Name>
ligand

>  <RI>
0

>  <Rbt.Current_Directory>
/home/itssahil/PROJECTS/Mol_Feturizer/New_Systems/rnas/3D2X

>  <Rbt.Executable>
rbdock ($Id: //depot/dev/client3/rdock/2013.1/src/exe/rbdock.cxx#4 $)

>  <Rbt.Library>
libRbt.so (2013.1, Build901 2013/11/27)

>  <Rbt.Parameter_File>
/export/apps/rDock/src/rDock_2013.1_src/data/scripts/dock_solv.prm

>  <Rbt.Receptor>
prm/pocket_docking_8.prm

>  <SCORE>
-9.71167

>  <SCORE.INTER>
-10.764

>  <SCORE.INTER.CONST>
1

>  <SCORE.INTER.POLAR>
0

>  <SCORE.INTER.ROT>
8

>  <SCORE.INTER.SOLV>
11.6206

>  <SCORE.INTER.VDW>
-19.9829

>  <SCORE.INTER.norm>
-0.414001

>  <SCORE.INTRA>
1.05235

>  <SCORE.INTRA.DIHEDRAL>
2.74298

>  <SCORE.INTRA.DIHEDRAL.0>
7.88077

>  <SCORE.INTRA.POLAR>
0

>  <SCORE.INTRA.POLAR.0>
0

>  <SCORE.INTRA.REPUL>
0

>  <SCORE.INTRA.REPUL.0>
0

>  <SCORE.INTRA.SOLV>
5.14514

>  <SCORE.INTRA.SOLV.lig_0>
-63.2542

>  <SCORE.INTRA.VDW>
-2.89171

>  <SCORE.INTRA.VDW.0>
-3.15072

>  <SCORE.INTRA.norm>
0.0404751

>  <SCORE.RESTR>
0

>  <SCORE.RESTR.CAVITY>
0

>  <SCORE.RESTR.norm>
0

>  <SCORE.SYSTEM>
0

>  <SCORE.SYSTEM.CONST>
0

>  <SCORE.SYSTEM.DIHEDRAL>
0

>  <SCORE.SYSTEM.SOLV>
0

>  <SCORE.SYSTEM.norm>
0

>  <SCORE.heavy>
26

>  <SCORE.norm>
-0.373526

>  <RMSD>
7.712

$$$$
ligand
 OpenBabel11021811473D
libRbt.so/2013.1/901 2013/11/27
 26 27  0  0  0  0  0  0  0  0999 V2000
   -2.9311  -10.3205   17.6125 C   0  0  0  0  0  0  0  0  0  0  0  0
   -5.2525   -8.9793   21.2410 C   0  0  0  0  0  0  0  0  0  0  0  0
   -5.7870   -8.8524   19.9632 C   0  0  0  0  0  0  0  0  0  0  0  0
   -4.9495   -8.4956   18.7328 C   0  0  0  0  0  0  0  0  0  0  0  0
   -4.3615  -10.2153   17.0753 C   0  0  1  0  0  0  0  0  0  0  0  0
   -8.3648   -9.9681   23.2077 C   0  0  0  0  0  0  0  0  0  0  0  0
   -7.4434   -9.5592   22.0575 C   0  0  0  0  0  0  0  0  0  0  0  0
   -7.1488   -9.0854   19.7996 C   0  0  0  0  0  0  0  0  0  0  0  0
   -6.4849   -9.3942   17.0684 C   0  0  0  0  0  0  0  0  0  0  0  0
   -4.8110  -10.9928   16.0147 C   0  0  2  0  0  0  0  0  0  0  0  0
   -4.0977  -12.0593   15.1797 C   0  0  0  0  0  0  0  0  0  0  0  0
   -3.3649  -13.0950   16.0356 C   0  0  0  0  0  0  0  0  0  0  0  0
   -6.0824   -9.3368   22.3056 N   0  0  0  0  0  0  0  0  0  0  0  0
   -5.2632   -9.3831   17.6036 N   0  0  0  0  0  0  0  0  0  0  0  0
   -7.9240   -9.4234   20.8132 N   0  0  0  0  0  0  0  0  0  0  0  0
   -4.0530   -8.7819   21.4364 O   0  0  0  0  0  0  0  0  0  0  0  0
   -5.0736  -16.1625   17.8122 O   0  5  0  0  0  0  0  0  0  0  0  0
   -2.8279  -17.3090   13.9101 O   0  0  0  0  0  0  0  0  0  0  0  0
   -4.2733  -14.0162   16.6472 O   0  0  0  0  0  0  0  0  0  0  0  0
   -3.0765  -16.2702   16.2344 O   0  0  0  0  0  0  0  0  0  0  0  0
   -4.9700  -17.7569   15.2895 O   0  5  0  0  0  0  0  0  0  0  0  0
   -2.8323  -15.0726   18.4978 O   0  0  0  0  0  0  0  0  0  0  0  0
   -4.5255  -15.4290   14.3038 O   0  0  0  0  0  0  0  0  0  0  0  0
   -6.4578  -10.5058   15.7252 S   0  0  0  0  0  0  0  0  0  0  0  0
   -3.7520  -15.3563   17.3721 P   0  0  2  0  0  0  0  0  0  0  0  0
   -3.9208  -16.7665   14.9599 P   0  0  2  0  0  0  0  0  0  0  0  0
  2 16  2  0  0  0  0
  2  3  1  0  0  0  0
  2 13  1  0  0  0  0
  3  8  2  0  0  0  0
  3  4  1  0  0  0  0
  4 14  1  0  0  0  0
  5  1  1  1  0  0  0
  5 14  1  0  0  0  0
  5 10  1  0  0  0  0
  6  7  1  0  0  0  0
  7 13  1  0  0  0  0
  7 15  2  0  0  0  0
  8 15  1  0  0  0  0
  9 14  1  0  0  0  0
  9 24  1  0  0  0  0
 10 24  1  0  0  0  0
 10 11  1  6  0  0  0
 11 12  1  0  0  0  0
 12 19  1  0  0  0  0
 17 25  1  0  0  0  0
 19 25  1  0  0  0  0
 20 26  1  0  0  0  0
 21 26  1  0  0  0  0
 22 25  2  0  0  0  0
 23 26  2  0  0  0  0
 25 20  1  6  0  0  0
 26 18  1  6  0  0  0
M  CHG  2  17  -1  21  -1
M  END
>  <CHROM.1>
133.31757744,48.78670793,74.76604787,-116.31365690,168.60003706,52.88084848
-175.44349243,166.02556813,-4.90313951,-12.47210368,17.64801073,-2.94954561
-1.28917256,2.39110712

>  <Name>
ligand

>  <RI>
0

>  <Rbt.Current_Directory>
/home/itssahil/PROJECTS/Mol_Feturizer/New_Systems/rnas/3D2X

>  <Rbt.Executable>
rbdock ($Id: //depot/dev/client3/rdock/2013.1/src/exe/rbdock.cxx#4 $)

>  <Rbt.Library>
libRbt.so (2013.1, Build901 2013/11/27)

>  <Rbt.Parameter_File>
/export/apps/rDock/src/rDock_2013.1_src/data/scripts/dock_solv.prm

>  <Rbt.Receptor>
prm/pocket_docking_7.prm

>  <SCORE>
-15.8078

>  <SCORE.INTER>
-15.4534

>  <SCORE.INTER.CONST>
1

>  <SCORE.INTER.POLAR>
0

>  <SCORE.INTER.ROT>
8

>  <SCORE.INTER.SOLV>
9.87994

>  <SCORE.INTER.VDW>
-22.5289

>  <SCORE.INTER.norm>
-0.594361

>  <SCORE.INTRA>
-0.354432

>  <SCORE.INTRA.DIHEDRAL>
-1.65357

>  <SCORE.INTRA.DIHEDRAL.0>
7.88077

>  <SCORE.INTRA.POLAR>
0

>  <SCORE.INTRA.POLAR.0>
0

>  <SCORE.INTRA.REPUL>
0

>  <SCORE.INTRA.REPUL.0>
0

>  <SCORE.INTRA.SOLV>
0.933977

>  <SCORE.INTRA.SOLV.lig_0>
-63.2542

>  <SCORE.INTRA.VDW>
0.00536217

>  <SCORE.INTRA.VDW.0>
-3.15072

>  <SCORE.INTRA.norm>
-0.013632

>  <SCORE.RESTR>
0

>  <SCORE.RESTR.CAVITY>
0

>  <SCORE.RESTR.norm>
0

>  <SCORE.SYSTEM>
0

>  <SCORE.SYSTEM.CONST>
0

>  <SCORE.SYSTEM.DIHEDRAL>
0

>  <SCORE.SYSTEM.SOLV>
0

>  <SCORE.SYSTEM.norm>
0

>  <SCORE.heavy>
26

>  <SCORE.norm>
-0.607993

>  <RMSD>
7.818

$$$$
ligand
 OpenBabel11021811473D
libRbt.so/2013.1/901 2013/11/27
 26 27  0  0  0  0  0  0  0  0999 V2000
   -2.8996  -10.4904   17.5764 C   0  0  0  0  0  0  0  0  0  0  0  0
   -5.1947   -9.0341   21.1131 C   0  0  0  0  0  0  0  0  0  0  0  0
   -5.7385   -8.9145   19.8385 C   0  0  0  0  0  0  0  0  0  0  0  0
   -4.9053   -8.5936   18.5953 C   0  0  0  0  0  0  0  0  0  0  0  0
   -4.3203  -10.3846   17.0141 C   0  0  1  0  0  0  0  0  0  0  0  0
   -8.3085   -9.9277   23.1226 C   0  0  0  0  0  0  0  0  0  0  0  0
   -7.3896   -9.5553   21.9582 C   0  0  0  0  0  0  0  0  0  0  0  0
   -7.1064   -9.1209   19.6909 C   0  0  0  0  0  0  0  0  0  0  0  0
   -6.4303   -9.5326   16.9437 C   0  0  0  0  0  0  0  0  0  0  0  0
   -4.7664  -11.1956   15.9774 C   0  0  2  0  0  0  0  0  0  0  0  0
   -4.0579  -12.3041   15.1947 C   0  0  0  0  0  0  0  0  0  0  0  0
   -4.4539  -13.7078   15.6584 C   0  0  0  0  0  0  0  0  0  0  0  0
   -6.0218   -9.3583   22.1904 N   0  0  0  0  0  0  0  0  0  0  0  0
   -5.2165   -9.5192   17.4964 N   0  0  0  0  0  0  0  0  0  0  0  0
   -7.8789   -9.4274   20.7164 N   0  0  0  0  0  0  0  0  0  0  0  0
   -3.9896   -8.8594   21.2946 O   0  0  0  0  0  0  0  0  0  0  0  0
   -4.7240  -15.0931   19.2759 O   0  5  0  0  0  0  0  0  0  0  0  0
   -6.1791  -15.9384   14.6193 O   0  0  0  0  0  0  0  0  0  0  0  0
   -4.2342  -13.8847   17.0614 O   0  0  0  0  0  0  0  0  0  0  0  0
   -5.5410  -16.1151   17.0902 O   0  0  0  0  0  0  0  0  0  0  0  0
   -4.0012  -17.1604   15.2944 O   0  5  0  0  0  0  0  0  0  0  0  0
   -3.0209  -16.0869   17.6046 O   0  0  0  0  0  0  0  0  0  0  0  0
   -6.2881  -18.2021   15.8171 O   0  0  0  0  0  0  0  0  0  0  0  0
   -6.4011  -10.6954   15.6446 S   0  0  0  0  0  0  0  0  0  0  0  0
   -4.2928  -15.3414   17.7452 P   0  0  2  0  0  0  0  0  0  0  0  0
   -5.4007  -16.8686   15.6774 P   0  0  2  0  0  0  0  0  0  0  0  0
  2 16  2  0  0  0  0
  2  3  1  0  0  0  0
  2 13  1  0  0  0  0
  3  8  2  0  0  0  0
  3  4  1  0  0  0  0
  4 14  1  0  0  0  0
  5  1  1  1  0  0  0
  5 14  1  0  0  0  0
  5 10  1  0  0  0  0
  6  7  1  0  0  0  0
  7 13  1  0  0  0  0
  7 15  2  0  0  0  0
  8 15  1  0  0  0  0
  9 14  1  0  0  0  0
  9 24  1  0  0  0  0
 10 24  1  0  0  0  0
 10 11  1  6  0  0  0
 11 12  1  0  0  0  0
 12 19  1  0  0  0  0
 17 25  1  0  0  0  0
 19 25  1  0  0  0  0
 20 26  1  0  0  0  0
 21 26  1  0  0  0  0
 22 25  2  0  0  0  0
 23 26  2  0  0  0  0
 25 20  1  6  0  0  0
 26 18  1  6  0  0  0
M  CHG  2  17  -1  21  -1
M  END
>  <CHROM.1>
131.43236089,101.35668960,-55.45147875,-114.75052088,-167.83608739,-165.09436127
-152.75024816,-106.06415879,-5.30487973,-12.57438848,17.82051395,-2.22002542
-1.33343693,3.05586897

>  <Name>
ligand

>  <RI>
0

>  <Rbt.Current_Directory>
/home/itssahil/PROJECTS/Mol_Feturizer/New_Systems/rnas/3D2X

>  <Rbt.Executable>
rbdock ($Id: //depot/dev/client3/rdock/2013.1/src/exe/rbdock.cxx#4 $)

>  <Rbt.Library>
libRbt.so (2013.1, Build901 2013/11/27)

>  <Rbt.Parameter_File>
/export/apps/rDock/src/rDock_2013.1_src/data/scripts/dock_solv.prm

>  <Rbt.Receptor>
prm/pocket_docking_8.prm

>  <SCORE>
-16.9744

>  <SCORE.INTER>
-16.7959

>  <SCORE.INTER.CONST>
1

>  <SCORE.INTER.POLAR>
0

>  <SCORE.INTER.ROT>
8

>  <SCORE.INTER.SOLV>
12.7474

>  <SCORE.INTER.VDW>
-24.3797

>  <SCORE.INTER.norm>
-0.645995

>  <SCORE.INTRA>
-0.17852

>  <SCORE.INTRA.DIHEDRAL>
1.18776

>  <SCORE.INTRA.DIHEDRAL.0>
7.88077

>  <SCORE.INTRA.POLAR>
0

>  <SCORE.INTRA.POLAR.0>
0

>  <SCORE.INTRA.REPUL>
0

>  <SCORE.INTRA.REPUL.0>
0

>  <SCORE.INTRA.SOLV>
-1.08879

>  <SCORE.INTRA.SOLV.lig_0>
-63.2542

>  <SCORE.INTRA.VDW>
-0.228005

>  <SCORE.INTRA.VDW.0>
-3.15072

>  <SCORE.INTRA.norm>
-0.00686617

>  <SCORE.RESTR>
0

>  <SCORE.RESTR.CAVITY>
0

>  <SCORE.RESTR.norm>
0

>  <SCORE.SYSTEM>
0

>  <SCORE.SYSTEM.CONST>
0

>  <SCORE.SYSTEM.DIHEDRAL>
0

>  <SCORE.SYSTEM.SOLV>
0

>  <SCORE.SYSTEM.norm>
0

>  <SCORE.heavy>
26

>  <SCORE.norm>
-0.652862

>  <RMSD>
7.852

$$$$
ligand
 OpenBabel11021811473D
libRbt.so/2013.1/901 2013/11/27
 26 27  0  0  0  0  0  0  0  0999 V2000
   -7.7315  -11.9887   17.7625 C   0  0  0  0  0  0  0  0  0  0  0  0
   -5.9462   -8.7980   21.2349 C   0  0  0  0  0  0  0  0  0  0  0  0
   -6.5765   -9.7335   20.4211 C   0  0  0  0  0  0  0  0  0  0  0  0
   -7.1301   -9.4034   19.0329 C   0  0  0  0  0  0  0  0  0  0  0  0
   -6.5206  -11.1286   17.3890 C   0  0  1  0  0  0  0  0  0  0  0  0
   -5.0286  -10.9760   24.2260 C   0  0  0  0  0  0  0  0  0  0  0  0
   -5.5882  -10.5247   22.8761 C   0  0  0  0  0  0  0  0  0  0  0  0
   -6.6852  -11.0386   20.8906 C   0  0  0  0  0  0  0  0  0  0  0  0
   -5.1993   -9.2818   17.5524 C   0  0  0  0  0  0  0  0  0  0  0  0
   -5.6179  -11.5121   16.4043 C   0  0  2  0  0  0  0  0  0  0  0  0
   -5.5789  -12.7517   15.5069 C   0  0  0  0  0  0  0  0  0  0  0  0
   -4.1597  -13.2754   15.2750 C   0  0  0  0  0  0  0  0  0  0  0  0
   -5.4430   -9.1893   22.4773 N   0  0  0  0  0  0  0  0  0  0  0  0
   -6.2703   -9.9547   17.9756 N   0  0  0  0  0  0  0  0  0  0  0  0
   -6.2054  -11.3976   22.0668 N   0  0  0  0  0  0  0  0  0  0  0  0
   -5.8269   -7.6301   20.8638 O   0  0  0  0  0  0  0  0  0  0  0  0
   -4.0903  -16.7952   13.6452 O   0  5  0  0  0  0  0  0  0  0  0  0
   -4.7026  -17.6328   18.0960 O   0  0  0  0  0  0  0  0  0  0  0  0
   -4.1300  -14.3059   14.2826 O   0  0  0  0  0  0  0  0  0  0  0  0
   -4.6951  -16.1274   16.0279 O   0  0  0  0  0  0  0  0  0  0  0  0
   -6.1464  -18.2680   16.0456 O   0  5  0  0  0  0  0  0  0  0  0  0
   -6.3397  -15.6127   14.1181 O   0  0  0  0  0  0  0  0  0  0  0  0
   -3.5873  -18.4290   15.9297 O   0  0  0  0  0  0  0  0  0  0  0  0
   -4.3994  -10.2687   16.3578 S   0  0  0  0  0  0  0  0  0  0  0  0
   -4.9094  -15.6993   14.4928 P   0  0  2  0  0  0  0  0  0  0  0  0
   -4.8772  -17.6542   16.4961 P   0  0  2  0  0  0  0  0  0  0  0  0
  2 16  2  0  0  0  0
  2  3  1  0  0  0  0
  2 13  1  0  0  0  0
  3  8  2  0  0  0  0
  3  4  1  0  0  0  0
  4 14  1  0  0  0  0
  5  1  1  6  0  0  0
  5 14  1  0  0  0  0
  5 10  1  0  0  0  0
  6  7  1  0  0  0  0
  7 13  1  0  0  0  0
  7 15  2  0  0  0  0
  8 15  1  0  0  0  0
  9 14  1  0  0  0  0
  9 24  1  0  0  0  0
 10 24  1  0  0  0  0
 10 11  1  1  0  0  0
 11 12  1  0  0  0  0
 12 19  1  0  0  0  0
 17 25  1  0  0  0  0
 19 25  1  0  0  0  0
 20 26  1  0  0  0  0
 21 26  1  0  0  0  0
 22 25  2  0  0  0  0
 23 26  2  0  0  0  0
 25 20  1  1  0  0  0
 26 18  1  1  0  0  0
M  CHG  2  17  -1  21  -1
M  END
>  <CHROM.1>
105.63705382,-142.08689059,-171.41827851,96.09959134,-62.45100843,-46.86419873
-151.83781689,-175.29244617,-5.38239826,-13.07337650,17.60092994,3.13535687
-1.44805105,2.23104986

>  <Name>
ligand

>  <RI>
0

>  <Rbt.Current_Directory>
/home/itssahil/PROJECTS/Mol_Feturizer/New_Systems/rnas/3D2X

>  <Rbt.Executable>
rbdock ($Id: //depot/dev/client3/rdock/2013.1/src/exe/rbdock.cxx#4 $)

>  <Rbt.Library>
libRbt.so (2013.1, Build901 2013/11/27)

>  <Rbt.Parameter_File>
/export/apps/rDock/src/rDock_2013.1_src/data/scripts/dock_solv.prm

>  <Rbt.Receptor>
prm/pocket_docking_7.prm

>  <SCORE>
-15.5541

>  <SCORE.INTER>
-15.59

>  <SCORE.INTER.CONST>
1

>  <SCORE.INTER.POLAR>
0

>  <SCORE.INTER.ROT>
8

>  <SCORE.INTER.SOLV>
15.3714

>  <SCORE.INTER.VDW>
-24.4505

>  <SCORE.INTER.norm>
-0.599615

>  <SCORE.INTRA>
0.0359254

>  <SCORE.INTRA.DIHEDRAL>
-1.12069

>  <SCORE.INTRA.DIHEDRAL.0>
7.88077

>  <SCORE.INTRA.POLAR>
0

>  <SCORE.INTRA.POLAR.0>
0

>  <SCORE.INTRA.REPUL>
0

>  <SCORE.INTRA.REPUL.0>
0

>  <SCORE.INTRA.SOLV>
1.08764

>  <SCORE.INTRA.SOLV.lig_0>
-63.2542

>  <SCORE.INTRA.VDW>
0.0524504

>  <SCORE.INTRA.VDW.0>
-3.15072

>  <SCORE.INTRA.norm>
0.00138175

>  <SCORE.RESTR>
0

>  <SCORE.RESTR.CAVITY>
0

>  <SCORE.RESTR.norm>
0

>  <SCORE.SYSTEM>
0

>  <SCORE.SYSTEM.CONST>
0

>  <SCORE.SYSTEM.DIHEDRAL>
0

>  <SCORE.SYSTEM.SOLV>
0

>  <SCORE.SYSTEM.norm>
0

>  <SCORE.heavy>
26

>  <SCORE.norm>
-0.598233

>  <RMSD>
7.856

$$$$
ligand
 OpenBabel11021811473D
libRbt.so/2013.1/901 2013/11/27
 26 27  0  0  0  0  0  0  0  0999 V2000
   -4.1723  -10.5105   16.5863 C   0  0  0  0  0  0  0  0  0  0  0  0
   -5.0944  -14.8079   16.7390 C   0  0  0  0  0  0  0  0  0  0  0  0
   -5.5415  -14.2546   15.5438 C   0  0  0  0  0  0  0  0  0  0  0  0
   -5.5509  -12.7496   15.2653 C   0  0  0  0  0  0  0  0  0  0  0  0
   -5.5682  -10.9951   16.9892 C   0  0  1  0  0  0  0  0  0  0  0  0
   -5.5336  -18.5218   15.9995 C   0  0  0  0  0  0  0  0  0  0  0  0
   -5.5446  -17.0000   15.8473 C   0  0  0  0  0  0  0  0  0  0  0  0
   -5.9794  -15.1211   14.5473 C   0  0  0  0  0  0  0  0  0  0  0  0
   -7.4020  -12.3299   16.7925 C   0  0  0  0  0  0  0  0  0  0  0  0
   -6.2912  -10.3950   18.0132 C   0  0  2  0  0  0  0  0  0  0  0  0
   -5.9498   -9.2115   18.9221 C   0  0  0  0  0  0  0  0  0  0  0  0
   -4.8753   -9.5467   19.9591 C   0  0  0  0  0  0  0  0  0  0  0  0
   -5.0920  -16.1949   16.9009 N   0  0  0  0  0  0  0  0  0  0  0  0
   -6.1774  -12.0108   16.3712 N   0  0  0  0  0  0  0  0  0  0  0  0
   -5.9723  -16.4309   14.7111 N   0  0  0  0  0  0  0  0  0  0  0  0
   -4.6982  -14.0822   17.6512 O   0  0  0  0  0  0  0  0  0  0  0  0
   -4.2870  -10.0725   23.0786 O   0  5  0  0  0  0  0  0  0  0  0  0
   -3.0608  -13.9015   23.3286 O   0  0  0  0  0  0  0  0  0  0  0  0
   -5.2516  -10.6633   20.7710 O   0  0  0  0  0  0  0  0  0  0  0  0
   -5.0509  -12.4590   22.6200 O   0  0  0  0  0  0  0  0  0  0  0  0
   -4.2128  -12.3685   25.0649 O   0  5  0  0  0  0  0  0  0  0  0  0
   -2.9406  -11.5642   21.4527 O   0  0  0  0  0  0  0  0  0  0  0  0
   -5.4162  -14.4540   24.1759 O   0  0  0  0  0  0  0  0  0  0  0  0
   -7.7762  -11.2952   18.1454 S   0  0  0  0  0  0  0  0  0  0  0  0
   -4.2933  -11.2127   21.9427 P   0  0  2  0  0  0  0  0  0  0  0  0
   -4.4163  -13.2304   23.8792 P   0  0  2  0  0  0  0  0  0  0  0  0
  2 16  2  0  0  0  0
  2  3  1  0  0  0  0
  2 13  1  0  0  0  0
  3  8  2  0  0  0  0
  3  4  1  0  0  0  0
  4 14  1  0  0  0  0
  5  1  1  6  0  0  0
  5 14  1  0  0  0  0
  5 10  1  0  0  0  0
  6  7  1  0  0  0  0
  7 13  1  0  0  0  0
  7 15  2  0  0  0  0
  8 15  1  0  0  0  0
  9 14  1  0  0  0  0
  9 24  1  0  0  0  0
 10 24  1  0  0  0  0
 10 11  1  1  0  0  0
 11 12  1  0  0  0  0
 12 19  1  0  0  0  0
 17 25  1  0  0  0  0
 19 25  1  0  0  0  0
 20 26  1  0  0  0  0
 21 26  1  0  0  0  0
 22 25  2  0  0  0  0
 23 26  2  0  0  0  0
 25 20  1  1  0  0  0
 26 18  1  6  0  0  0
M  CHG  2  17  -1  21  -1
M  END
>  <CHROM.1>
-49.39923387,-71.91740048,-56.72110406,126.42508130,-179.77094547,-65.37710124
68.79306126,-64.60958687,-5.21684377,-12.74419780,19.38762090,2.33154320
1.30117165,-2.65758391

>  <Name>
ligand

>  <RI>
0

>  <Rbt.Current_Directory>
/home/itssahil/PROJECTS/Mol_Feturizer/New_Systems/rnas/3D2X

>  <Rbt.Executable>
rbdock ($Id: //depot/dev/client3/rdock/2013.1/src/exe/rbdock.cxx#4 $)

>  <Rbt.Library>
libRbt.so (2013.1, Build901 2013/11/27)

>  <Rbt.Parameter_File>
/export/apps/rDock/src/rDock_2013.1_src/data/scripts/dock_solv.prm

>  <Rbt.Receptor>
prm/pocket_docking_8.prm

>  <SCORE>
-15.531

>  <SCORE.INTER>
-12.4693

>  <SCORE.INTER.CONST>
1

>  <SCORE.INTER.POLAR>
0

>  <SCORE.INTER.ROT>
8

>  <SCORE.INTER.SOLV>
5.89786

>  <SCORE.INTER.VDW>
-19.2122

>  <SCORE.INTER.norm>
-0.47959

>  <SCORE.INTRA>
-3.0617

>  <SCORE.INTRA.DIHEDRAL>
-3.20166

>  <SCORE.INTRA.DIHEDRAL.0>
7.88077

>  <SCORE.INTRA.POLAR>
0

>  <SCORE.INTRA.POLAR.0>
0

>  <SCORE.INTRA.REPUL>
0

>  <SCORE.INTRA.REPUL.0>
0

>  <SCORE.INTRA.SOLV>
-0.863143

>  <SCORE.INTRA.SOLV.lig_0>
-63.2542

>  <SCORE.INTRA.VDW>
-1.0293

>  <SCORE.INTRA.VDW.0>
-3.15072

>  <SCORE.INTRA.norm>
-0.117758

>  <SCORE.RESTR>
0

>  <SCORE.RESTR.CAVITY>
0

>  <SCORE.RESTR.norm>
0

>  <SCORE.SYSTEM>
0

>  <SCORE.SYSTEM.CONST>
0

>  <SCORE.SYSTEM.DIHEDRAL>
0

>  <SCORE.SYSTEM.SOLV>
0

>  <SCORE.SYSTEM.norm>
0

>  <SCORE.heavy>
26

>  <SCORE.norm>
-0.597348

>  <RMSD>
7.891

$$$$
ligand
 OpenBabel11021811473D
libRbt.so/2013.1/901 2013/11/27
 26 27  0  0  0  0  0  0  0  0999 V2000
   -5.1730   -9.1466   17.5814 C   0  0  0  0  0  0  0  0  0  0  0  0
   -5.9514  -11.0348   21.0114 C   0  0  0  0  0  0  0  0  0  0  0  0
   -6.3318   -9.7928   20.5142 C   0  0  0  0  0  0  0  0  0  0  0  0
   -7.4067   -9.6102   19.4400 C   0  0  0  0  0  0  0  0  0  0  0  0
   -6.1629  -10.3060   17.4352 C   0  0  1  0  0  0  0  0  0  0  0  0
   -3.3603   -9.9879   23.6043 C   0  0  0  0  0  0  0  0  0  0  0  0
   -4.4115   -9.9255   22.4952 C   0  0  0  0  0  0  0  0  0  0  0  0
   -5.7155   -8.6624   21.0413 C   0  0  0  0  0  0  0  0  0  0  0  0
   -7.9522  -11.5570   18.0808 C   0  0  0  0  0  0  0  0  0  0  0  0
   -6.0651  -11.2354   16.4066 C   0  0  2  0  0  0  0  0  0  0  0  0
   -5.0563  -11.3627   15.2622 C   0  0  0  0  0  0  0  0  0  0  0  0
   -4.2913  -12.6881   15.2867 C   0  0  0  0  0  0  0  0  0  0  0  0
   -4.9817  -11.1113   22.0133 N   0  0  0  0  0  0  0  0  0  0  0  0
   -7.1670  -10.5003   18.2949 N   0  0  0  0  0  0  0  0  0  0  0  0
   -4.8002   -8.7464   21.9889 N   0  0  0  0  0  0  0  0  0  0  0  0
   -6.4671  -12.0643   20.5758 O   0  0  0  0  0  0  0  0  0  0  0  0
   -3.3479  -15.4172   15.9593 O   0  5  0  0  0  0  0  0  0  0  0  0
   -4.2105  -18.3134   15.0363 O   0  0  0  0  0  0  0  0  0  0  0  0
   -5.1652  -13.8082   15.1148 O   0  0  0  0  0  0  0  0  0  0  0  0
   -5.7021  -16.2995   15.5487 O   0  0  0  0  0  0  0  0  0  0  0  0
   -4.8357  -17.7749   17.4881 O   0  5  0  0  0  0  0  0  0  0  0  0
   -4.2415  -15.6225   13.5425 O   0  0  0  0  0  0  0  0  0  0  0  0
   -6.6107  -18.6681   15.8633 O   0  0  0  0  0  0  0  0  0  0  0  0
   -7.4096  -12.3233   16.6114 S   0  0  0  0  0  0  0  0  0  0  0  0
   -4.5928  -15.3038   14.9455 P   0  0  2  0  0  0  0  0  0  0  0  0
   -5.3012  -17.7614   16.0833 P   0  0  2  0  0  0  0  0  0  0  0  0
  2 16  2  0  0  0  0
  2  3  1  0  0  0  0
  2 13  1  0  0  0  0
  3  8  2  0  0  0  0
  3  4  1  0  0  0  0
  4 14  1  0  0  0  0
  5  1  1  1  0  0  0
  5 14  1  0  0  0  0
  5 10  1  0  0  0  0
  6  7  1  0  0  0  0
  7 13  1  0  0  0  0
  7 15  2  0  0  0  0
  8 15  1  0  0  0  0
  9 14  1  0  0  0  0
  9 24  1  0  0  0  0
 10 24  1  0  0  0  0
 10 11  1  6  0  0  0
 11 12  1  0  0  0  0
 12 19  1  0  0  0  0
 17 25  1  0  0  0  0
 19 25  1  0  0  0  0
 20 26  1  0  0  0  0
 21 26  1  0  0  0  0
 22 25  2  0  0  0  0
 23 26  2  0  0  0  0
 25 20  1  1  0  0  0
 26 18  1  6  0  0  0
M  CHG  2  17  -1  21  -1
M  END
>  <CHROM.1>
-49.65944977,119.93744894,62.73325429,-71.36928709,173.36591322,-43.87882644
39.12609199,-39.69600598,-5.48609536,-13.14142522,17.60363129,1.80367200
-1.28611794,0.89100943

>  <Name>
ligand

>  <RI>
0

>  <Rbt.Current_Directory>
/home/itssahil/PROJECTS/Mol_Feturizer/New_Systems/rnas/3D2X

>  <Rbt.Executable>
rbdock ($Id: //depot/dev/client3/rdock/2013.1/src/exe/rbdock.cxx#4 $)

>  <Rbt.Library>
libRbt.so (2013.1, Build901 2013/11/27)

>  <Rbt.Parameter_File>
/export/apps/rDock/src/rDock_2013.1_src/data/scripts/dock_solv.prm

>  <Rbt.Receptor>
prm/pocket_docking_7.prm

>  <SCORE>
-16.0579

>  <SCORE.INTER>
-14.6113

>  <SCORE.INTER.CONST>
1

>  <SCORE.INTER.POLAR>
0

>  <SCORE.INTER.ROT>
8

>  <SCORE.INTER.SOLV>
14.1922

>  <SCORE.INTER.VDW>
-23.4049

>  <SCORE.INTER.norm>
-0.561973

>  <SCORE.INTRA>
-1.44659

>  <SCORE.INTRA.DIHEDRAL>
-0.103384

>  <SCORE.INTRA.DIHEDRAL.0>
7.88077

>  <SCORE.INTRA.POLAR>
0

>  <SCORE.INTRA.POLAR.0>
0

>  <SCORE.INTRA.REPUL>
0

>  <SCORE.INTRA.REPUL.0>
0

>  <SCORE.INTRA.SOLV>
-1.29609

>  <SCORE.INTRA.SOLV.lig_0>
-63.2542

>  <SCORE.INTRA.VDW>
-0.746849

>  <SCORE.INTRA.VDW.0>
-3.15072

>  <SCORE.INTRA.norm>
-0.0556379

>  <SCORE.RESTR>
0

>  <SCORE.RESTR.CAVITY>
0

>  <SCORE.RESTR.norm>
0

>  <SCORE.SYSTEM>
0

>  <SCORE.SYSTEM.CONST>
0

>  <SCORE.SYSTEM.DIHEDRAL>
0

>  <SCORE.SYSTEM.SOLV>
0

>  <SCORE.SYSTEM.norm>
0

>  <SCORE.heavy>
26

>  <SCORE.norm>
-0.617611

>  <RMSD>
7.896

$$$$
ligand
 OpenBabel11021811473D
libRbt.so/2013.1/901 2013/11/27
 26 27  0  0  0  0  0  0  0  0999 V2000
   -1.8651  -14.5548   20.1152 C   0  0  0  0  0  0  0  0  0  0  0  0
   -2.6251  -12.6292   23.4995 C   0  0  0  0  0  0  0  0  0  0  0  0
   -1.2543  -12.4807   23.3160 C   0  0  0  0  0  0  0  0  0  0  0  0
   -0.4258  -13.3838   22.3991 C   0  0  0  0  0  0  0  0  0  0  0  0
   -0.9555  -13.3282   19.9977 C   0  0  1  0  0  0  0  0  0  0  0  0
   -3.3331   -9.7289   25.8701 C   0  0  0  0  0  0  0  0  0  0  0  0
   -2.5959  -10.7195   24.9676 C   0  0  0  0  0  0  0  0  0  0  0  0
   -0.6153  -11.4422   23.9856 C   0  0  0  0  0  0  0  0  0  0  0  0
    0.4305  -11.7265   20.8322 C   0  0  0  0  0  0  0  0  0  0  0  0
   -0.7543  -12.6711   18.7898 C   0  0  2  0  0  0  0  0  0  0  0  0
   -1.3210  -12.9420   17.3938 C   0  0  0  0  0  0  0  0  0  0  0  0
   -2.3833  -11.9234   16.9738 C   0  0  0  0  0  0  0  0  0  0  0  0
   -3.3115  -11.7431   24.3323 N   0  0  0  0  0  0  0  0  0  0  0  0
   -0.3160  -12.8101   21.0500 N   0  0  0  0  0  0  0  0  0  0  0  0
   -1.2743  -10.6099   24.7702 N   0  0  0  0  0  0  0  0  0  0  0  0
   -3.2351  -13.5340   22.9294 O   0  0  0  0  0  0  0  0  0  0  0  0
   -5.5856  -12.7123   15.6225 O   0  5  0  0  0  0  0  0  0  0  0  0
   -6.3557  -15.2306   14.0369 O   0  0  0  0  0  0  0  0  0  0  0  0
   -3.0505  -12.3182   15.7709 O   0  0  0  0  0  0  0  0  0  0  0  0
   -4.0044  -14.2901   14.3980 O   0  0  0  0  0  0  0  0  0  0  0  0
   -4.3221  -16.4260   12.9748 O   0  5  0  0  0  0  0  0  0  0  0  0
   -4.0960  -14.3408   16.9681 O   0  0  0  0  0  0  0  0  0  0  0  0
   -4.6809  -16.4873   15.5157 O   0  0  0  0  0  0  0  0  0  0  0  0
    0.3734  -11.3863   19.1229 S   0  0  0  0  0  0  0  0  0  0  0  0
   -4.1743  -13.4715   15.7716 P   0  0  2  0  0  0  0  0  0  0  0  0
   -4.8078  -15.6588   14.1436 P   0  0  2  0  0  0  0  0  0  0  0  0
  2 16  2  0  0  0  0
  2  3  1  0  0  0  0
  2 13  1  0  0  0  0
  3  8  2  0  0  0  0
  3  4  1  0  0  0  0
  4 14  1  0  0  0  0
  5  1  1  1  0  0  0
  5 14  1  0  0  0  0
  5 10  1  0  0  0  0
  6  7  1  0  0  0  0
  7 13  1  0  0  0  0
  7 15  2  0  0  0  0
  8 15  1  0  0  0  0
  9 14  1  0  0  0  0
  9 24  1  0  0  0  0
 10 24  1  0  0  0  0
 10 11  1  6  0  0  0
 11 12  1  0  0  0  0
 12 19  1  0  0  0  0
 17 25  1  0  0  0  0
 19 25  1  0  0  0  0
 20 26  1  0  0  0  0
 21 26  1  0  0  0  0
 22 25  2  0  0  0  0
 23 26  2  0  0  0  0
 25 20  1  6  0  0  0
 26 18  1  6  0  0  0
M  CHG  2  17  -1  21  -1
M  END
>  <CHROM.1>
92.83813413,106.48546448,-170.45644841,-108.40603712,76.40980908,-77.30200035
105.08077902,67.43906380,-2.70501387,-13.15342531,18.86413807,1.24896086
0.33227231,1.32936302

>  <Name>
ligand

>  <RI>
0

>  <Rbt.Current_Directory>
/home/itssahil/PROJECTS/Mol_Feturizer/New_Systems/rnas/3D2X

>  <Rbt.Executable>
rbdock ($Id: //depot/dev/client3/rdock/2013.1/src/exe/rbdock.cxx#4 $)

>  <Rbt.Library>
libRbt.so (2013.1, Build901 2013/11/27)

>  <Rbt.Parameter_File>
/export/apps/rDock/src/rDock_2013.1_src/data/scripts/dock_solv.prm

>  <Rbt.Receptor>
prm/pocket_docking_7.prm

>  <SCORE>
-13.2754

>  <SCORE.INTER>
-13.7813

>  <SCORE.INTER.CONST>
1

>  <SCORE.INTER.POLAR>
0

>  <SCORE.INTER.ROT>
8

>  <SCORE.INTER.SOLV>
11.8713

>  <SCORE.INTER.VDW>
-22.0779

>  <SCORE.INTER.norm>
-0.530048

>  <SCORE.INTRA>
0.505817

>  <SCORE.INTRA.DIHEDRAL>
1.14199

>  <SCORE.INTRA.DIHEDRAL.0>
7.88077

>  <SCORE.INTRA.POLAR>
0

>  <SCORE.INTRA.POLAR.0>
0

>  <SCORE.INTRA.REPUL>
0

>  <SCORE.INTRA.REPUL.0>
0

>  <SCORE.INTRA.SOLV>
0.793253

>  <SCORE.INTRA.SOLV.lig_0>
-63.2542

>  <SCORE.INTRA.VDW>
-0.461805

>  <SCORE.INTRA.VDW.0>
-3.15072

>  <SCORE.INTRA.norm>
0.0194545

>  <SCORE.RESTR>
0

>  <SCORE.RESTR.CAVITY>
0

>  <SCORE.RESTR.norm>
0

>  <SCORE.SYSTEM>
0

>  <SCORE.SYSTEM.CONST>
0

>  <SCORE.SYSTEM.DIHEDRAL>
0

>  <SCORE.SYSTEM.SOLV>
0

>  <SCORE.SYSTEM.norm>
0

>  <SCORE.heavy>
26

>  <SCORE.norm>
-0.510594

>  <RMSD>
7.897

$$$$
ligand
 OpenBabel11021811473D
libRbt.so/2013.1/901 2013/11/27
 26 27  0  0  0  0  0  0  0  0999 V2000
   -2.9525  -10.5251   17.7895 C   0  0  0  0  0  0  0  0  0  0  0  0
   -5.1917   -8.7550   21.1378 C   0  0  0  0  0  0  0  0  0  0  0  0
   -5.7323   -8.7885   19.8567 C   0  0  0  0  0  0  0  0  0  0  0  0
   -4.9209   -8.4908   18.5934 C   0  0  0  0  0  0  0  0  0  0  0  0
   -4.3368  -10.3930   17.1475 C   0  0  1  0  0  0  0  0  0  0  0  0
   -8.2275   -9.7737   23.2063 C   0  0  0  0  0  0  0  0  0  0  0  0
   -7.3363   -9.4106   22.0176 C   0  0  0  0  0  0  0  0  0  0  0  0
   -7.0735   -9.1331   19.7234 C   0  0  0  0  0  0  0  0  0  0  0  0
   -6.4005   -9.4595   16.9179 C   0  0  0  0  0  0  0  0  0  0  0  0
   -4.7655  -11.2433   16.1353 C   0  0  2  0  0  0  0  0  0  0  0  0
   -4.0682  -12.4237   15.4541 C   0  0  0  0  0  0  0  0  0  0  0  0
   -3.8440  -13.6083   16.3969 C   0  0  0  0  0  0  0  0  0  0  0  0
   -5.9952   -9.0685   22.2360 N   0  0  0  0  0  0  0  0  0  0  0  0
   -5.2169   -9.4647   17.5327 N   0  0  0  0  0  0  0  0  0  0  0  0
   -7.8237   -9.4282   20.7686 N   0  0  0  0  0  0  0  0  0  0  0  0
   -4.0099   -8.4544   21.3071 O   0  0  0  0  0  0  0  0  0  0  0  0
   -4.1487  -14.5859   19.4361 O   0  5  0  0  0  0  0  0  0  0  0  0
   -6.7178  -17.7402   18.9462 O   0  0  0  0  0  0  0  0  0  0  0  0
   -5.0365  -13.9526   17.1090 O   0  0  0  0  0  0  0  0  0  0  0  0
   -6.5415  -15.1921   18.8066 O   0  0  0  0  0  0  0  0  0  0  0  0
   -6.3357  -16.3638   21.1030 O   0  5  0  0  0  0  0  0  0  0  0  0
   -4.5887  -16.4225   17.6712 O   0  0  0  0  0  0  0  0  0  0  0  0
   -8.5938  -16.2678   19.8863 O   0  0  0  0  0  0  0  0  0  0  0  0
   -6.3573  -10.6957   15.6888 S   0  0  0  0  0  0  0  0  0  0  0  0
   -5.0481  -15.1236   18.2144 P   0  0  2  0  0  0  0  0  0  0  0  0
   -6.9943  -16.3901   19.7778 P   0  0  2  0  0  0  0  0  0  0  0  0
  2 16  2  0  0  0  0
  2  3  1  0  0  0  0
  2 13  1  0  0  0  0
  3  8  2  0  0  0  0
  3  4  1  0  0  0  0
  4 14  1  0  0  0  0
  5  1  1  1  0  0  0
  5 14  1  0  0  0  0
  5 10  1  0  0  0  0
  6  7  1  0  0  0  0
  7 13  1  0  0  0  0
  7 15  2  0  0  0  0
  8 15  1  0  0  0  0
  9 14  1  0  0  0  0
  9 24  1  0  0  0  0
 10 24  1  0  0  0  0
 10 11  1  6  0  0  0
 11 12  1  0  0  0  0
 12 19  1  0  0  0  0
 17 25  1  0  0  0  0
 19 25  1  0  0  0  0
 20 26  1  0  0  0  0
 21 26  1  0  0  0  0
 22 25  2  0  0  0  0
 23 26  2  0  0  0  0
 25 20  1  1  0  0  0
 26 18  1  6  0  0  0
M  CHG  2  17  -1  21  -1
M  END
>  <CHROM.1>
136.03027291,66.66622478,49.12050922,-109.21179890,-177.18215913,-77.23211446
67.67406510,-56.94870533,-5.75267664,-12.39886725,18.83752221,-1.46850680
-1.12316321,-2.92654451

>  <Name>
ligand

>  <RI>
0

>  <Rbt.Current_Directory>
/home/itssahil/PROJECTS/Mol_Feturizer/New_Systems/rnas/3D2X

>  <Rbt.Executable>
rbdock ($Id: //depot/dev/client3/rdock/2013.1/src/exe/rbdock.cxx#4 $)

>  <Rbt.Library>
libRbt.so (2013.1, Build901 2013/11/27)

>  <Rbt.Parameter_File>
/export/apps/rDock/src/rDock_2013.1_src/data/scripts/dock_solv.prm

>  <Rbt.Receptor>
prm/pocket_docking_6.prm

>  <SCORE>
-17.8585

>  <SCORE.INTER>
-15.6671

>  <SCORE.INTER.CONST>
1

>  <SCORE.INTER.POLAR>
0

>  <SCORE.INTER.ROT>
8

>  <SCORE.INTER.SOLV>
15.3572

>  <SCORE.INTER.VDW>
-24.4971

>  <SCORE.INTER.norm>
-0.60258

>  <SCORE.INTRA>
-2.19141

>  <SCORE.INTRA.DIHEDRAL>
-2.33569

>  <SCORE.INTRA.DIHEDRAL.0>
7.88077

>  <SCORE.INTRA.POLAR>
0

>  <SCORE.INTRA.POLAR.0>
0

>  <SCORE.INTRA.REPUL>
0

>  <SCORE.INTRA.REPUL.0>
0

>  <SCORE.INTRA.SOLV>
-1.23349

>  <SCORE.INTRA.SOLV.lig_0>
-63.2542

>  <SCORE.INTRA.VDW>
-0.406821

>  <SCORE.INTRA.VDW.0>
-3.15072

>  <SCORE.INTRA.norm>
-0.084285

>  <SCORE.RESTR>
0

>  <SCORE.RESTR.CAVITY>
0

>  <SCORE.RESTR.norm>
0

>  <SCORE.SYSTEM>
0

>  <SCORE.SYSTEM.CONST>
0

>  <SCORE.SYSTEM.DIHEDRAL>
0

>  <SCORE.SYSTEM.SOLV>
0

>  <SCORE.SYSTEM.norm>
0

>  <SCORE.heavy>
26

>  <SCORE.norm>
-0.686865

>  <RMSD>
7.921

$$$$
ligand
 OpenBabel11021811473D
libRbt.so/2013.1/901 2013/11/27
 26 27  0  0  0  0  0  0  0  0999 V2000
   -3.5040  -11.6233   15.7966 C   0  0  0  0  0  0  0  0  0  0  0  0
   -6.3308   -8.7876   19.2740 C   0  0  0  0  0  0  0  0  0  0  0  0
   -5.0953   -9.1693   18.7615 C   0  0  0  0  0  0  0  0  0  0  0  0
   -4.8563   -9.4718   17.2803 C   0  0  0  0  0  0  0  0  0  0  0  0
   -4.9844  -11.6710   16.1860 C   0  0  1  0  0  0  0  0  0  0  0  0
   -5.4404   -8.2816   22.9460 C   0  0  0  0  0  0  0  0  0  0  0  0
   -5.3262   -8.6076   21.4561 C   0  0  0  0  0  0  0  0  0  0  0  0
   -4.0222   -9.2561   19.6427 C   0  0  0  0  0  0  0  0  0  0  0  0
   -6.8648  -10.8461   17.1693 C   0  0  0  0  0  0  0  0  0  0  0  0
   -5.7968  -12.7531   15.8691 C   0  0  2  0  0  0  0  0  0  0  0  0
   -5.4859  -14.0600   15.1352 C   0  0  0  0  0  0  0  0  0  0  0  0
   -4.6580  -15.0340   15.9768 C   0  0  0  0  0  0  0  0  0  0  0  0
   -6.4565   -8.5012   20.6349 N   0  0  0  0  0  0  0  0  0  0  0  0
   -5.5763  -10.6844   16.8651 N   0  0  0  0  0  0  0  0  0  0  0  0
   -4.1525   -8.9826   20.9275 N   0  0  0  0  0  0  0  0  0  0  0  0
   -7.3107   -8.6977   18.5341 O   0  0  0  0  0  0  0  0  0  0  0  0
   -3.9981  -17.5764   17.5242 O   0  5  0  0  0  0  0  0  0  0  0  0
   -4.1323  -13.0749   18.4592 O   0  0  0  0  0  0  0  0  0  0  0  0
   -5.3424  -15.4143   17.1746 O   0  0  0  0  0  0  0  0  0  0  0  0
   -3.3570  -15.4844   18.8287 O   0  0  0  0  0  0  0  0  0  0  0  0
   -4.3674  -14.1501   20.8003 O   0  5  0  0  0  0  0  0  0  0  0  0
   -5.5531  -16.6989   19.3933 O   0  0  0  0  0  0  0  0  0  0  0  0
   -2.0491  -13.5529   19.8744 O   0  0  0  0  0  0  0  0  0  0  0  0
   -7.3853  -12.3516   16.4598 S   0  0  0  0  0  0  0  0  0  0  0  0
   -4.6284  -16.3160   18.3016 P   0  0  2  0  0  0  0  0  0  0  0  0
   -3.5409  -14.0728   19.5750 P   0  0  2  0  0  0  0  0  0  0  0  0
  2 16  2  0  0  0  0
  2  3  1  0  0  0  0
  2 13  1  0  0  0  0
  3  8  2  0  0  0  0
  3  4  1  0  0  0  0
  4 14  1  0  0  0  0
  5  1  1  1  0  0  0
  5 14  1  0  0  0  0
  5 10  1  0  0  0  0
  6  7  1  0  0  0  0
  7 13  1  0  0  0  0
  7 15  2  0  0  0  0
  8 15  1  0  0  0  0
  9 14  1  0  0  0  0
  9 24  1  0  0  0  0
 10 24  1  0  0  0  0
 10 11  1  6  0  0  0
 11 12  1  0  0  0  0
 12 19  1  0  0  0  0
 17 25  1  0  0  0  0
 19 25  1  0  0  0  0
 20 26  1  0  0  0  0
 21 26  1  0  0  0  0
 22 25  2  0  0  0  0
 23 26  2  0  0  0  0
 25 20  1  1  0  0  0
 26 18  1  6  0  0  0
M  CHG  2  17  -1  21  -1
M  END
>  <CHROM.1>
-67.17795956,73.17187137,60.90526044,-130.74674704,-173.89539788,175.44316331
-50.03009034,-66.17315964,-4.99845416,-12.51687023,18.39758723,1.21142637
1.09217281,-2.53763099

>  <Name>
ligand

>  <RI>
0

>  <Rbt.Current_Directory>
/home/itssahil/PROJECTS/Mol_Feturizer/New_Systems/rnas/3D2X

>  <Rbt.Executable>
rbdock ($Id: //depot/dev/client3/rdock/2013.1/src/exe/rbdock.cxx#4 $)

>  <Rbt.Library>
libRbt.so (2013.1, Build901 2013/11/27)

>  <Rbt.Parameter_File>
/export/apps/rDock/src/rDock_2013.1_src/data/scripts/dock_solv.prm

>  <Rbt.Receptor>
prm/pocket_docking_6.prm

>  <SCORE>
-14.6324

>  <SCORE.INTER>
-10.7396

>  <SCORE.INTER.CONST>
1

>  <SCORE.INTER.POLAR>
0

>  <SCORE.INTER.ROT>
8

>  <SCORE.INTER.SOLV>
12.4572

>  <SCORE.INTER.VDW>
-20.2454

>  <SCORE.INTER.norm>
-0.41306

>  <SCORE.INTRA>
-3.89286

>  <SCORE.INTRA.DIHEDRAL>
-2.88964

>  <SCORE.INTRA.DIHEDRAL.0>
7.88077

>  <SCORE.INTRA.POLAR>
0

>  <SCORE.INTRA.POLAR.0>
0

>  <SCORE.INTRA.REPUL>
0

>  <SCORE.INTRA.REPUL.0>
0

>  <SCORE.INTRA.SOLV>
-2.56857

>  <SCORE.INTRA.SOLV.lig_0>
-63.2542

>  <SCORE.INTRA.VDW>
-1.16376

>  <SCORE.INTRA.VDW.0>
-3.15072

>  <SCORE.INTRA.norm>
-0.149725

>  <SCORE.RESTR>
0

>  <SCORE.RESTR.CAVITY>
0

>  <SCORE.RESTR.norm>
0

>  <SCORE.SYSTEM>
0

>  <SCORE.SYSTEM.CONST>
0

>  <SCORE.SYSTEM.DIHEDRAL>
0

>  <SCORE.SYSTEM.SOLV>
0

>  <SCORE.SYSTEM.norm>
0

>  <SCORE.heavy>
26

>  <SCORE.norm>
-0.562786

>  <RMSD>
7.942

$$$$
ligand
 OpenBabel11021811473D
libRbt.so/2013.1/901 2013/11/27
 26 27  0  0  0  0  0  0  0  0999 V2000
   -4.1171   -9.3816   18.2923 C   0  0  0  0  0  0  0  0  0  0  0  0
   -6.8457  -11.9960   16.7567 C   0  0  0  0  0  0  0  0  0  0  0  0
   -6.3150  -10.7989   16.2877 C   0  0  0  0  0  0  0  0  0  0  0  0
   -6.6888   -9.4306   16.8629 C   0  0  0  0  0  0  0  0  0  0  0  0
   -5.4739   -9.4240   19.0016 C   0  0  1  0  0  0  0  0  0  0  0  0
   -4.9979  -14.4946   14.5488 C   0  0  0  0  0  0  0  0  0  0  0  0
   -5.4796  -13.1802   15.1647 C   0  0  0  0  0  0  0  0  0  0  0  0
   -5.3807  -10.8583   15.2587 C   0  0  0  0  0  0  0  0  0  0  0  0
   -7.7497   -9.4533   19.0558 C   0  0  0  0  0  0  0  0  0  0  0  0
   -5.5829   -9.4321   20.3871 C   0  0  2  0  0  0  0  0  0  0  0  0
   -4.5097   -9.3960   21.4781 C   0  0  0  0  0  0  0  0  0  0  0  0
   -3.7965  -10.7382   21.6573 C   0  0  0  0  0  0  0  0  0  0  0  0
   -6.4287  -13.2045   16.1952 N   0  0  0  0  0  0  0  0  0  0  0  0
   -6.6296   -9.4401   18.3317 N   0  0  0  0  0  0  0  0  0  0  0  0
   -4.9933  -12.0067   14.7355 N   0  0  0  0  0  0  0  0  0  0  0  0
   -7.6768  -11.9949   17.6651 O   0  0  0  0  0  0  0  0  0  0  0  0
   -5.4653  -14.0776   22.8963 O   0  5  0  0  0  0  0  0  0  0  0  0
   -1.5896  -14.7501   21.1319 O   0  0  0  0  0  0  0  0  0  0  0  0
   -4.7018  -11.7702   22.0611 O   0  0  0  0  0  0  0  0  0  0  0  0
   -3.9916  -13.9262   20.8239 O   0  0  0  0  0  0  0  0  0  0  0  0
   -2.5509  -14.4713   18.7465 O   0  5  0  0  0  0  0  0  0  0  0  0
   -2.9904  -13.3680   23.1266 O   0  0  0  0  0  0  0  0  0  0  0  0
   -2.0352  -12.4097   20.1860 O   0  0  0  0  0  0  0  0  0  0  0  0
   -7.2865   -9.5308   20.7352 S   0  0  0  0  0  0  0  0  0  0  0  0
   -4.2051  -13.2858   22.2834 P   0  0  2  0  0  0  0  0  0  0  0  0
   -2.5440  -13.9337   20.1254 P   0  0  2  0  0  0  0  0  0  0  0  0
  2 16  2  0  0  0  0
  2  3  1  0  0  0  0
  2 13  1  0  0  0  0
  3  8  2  0  0  0  0
  3  4  1  0  0  0  0
  4 14  1  0  0  0  0
  5  1  1  1  0  0  0
  5 14  1  0  0  0  0
  5 10  1  0  0  0  0
  6  7  1  0  0  0  0
  7 13  1  0  0  0  0
  7 15  2  0  0  0  0
  8 15  1  0  0  0  0
  9 14  1  0  0  0  0
  9 24  1  0  0  0  0
 10 24  1  0  0  0  0
 10 11  1  6  0  0  0
 11 12  1  0  0  0  0
 12 19  1  0  0  0  0
 17 25  1  0  0  0  0
 19 25  1  0  0  0  0
 20 26  1  0  0  0  0
 21 26  1  0  0  0  0
 22 25  2  0  0  0  0
 23 26  2  0  0  0  0
 25 20  1  6  0  0  0
 26 18  1  1  0  0  0
M  CHG  2  17  -1  21  -1
M  END
>  <CHROM.1>
47.67571945,-75.85669846,-61.83044502,74.92540725,178.53831167,-152.86905855
173.29777194,59.17154627,-4.88584404,-11.94157008,19.35530678,2.39230039
0.89997497,-1.88222022

>  <Name>
ligand

>  <RI>
0

>  <Rbt.Current_Directory>
/home/itssahil/PROJECTS/Mol_Feturizer/New_Systems/rnas/3D2X

>  <Rbt.Executable>
rbdock ($Id: //depot/dev/client3/rdock/2013.1/src/exe/rbdock.cxx#4 $)

>  <Rbt.Library>
libRbt.so (2013.1, Build901 2013/11/27)

>  <Rbt.Parameter_File>
/export/apps/rDock/src/rDock_2013.1_src/data/scripts/dock_solv.prm

>  <Rbt.Receptor>
prm/pocket_docking_7.prm

>  <SCORE>
-15.1379

>  <SCORE.INTER>
-13.141

>  <SCORE.INTER.CONST>
1

>  <SCORE.INTER.POLAR>
0

>  <SCORE.INTER.ROT>
8

>  <SCORE.INTER.SOLV>
6.42708

>  <SCORE.INTER.VDW>
-19.8364

>  <SCORE.INTER.norm>
-0.505423

>  <SCORE.INTRA>
-1.99685

>  <SCORE.INTRA.DIHEDRAL>
-1.68224

>  <SCORE.INTRA.DIHEDRAL.0>
7.88077

>  <SCORE.INTRA.POLAR>
0

>  <SCORE.INTRA.POLAR.0>
0

>  <SCORE.INTRA.REPUL>
0

>  <SCORE.INTRA.REPUL.0>
0

>  <SCORE.INTRA.SOLV>
0.108657

>  <SCORE.INTRA.SOLV.lig_0>
-63.2542

>  <SCORE.INTRA.VDW>
-1.21006

>  <SCORE.INTRA.VDW.0>
-3.15072

>  <SCORE.INTRA.norm>
-0.0768019

>  <SCORE.RESTR>
0

>  <SCORE.RESTR.CAVITY>
0

>  <SCORE.RESTR.norm>
0

>  <SCORE.SYSTEM>
0

>  <SCORE.SYSTEM.CONST>
0

>  <SCORE.SYSTEM.DIHEDRAL>
0

>  <SCORE.SYSTEM.SOLV>
0

>  <SCORE.SYSTEM.norm>
0

>  <SCORE.heavy>
26

>  <SCORE.norm>
-0.582225

>  <RMSD>
7.952

$$$$
ligand
 OpenBabel11021811473D
libRbt.so/2013.1/901 2013/11/27
 26 27  0  0  0  0  0  0  0  0999 V2000
   -4.2710  -10.4988   16.3264 C   0  0  0  0  0  0  0  0  0  0  0  0
   -5.9097  -15.5009   14.9885 C   0  0  0  0  0  0  0  0  0  0  0  0
   -5.4907  -14.4566   15.8061 C   0  0  0  0  0  0  0  0  0  0  0  0
   -5.5201  -12.9879   15.3761 C   0  0  0  0  0  0  0  0  0  0  0  0
   -5.6134  -11.0196   16.8483 C   0  0  1  0  0  0  0  0  0  0  0  0
   -5.3925  -18.4697   17.3234 C   0  0  0  0  0  0  0  0  0  0  0  0
   -5.4191  -17.0430   16.7731 C   0  0  0  0  0  0  0  0  0  0  0  0
   -5.0449  -14.7689   17.0865 C   0  0  0  0  0  0  0  0  0  0  0  0
   -7.3480  -12.4930   16.9087 C   0  0  0  0  0  0  0  0  0  0  0  0
   -6.3463  -10.3368   17.8116 C   0  0  2  0  0  0  0  0  0  0  0  0
   -6.0656   -9.0192   18.5386 C   0  0  0  0  0  0  0  0  0  0  0  0
   -4.6629   -8.9619   19.1481 C   0  0  0  0  0  0  0  0  0  0  0  0
   -5.8774  -16.8115   15.4693 N   0  0  0  0  0  0  0  0  0  0  0  0
   -6.1645  -12.1502   16.3979 N   0  0  0  0  0  0  0  0  0  0  0  0
   -5.0192  -16.0117   17.5309 N   0  0  0  0  0  0  0  0  0  0  0  0
   -6.3114  -15.2751   13.8469 O   0  0  0  0  0  0  0  0  0  0  0  0
   -6.7196  -10.5168   21.1820 O   0  5  0  0  0  0  0  0  0  0  0  0
   -4.5881  -10.3153   24.7126 O   0  0  0  0  0  0  0  0  0  0  0  0
   -4.4485  -10.0210   20.0862 O   0  0  0  0  0  0  0  0  0  0  0  0
   -4.5827  -11.2766   22.3421 O   0  0  0  0  0  0  0  0  0  0  0  0
   -6.5099  -11.8747   23.9597 O   0  5  0  0  0  0  0  0  0  0  0  0
   -5.1301   -8.7659   22.2257 O   0  0  0  0  0  0  0  0  0  0  0  0
   -4.1512  -12.8134   24.3387 O   0  0  0  0  0  0  0  0  0  0  0  0
   -7.7552  -11.3116   18.1248 S   0  0  0  0  0  0  0  0  0  0  0  0
   -5.2113  -10.0566   21.5040 P   0  0  2  0  0  0  0  0  0  0  0  0
   -5.0632  -11.5848   23.8446 P   0  0  2  0  0  0  0  0  0  0  0  0
  2 16  2  0  0  0  0
  2  3  1  0  0  0  0
  2 13  1  0  0  0  0
  3  8  2  0  0  0  0
  3  4  1  0  0  0  0
  4 14  1  0  0  0  0
  5  1  1  6  0  0  0
  5 14  1  0  0  0  0
  5 10  1  0  0  0  0
  6  7  1  0  0  0  0
  7 13  1  0  0  0  0
  7 15  2  0  0  0  0
  8 15  1  0  0  0  0
  9 14  1  0  0  0  0
  9 24  1  0  0  0  0
 10 24  1  0  0  0  0
 10 11  1  1  0  0  0
 11 12  1  0  0  0  0
 12 19  1  0  0  0  0
 17 25  1  0  0  0  0
 19 25  1  0  0  0  0
 20 26  1  0  0  0  0
 21 26  1  0  0  0  0
 22 25  2  0  0  0  0
 23 26  2  0  0  0  0
 25 20  1  1  0  0  0
 26 18  1  1  0  0  0
M  CHG  2  17  -1  21  -1
M  END
>  <CHROM.1>
130.53292313,-50.32534764,-58.84406387,130.97087588,-69.44285618,-70.34280827
75.65236948,-65.81417830,-5.59809448,-12.21888451,19.24278683,2.07777521
1.40556972,-2.64352497

>  <Name>
ligand

>  <RI>
0

>  <Rbt.Current_Directory>
/home/itssahil/PROJECTS/Mol_Feturizer/New_Systems/rnas/3D2X

>  <Rbt.Executable>
rbdock ($Id: //depot/dev/client3/rdock/2013.1/src/exe/rbdock.cxx#4 $)

>  <Rbt.Library>
libRbt.so (2013.1, Build901 2013/11/27)

>  <Rbt.Parameter_File>
/export/apps/rDock/src/rDock_2013.1_src/data/scripts/dock_solv.prm

>  <Rbt.Receptor>
prm/pocket_docking_6.prm

>  <SCORE>
-13.5331

>  <SCORE.INTER>
-12.1626

>  <SCORE.INTER.CONST>
1

>  <SCORE.INTER.POLAR>
0

>  <SCORE.INTER.ROT>
8

>  <SCORE.INTER.SOLV>
6.66691

>  <SCORE.INTER.VDW>
-19.264

>  <SCORE.INTER.norm>
-0.467792

>  <SCORE.INTRA>
-1.42368

>  <SCORE.INTRA.DIHEDRAL>
-2.47633

>  <SCORE.INTRA.DIHEDRAL.0>
7.88077

>  <SCORE.INTRA.POLAR>
0

>  <SCORE.INTRA.POLAR.0>
0

>  <SCORE.INTRA.REPUL>
0

>  <SCORE.INTRA.REPUL.0>
0

>  <SCORE.INTRA.SOLV>
0.402821

>  <SCORE.INTRA.SOLV.lig_0>
-63.2542

>  <SCORE.INTRA.VDW>
-0.386929

>  <SCORE.INTRA.VDW.0>
-3.15072

>  <SCORE.INTRA.norm>
-0.0547571

>  <SCORE.RESTR>
0.0531368

>  <SCORE.RESTR.CAVITY>
0.0531368

>  <SCORE.RESTR.norm>
0.00204372

>  <SCORE.SYSTEM>
0

>  <SCORE.SYSTEM.CONST>
0

>  <SCORE.SYSTEM.DIHEDRAL>
0

>  <SCORE.SYSTEM.SOLV>
0

>  <SCORE.SYSTEM.norm>
0

>  <SCORE.heavy>
26

>  <SCORE.norm>
-0.520505

>  <RMSD>
7.964

$$$$
ligand
 OpenBabel11021811473D
libRbt.so/2013.1/901 2013/11/27
 26 27  0  0  0  0  0  0  0  0999 V2000
   -3.9613  -10.6676   16.3836 C   0  0  0  0  0  0  0  0  0  0  0  0
   -7.6848   -9.3154   20.0380 C   0  0  0  0  0  0  0  0  0  0  0  0
   -6.3451   -9.4754   19.7001 C   0  0  0  0  0  0  0  0  0  0  0  0
   -5.8225   -9.3805   18.2647 C   0  0  0  0  0  0  0  0  0  0  0  0
   -5.3956  -11.1531   16.6137 C   0  0  1  0  0  0  0  0  0  0  0  0
   -7.5017   -9.6904   23.8272 C   0  0  0  0  0  0  0  0  0  0  0  0
   -7.0973   -9.6240   22.3537 C   0  0  0  0  0  0  0  0  0  0  0  0
   -5.4369   -9.7108   20.7274 C   0  0  0  0  0  0  0  0  0  0  0  0
   -7.4403  -11.0811   17.6122 C   0  0  0  0  0  0  0  0  0  0  0  0
   -5.9178  -12.2555   15.9477 C   0  0  2  0  0  0  0  0  0  0  0  0
   -5.2865  -13.1987   14.9205 C   0  0  0  0  0  0  0  0  0  0  0  0
   -5.3929  -14.6723   15.3199 C   0  0  0  0  0  0  0  0  0  0  0  0
   -8.0740   -9.3884   21.3770 N   0  0  0  0  0  0  0  0  0  0  0  0
   -6.2216  -10.5562   17.4775 N   0  0  0  0  0  0  0  0  0  0  0  0
   -5.8159   -9.7774   21.9901 N   0  0  0  0  0  0  0  0  0  0  0  0
   -8.5265   -9.1064   19.1641 O   0  0  0  0  0  0  0  0  0  0  0  0
   -5.9834  -16.1718   18.4399 O   0  5  0  0  0  0  0  0  0  0  0  0
   -6.3694  -18.9907   18.0348 O   0  0  0  0  0  0  0  0  0  0  0  0
   -4.7369  -14.9332   16.5646 O   0  0  0  0  0  0  0  0  0  0  0  0
   -5.5256  -17.3738   16.2410 O   0  0  0  0  0  0  0  0  0  0  0  0
   -6.4275  -19.6961   15.5465 O   0  5  0  0  0  0  0  0  0  0  0  0
   -3.5661  -16.8476   17.8221 O   0  0  0  0  0  0  0  0  0  0  0  0
   -4.1878  -19.4838   16.7822 O   0  0  0  0  0  0  0  0  0  0  0  0
   -7.5689  -12.4026   16.4818 S   0  0  0  0  0  0  0  0  0  0  0  0
   -4.8634  -16.3605   17.2995 P   0  0  2  0  0  0  0  0  0  0  0  0
   -5.6861  -18.9371   16.5784 P   0  0  2  0  0  0  0  0  0  0  0  0
  2 16  2  0  0  0  0
  2  3  1  0  0  0  0
  2 13  1  0  0  0  0
  3  8  2  0  0  0  0
  3  4  1  0  0  0  0
  4 14  1  0  0  0  0
  5  1  1  1  0  0  0
  5 14  1  0  0  0  0
  5 10  1  0  0  0  0
  6  7  1  0  0  0  0
  7 13  1  0  0  0  0
  7 15  2  0  0  0  0
  8 15  1  0  0  0  0
  9 14  1  0  0  0  0
  9 24  1  0  0  0  0
 10 24  1  0  0  0  0
 10 11  1  6  0  0  0
 11 12  1  0  0  0  0
 12 19  1  0  0  0  0
 17 25  1  0  0  0  0
 19 25  1  0  0  0  0
 20 26  1  0  0  0  0
 21 26  1  0  0  0  0
 22 25  2  0  0  0  0
 23 26  2  0  0  0  0
 25 20  1  6  0  0  0
 26 18  1  1  0  0  0
M  CHG  2  17  -1  21  -1
M  END
>  <CHROM.1>
-72.28807861,126.06100593,-60.07952428,-139.26603581,172.04389976,-73.52339589
-99.31366383,49.51949988,-6.00685852,-13.63380163,17.91723767,-2.55536373
-1.36590993,2.56818009

>  <Name>
ligand

>  <RI>
0

>  <Rbt.Current_Directory>
/home/itssahil/PROJECTS/Mol_Feturizer/New_Systems/rnas/3D2X

>  <Rbt.Executable>
rbdock ($Id: //depot/dev/client3/rdock/2013.1/src/exe/rbdock.cxx#4 $)

>  <Rbt.Library>
libRbt.so (2013.1, Build901 2013/11/27)

>  <Rbt.Parameter_File>
/export/apps/rDock/src/rDock_2013.1_src/data/scripts/dock_solv.prm

>  <Rbt.Receptor>
prm/pocket_docking_7.prm

>  <SCORE>
-18.0698

>  <SCORE.INTER>
-17.6431

>  <SCORE.INTER.CONST>
1

>  <SCORE.INTER.POLAR>
0

>  <SCORE.INTER.ROT>
8

>  <SCORE.INTER.SOLV>
16.1814

>  <SCORE.INTER.VDW>
-26.0892

>  <SCORE.INTER.norm>
-0.678581

>  <SCORE.INTRA>
-0.426689

>  <SCORE.INTRA.DIHEDRAL>
-0.181857

>  <SCORE.INTRA.DIHEDRAL.0>
7.88077

>  <SCORE.INTRA.POLAR>
0

>  <SCORE.INTRA.POLAR.0>
0

>  <SCORE.INTRA.REPUL>
0

>  <SCORE.INTRA.REPUL.0>
0

>  <SCORE.INTRA.SOLV>
-1.12142

>  <SCORE.INTRA.SOLV.lig_0>
-63.2542

>  <SCORE.INTRA.VDW>
0.224952

>  <SCORE.INTRA.VDW.0>
-3.15072

>  <SCORE.INTRA.norm>
-0.0164111

>  <SCORE.RESTR>
0

>  <SCORE.RESTR.CAVITY>
0

>  <SCORE.RESTR.norm>
0

>  <SCORE.SYSTEM>
0

>  <SCORE.SYSTEM.CONST>
0

>  <SCORE.SYSTEM.DIHEDRAL>
0

>  <SCORE.SYSTEM.SOLV>
0

>  <SCORE.SYSTEM.norm>
0

>  <SCORE.heavy>
26

>  <SCORE.norm>
-0.694992

>  <RMSD>
7.990

$$$$
ligand
 OpenBabel11021811473D
libRbt.so/2013.1/901 2013/11/27
 26 27  0  0  0  0  0  0  0  0999 V2000
   -2.1286  -13.7864   16.2936 C   0  0  0  0  0  0  0  0  0  0  0  0
   -5.7927  -16.4334   14.9111 C   0  0  0  0  0  0  0  0  0  0  0  0
   -4.4270  -16.1858   15.0026 C   0  0  0  0  0  0  0  0  0  0  0  0
   -3.7125  -15.1022   14.1915 C   0  0  0  0  0  0  0  0  0  0  0  0
   -3.3563  -13.1459   15.6393 C   0  0  1  0  0  0  0  0  0  0  0  0
   -6.1733  -19.2224   17.4819 C   0  0  0  0  0  0  0  0  0  0  0  0
   -5.5549  -18.1468   16.5877 C   0  0  0  0  0  0  0  0  0  0  0  0
   -3.6838  -16.9509   15.8958 C   0  0  0  0  0  0  0  0  0  0  0  0
   -5.0939  -13.0957   14.1691 C   0  0  0  0  0  0  0  0  0  0  0  0
   -3.8047  -11.8788   15.9925 C   0  0  2  0  0  0  0  0  0  0  0  0
   -3.2632  -10.8702   17.0089 C   0  0  0  0  0  0  0  0  0  0  0  0
   -3.7566  -11.1358   18.4331 C   0  0  0  0  0  0  0  0  0  0  0  0
   -6.3714  -17.4225   15.7090 N   0  0  0  0  0  0  0  0  0  0  0  0
   -4.0574  -13.7601   14.6822 N   0  0  0  0  0  0  0  0  0  0  0  0
   -4.2415  -17.8832   16.6457 N   0  0  0  0  0  0  0  0  0  0  0  0
   -6.4925  -15.7834   14.1341 O   0  0  0  0  0  0  0  0  0  0  0  0
   -3.4497  -14.5571   20.3186 O   0  5  0  0  0  0  0  0  0  0  0  0
   -0.7300  -11.8597   22.7654 O   0  0  0  0  0  0  0  0  0  0  0  0
   -3.3106  -12.4049   18.9209 O   0  0  0  0  0  0  0  0  0  0  0  0
   -2.8784  -12.3574   21.4693 O   0  0  0  0  0  0  0  0  0  0  0  0
   -0.8093  -13.8745   21.1447 O   0  5  0  0  0  0  0  0  0  0  0  0
   -5.2592  -12.7283   20.5688 O   0  0  0  0  0  0  0  0  0  0  0  0
   -0.8224  -11.4753   20.2327 O   0  0  0  0  0  0  0  0  0  0  0  0
   -5.2324  -11.5900   15.0378 S   0  0  0  0  0  0  0  0  0  0  0  0
   -3.8213  -12.9911   20.3312 P   0  0  2  0  0  0  0  0  0  0  0  0
   -1.2787  -12.4927   21.3910 P   0  0  2  0  0  0  0  0  0  0  0  0
  2 16  2  0  0  0  0
  2  3  1  0  0  0  0
  2 13  1  0  0  0  0
  3  8  2  0  0  0  0
  3  4  1  0  0  0  0
  4 14  1  0  0  0  0
  5  1  1  6  0  0  0
  5 14  1  0  0  0  0
  5 10  1  0  0  0  0
  6  7  1  0  0  0  0
  7 13  1  0  0  0  0
  7 15  2  0  0  0  0
  8 15  1  0  0  0  0
  9 14  1  0  0  0  0
  9 24  1  0  0  0  0
 10 24  1  0  0  0  0
 10 11  1  1  0  0  0
 11 12  1  0  0  0  0
 12 19  1  0  0  0  0
 17 25  1  0  0  0  0
 19 25  1  0  0  0  0
 20 26  1  0  0  0  0
 21 26  1  0  0  0  0
 22 25  2  0  0  0  0
 23 26  2  0  0  0  0
 25 20  1  1  0  0  0
 26 18  1  1  0  0  0
M  CHG  2  17  -1  21  -1
M  END
>  <CHROM.1>
71.78763684,-83.97456682,62.71438501,89.84935425,-173.41953961,57.68912660
164.20536986,-174.78828493,-3.72987962,-13.84114536,17.82177040,-3.12837182
1.12881503,2.56953841

>  <Name>
ligand

>  <RI>
0

>  <Rbt.Current_Directory>
/home/itssahil/PROJECTS/Mol_Feturizer/New_Systems/rnas/3D2X

>  <Rbt.Executable>
rbdock ($Id: //depot/dev/client3/rdock/2013.1/src/exe/rbdock.cxx#4 $)

>  <Rbt.Library>
libRbt.so (2013.1, Build901 2013/11/27)

>  <Rbt.Parameter_File>
/export/apps/rDock/src/rDock_2013.1_src/data/scripts/dock_solv.prm

>  <Rbt.Receptor>
prm/pocket_docking_8.prm

>  <SCORE>
-11.3215

>  <SCORE.INTER>
-9.0774

>  <SCORE.INTER.CONST>
1

>  <SCORE.INTER.POLAR>
0

>  <SCORE.INTER.ROT>
8

>  <SCORE.INTER.SOLV>
8.50032

>  <SCORE.INTER.VDW>
-17.8184

>  <SCORE.INTER.norm>
-0.349131

>  <SCORE.INTRA>
-2.2441

>  <SCORE.INTRA.DIHEDRAL>
-2.12865

>  <SCORE.INTRA.DIHEDRAL.0>
7.88077

>  <SCORE.INTRA.POLAR>
0

>  <SCORE.INTRA.POLAR.0>
0

>  <SCORE.INTRA.REPUL>
0

>  <SCORE.INTRA.REPUL.0>
0

>  <SCORE.INTRA.SOLV>
0.834215

>  <SCORE.INTRA.SOLV.lig_0>
-63.2542

>  <SCORE.INTRA.VDW>
-1.59688

>  <SCORE.INTRA.VDW.0>
-3.15072

>  <SCORE.INTRA.norm>
-0.0863115

>  <SCORE.RESTR>
0

>  <SCORE.RESTR.CAVITY>
0

>  <SCORE.RESTR.norm>
0

>  <SCORE.SYSTEM>
0

>  <SCORE.SYSTEM.CONST>
0

>  <SCORE.SYSTEM.DIHEDRAL>
0

>  <SCORE.SYSTEM.SOLV>
0

>  <SCORE.SYSTEM.norm>
0

>  <SCORE.heavy>
26

>  <SCORE.norm>
-0.435442

>  <RMSD>
8.023

$$$$
ligand
 OpenBabel11021811473D
libRbt.so/2013.1/901 2013/11/27
 26 27  0  0  0  0  0  0  0  0999 V2000
   -7.2780  -12.1955   16.3387 C   0  0  0  0  0  0  0  0  0  0  0  0
   -4.5436  -14.5811   16.3962 C   0  0  0  0  0  0  0  0  0  0  0  0
   -5.1920  -14.2640   15.2072 C   0  0  0  0  0  0  0  0  0  0  0  0
   -5.0731  -12.9005   14.5221 C   0  0  0  0  0  0  0  0  0  0  0  0
   -5.9235  -11.4807   16.3417 C   0  0  1  0  0  0  0  0  0  0  0  0
   -5.6286  -18.2085   16.8404 C   0  0  0  0  0  0  0  0  0  0  0  0
   -5.4783  -16.7977   16.2692 C   0  0  0  0  0  0  0  0  0  0  0  0
   -5.9679  -15.2490   14.6045 C   0  0  0  0  0  0  0  0  0  0  0  0
   -3.7906  -11.1443   15.6202 C   0  0  0  0  0  0  0  0  0  0  0  0
   -5.6378  -10.4437   17.2216 C   0  0  2  0  0  0  0  0  0  0  0  0
   -6.4866   -9.7964   18.3189 C   0  0  0  0  0  0  0  0  0  0  0  0
   -7.0365  -10.8113   19.3238 C   0  0  0  0  0  0  0  0  0  0  0  0
   -4.6823  -15.8597   16.9400 N   0  0  0  0  0  0  0  0  0  0  0  0
   -4.9344  -11.8217   15.5110 N   0  0  0  0  0  0  0  0  0  0  0  0
   -6.0916  -16.4548   15.1273 N   0  0  0  0  0  0  0  0  0  0  0  0
   -3.8467  -13.7425   16.9680 O   0  0  0  0  0  0  0  0  0  0  0  0
   -7.0640  -11.3994   22.3998 O   0  5  0  0  0  0  0  0  0  0  0  0
   -6.3652  -14.1691   18.6905 O   0  0  0  0  0  0  0  0  0  0  0  0
   -5.9892  -11.4439   20.0658 O   0  0  0  0  0  0  0  0  0  0  0  0
   -7.4131  -13.4320   20.9045 O   0  0  0  0  0  0  0  0  0  0  0  0
   -6.1274  -15.6726   20.7821 O   0  5  0  0  0  0  0  0  0  0  0  0
   -5.0875  -12.9921   21.9117 O   0  0  0  0  0  0  0  0  0  0  0  0
   -8.4036  -15.4110   19.6251 O   0  0  0  0  0  0  0  0  0  0  0  0
   -4.0244   -9.9145   16.8342 S   0  0  0  0  0  0  0  0  0  0  0  0
   -6.3040  -12.3579   21.3538 P   0  0  2  0  0  0  0  0  0  0  0  0
   -7.0094  -14.7341   20.0530 P   0  0  2  0  0  0  0  0  0  0  0  0
  2 16  2  0  0  0  0
  2  3  1  0  0  0  0
  2 13  1  0  0  0  0
  3  8  2  0  0  0  0
  3  4  1  0  0  0  0
  4 14  1  0  0  0  0
  5  1  1  1  0  0  0
  5 14  1  0  0  0  0
  5 10  1  0  0  0  0
  6  7  1  0  0  0  0
  7 13  1  0  0  0  0
  7 15  2  0  0  0  0
  8 15  1  0  0  0  0
  9 14  1  0  0  0  0
  9 24  1  0  0  0  0
 10 24  1  0  0  0  0
 10 11  1  6  0  0  0
 11 12  1  0  0  0  0
 12 19  1  0  0  0  0
 17 25  1  0  0  0  0
 19 25  1  0  0  0  0
 20 26  1  0  0  0  0
 21 26  1  0  0  0  0
 22 25  2  0  0  0  0
 23 26  2  0  0  0  0
 25 20  1  6  0  0  0
 26 18  1  6  0  0  0
M  CHG  2  17  -1  21  -1
M  END
>  <CHROM.1>
-33.55977556,54.07180394,64.70672371,-67.51395304,169.28704422,-169.39179653
-59.58091446,-60.20152287,-5.85325041,-13.23743719,18.18398950,-0.73456094
1.23041817,0.44320840

>  <Name>
ligand

>  <RI>
0

>  <Rbt.Current_Directory>
/home/itssahil/PROJECTS/Mol_Feturizer/New_Systems/rnas/3D2X

>  <Rbt.Executable>
rbdock ($Id: //depot/dev/client3/rdock/2013.1/src/exe/rbdock.cxx#4 $)

>  <Rbt.Library>
libRbt.so (2013.1, Build901 2013/11/27)

>  <Rbt.Parameter_File>
/export/apps/rDock/src/rDock_2013.1_src/data/scripts/dock_solv.prm

>  <Rbt.Receptor>
prm/pocket_docking_8.prm

>  <SCORE>
-18.3513

>  <SCORE.INTER>
-13.8487

>  <SCORE.INTER.CONST>
1

>  <SCORE.INTER.POLAR>
0

>  <SCORE.INTER.ROT>
8

>  <SCORE.INTER.SOLV>
10.7044

>  <SCORE.INTER.VDW>
-21.7339

>  <SCORE.INTER.norm>
-0.532641

>  <SCORE.INTRA>
-4.50258

>  <SCORE.INTRA.DIHEDRAL>
-2.30886

>  <SCORE.INTRA.DIHEDRAL.0>
7.88077

>  <SCORE.INTRA.POLAR>
0

>  <SCORE.INTRA.POLAR.0>
0

>  <SCORE.INTRA.REPUL>
0

>  <SCORE.INTRA.REPUL.0>
0

>  <SCORE.INTRA.SOLV>
-1.96939

>  <SCORE.INTRA.SOLV.lig_0>
-63.2542

>  <SCORE.INTRA.VDW>
-2.36346

>  <SCORE.INTRA.VDW.0>
-3.15072

>  <SCORE.INTRA.norm>
-0.173176

>  <SCORE.RESTR>
0

>  <SCORE.RESTR.CAVITY>
0

>  <SCORE.RESTR.norm>
0

>  <SCORE.SYSTEM>
0

>  <SCORE.SYSTEM.CONST>
0

>  <SCORE.SYSTEM.DIHEDRAL>
0

>  <SCORE.SYSTEM.SOLV>
0

>  <SCORE.SYSTEM.norm>
0

>  <SCORE.heavy>
26

>  <SCORE.norm>
-0.705818

>  <RMSD>
8.060

$$$$
ligand
 OpenBabel11021811473D
libRbt.so/2013.1/901 2013/11/27
 26 27  0  0  0  0  0  0  0  0999 V2000
   -2.4520  -12.1373   16.3407 C   0  0  0  0  0  0  0  0  0  0  0  0
   -5.6532  -16.2703   15.0816 C   0  0  0  0  0  0  0  0  0  0  0  0
   -4.5449  -15.6773   15.6773 C   0  0  0  0  0  0  0  0  0  0  0  0
   -3.8733  -14.4139   15.1338 C   0  0  0  0  0  0  0  0  0  0  0  0
   -3.9675  -12.1628   16.1208 C   0  0  1  0  0  0  0  0  0  0  0  0
   -6.2810  -19.1588   17.4889 C   0  0  0  0  0  0  0  0  0  0  0  0
   -5.6598  -17.9250   16.8324 C   0  0  0  0  0  0  0  0  0  0  0  0
   -4.0411  -16.2549   16.8383 C   0  0  0  0  0  0  0  0  0  0  0  0
   -5.9110  -13.1060   15.4024 C   0  0  0  0  0  0  0  0  0  0  0  0
   -4.7828  -11.0935   16.4722 C   0  0  2  0  0  0  0  0  0  0  0  0
   -4.4451   -9.7377   17.0976 C   0  0  0  0  0  0  0  0  0  0  0  0
   -5.5718   -9.1895   17.9765 C   0  0  0  0  0  0  0  0  0  0  0  0
   -6.2236  -17.4065   15.6590 N   0  0  0  0  0  0  0  0  0  0  0  0
   -4.5910  -13.2057   15.5655 N   0  0  0  0  0  0  0  0  0  0  0  0
   -4.5888  -17.3290   17.3759 N   0  0  0  0  0  0  0  0  0  0  0  0
   -6.1345  -15.7968   14.0521 O   0  0  0  0  0  0  0  0  0  0  0  0
   -8.1960   -9.2572   19.5963 O   0  5  0  0  0  0  0  0  0  0  0  0
   -6.5302  -12.7205   22.8821 O   0  0  0  0  0  0  0  0  0  0  0  0
   -5.7775   -9.9967   19.1400 O   0  0  0  0  0  0  0  0  0  0  0  0
   -7.0449  -10.8356   21.2312 O   0  0  0  0  0  0  0  0  0  0  0  0
   -4.7563  -12.0356   21.1282 O   0  5  0  0  0  0  0  0  0  0  0  0
   -6.2704   -8.3871   21.0851 O   0  0  0  0  0  0  0  0  0  0  0  0
   -5.3202  -10.4696   23.0821 O   0  0  0  0  0  0  0  0  0  0  0  0
   -6.4097  -11.5823   16.0881 S   0  0  0  0  0  0  0  0  0  0  0  0
   -6.7831   -9.5420   20.3126 P   0  0  2  0  0  0  0  0  0  0  0  0
   -5.8392  -11.5541   22.0146 P   0  0  2  0  0  0  0  0  0  0  0  0
  2 16  2  0  0  0  0
  2  3  1  0  0  0  0
  2 13  1  0  0  0  0
  3  8  2  0  0  0  0
  3  4  1  0  0  0  0
  4 14  1  0  0  0  0
  5  1  1  6  0  0  0
  5 14  1  0  0  0  0
  5 10  1  0  0  0  0
  6  7  1  0  0  0  0
  7 13  1  0  0  0  0
  7 15  2  0  0  0  0
  8 15  1  0  0  0  0
  9 14  1  0  0  0  0
  9 24  1  0  0  0  0
 10 24  1  0  0  0  0
 10 11  1  1  0  0  0
 11 12  1  0  0  0  0
 12 19  1  0  0  0  0
 17 25  1  0  0  0  0
 19 25  1  0  0  0  0
 20 26  1  0  0  0  0
 21 26  1  0  0  0  0
 22 25  2  0  0  0  0
 23 26  2  0  0  0  0
 25 20  1  1  0  0  0
 26 18  1  1  0  0  0
M  CHG  2  17  -1  21  -1
M  END
>  <CHROM.1>
81.83636465,-149.16996151,66.32150284,130.22694031,172.64139816,173.69218875
54.27885558,176.17119786,-5.60117309,-12.60532302,18.24111440,-0.81066746
1.38727970,-0.04946033

>  <Name>
ligand

>  <RI>
0

>  <Rbt.Current_Directory>
/home/itssahil/PROJECTS/Mol_Feturizer/New_Systems/rnas/3D2X

>  <Rbt.Executable>
rbdock ($Id: //depot/dev/client3/rdock/2013.1/src/exe/rbdock.cxx#4 $)

>  <Rbt.Library>
libRbt.so (2013.1, Build901 2013/11/27)

>  <Rbt.Parameter_File>
/export/apps/rDock/src/rDock_2013.1_src/data/scripts/dock_solv.prm

>  <Rbt.Receptor>
prm/pocket_docking_8.prm

>  <SCORE>
-15.2558

>  <SCORE.INTER>
-13.4296

>  <SCORE.INTER.CONST>
1

>  <SCORE.INTER.POLAR>
0

>  <SCORE.INTER.ROT>
8

>  <SCORE.INTER.SOLV>
16.1922

>  <SCORE.INTER.VDW>
-23.2838

>  <SCORE.INTER.norm>
-0.516522

>  <SCORE.INTRA>
-1.82625

>  <SCORE.INTRA.DIHEDRAL>
-2.35695

>  <SCORE.INTRA.DIHEDRAL.0>
7.88077

>  <SCORE.INTRA.POLAR>
0

>  <SCORE.INTRA.POLAR.0>
0

>  <SCORE.INTRA.REPUL>
0

>  <SCORE.INTRA.REPUL.0>
0

>  <SCORE.INTRA.SOLV>
-0.510421

>  <SCORE.INTRA.SOLV.lig_0>
-63.2542

>  <SCORE.INTRA.VDW>
-0.392564

>  <SCORE.INTRA.VDW.0>
-3.15072

>  <SCORE.INTRA.norm>
-0.0702404

>  <SCORE.RESTR>
0

>  <SCORE.RESTR.CAVITY>
0

>  <SCORE.RESTR.norm>
0

>  <SCORE.SYSTEM>
0

>  <SCORE.SYSTEM.CONST>
0

>  <SCORE.SYSTEM.DIHEDRAL>
0

>  <SCORE.SYSTEM.SOLV>
0

>  <SCORE.SYSTEM.norm>
0

>  <SCORE.heavy>
26

>  <SCORE.norm>
-0.586763

>  <RMSD>
8.086

$$$$
ligand
 OpenBabel11021811473D
libRbt.so/2013.1/901 2013/11/27
 26 27  0  0  0  0  0  0  0  0999 V2000
   -4.2726  -10.4913   16.3783 C   0  0  0  0  0  0  0  0  0  0  0  0
   -5.8737  -15.4315   14.7874 C   0  0  0  0  0  0  0  0  0  0  0  0
   -5.5156  -14.4268   15.6802 C   0  0  0  0  0  0  0  0  0  0  0  0
   -5.5103  -12.9403   15.3156 C   0  0  0  0  0  0  0  0  0  0  0  0
   -5.6257  -11.0264   16.8563 C   0  0  1  0  0  0  0  0  0  0  0  0
   -5.5380  -18.5042   17.0187 C   0  0  0  0  0  0  0  0  0  0  0  0
   -5.5210  -17.0542   16.5327 C   0  0  0  0  0  0  0  0  0  0  0  0
   -5.1678  -14.7983   16.9750 C   0  0  0  0  0  0  0  0  0  0  0  0
   -7.3647  -12.4955   16.8315 C   0  0  0  0  0  0  0  0  0  0  0  0
   -6.3744  -10.3766   17.8302 C   0  0  2  0  0  0  0  0  0  0  0  0
   -6.1037   -9.0872   18.6096 C   0  0  0  0  0  0  0  0  0  0  0  0
   -5.6893   -9.3434   20.0605 C   0  0  0  0  0  0  0  0  0  0  0  0
   -5.8797  -16.7624   15.2099 N   0  0  0  0  0  0  0  0  0  0  0  0
   -6.1713  -12.1382   16.3552 N   0  0  0  0  0  0  0  0  0  0  0  0
   -5.1775  -16.0597   17.3638 N   0  0  0  0  0  0  0  0  0  0  0  0
   -6.1881  -15.1529   13.6302 O   0  0  0  0  0  0  0  0  0  0  0  0
   -7.0982  -11.9191   22.5239 O   0  5  0  0  0  0  0  0  0  0  0  0
   -5.1193  -12.3231   24.4714 O   0  0  0  0  0  0  0  0  0  0  0  0
   -6.6852  -10.0830   20.7739 O   0  0  0  0  0  0  0  0  0  0  0  0
   -4.9395  -10.5699   22.6174 O   0  0  0  0  0  0  0  0  0  0  0  0
   -2.9107  -11.0129   24.1590 O   0  5  0  0  0  0  0  0  0  0  0  0
   -7.1662   -9.4292   23.2148 O   0  0  0  0  0  0  0  0  0  0  0  0
   -5.0022   -9.8319   25.0640 O   0  0  0  0  0  0  0  0  0  0  0  0
   -7.7913  -11.3576   18.0822 S   0  0  0  0  0  0  0  0  0  0  0  0
   -6.5167  -10.4299   22.3373 P   0  0  2  0  0  0  0  0  0  0  0  0
   -4.3870  -10.9444   24.0796 P   0  0  2  0  0  0  0  0  0  0  0  0
  2 16  2  0  0  0  0
  2  3  1  0  0  0  0
  2 13  1  0  0  0  0
  3  8  2  0  0  0  0
  3  4  1  0  0  0  0
  4 14  1  0  0  0  0
  5  1  1  6  0  0  0
  5 14  1  0  0  0  0
  5 10  1  0  0  0  0
  6  7  1  0  0  0  0
  7 13  1  0  0  0  0
  7 15  2  0  0  0  0
  8 15  1  0  0  0  0
  9 14  1  0  0  0  0
  9 24  1  0  0  0  0
 10 24  1  0  0  0  0
 10 11  1  1  0  0  0
 11 12  1  0  0  0  0
 12 19  1  0  0  0  0
 17 25  1  0  0  0  0
 19 25  1  0  0  0  0
 20 26  1  0  0  0  0
 21 26  1  0  0  0  0
 22 25  2  0  0  0  0
 23 26  2  0  0  0  0
 25 20  1  1  0  0  0
 26 18  1  1  0  0  0
M  CHG  2  17  -1  21  -1
M  END
>  <CHROM.1>
133.29315072,-105.41502039,-58.34078269,132.02868990,-177.44811460,-66.70681760
-141.77963574,55.67612343,-5.80258454,-12.19595234,19.44673554,1.75482412
1.27493990,-2.27841175

>  <Name>
ligand

>  <RI>
0

>  <Rbt.Current_Directory>
/home/itssahil/PROJECTS/Mol_Feturizer/New_Systems/rnas/3D2X

>  <Rbt.Executable>
rbdock ($Id: //depot/dev/client3/rdock/2013.1/src/exe/rbdock.cxx#4 $)

>  <Rbt.Library>
libRbt.so (2013.1, Build901 2013/11/27)

>  <Rbt.Parameter_File>
/export/apps/rDock/src/rDock_2013.1_src/data/scripts/dock_solv.prm

>  <Rbt.Receptor>
prm/pocket_docking_8.prm

>  <SCORE>
-15.7766

>  <SCORE.INTER>
-14.1925

>  <SCORE.INTER.CONST>
1

>  <SCORE.INTER.POLAR>
0

>  <SCORE.INTER.ROT>
8

>  <SCORE.INTER.SOLV>
8.22507

>  <SCORE.INTER.VDW>
-21.1367

>  <SCORE.INTER.norm>
-0.545866

>  <SCORE.INTRA>
-1.58405

>  <SCORE.INTRA.DIHEDRAL>
-1.29704

>  <SCORE.INTRA.DIHEDRAL.0>
7.88077

>  <SCORE.INTRA.POLAR>
0

>  <SCORE.INTRA.POLAR.0>
0

>  <SCORE.INTRA.REPUL>
0

>  <SCORE.INTRA.REPUL.0>
0

>  <SCORE.INTRA.SOLV>
-1.23032

>  <SCORE.INTRA.SOLV.lig_0>
-63.2542

>  <SCORE.INTRA.VDW>
-0.320369

>  <SCORE.INTRA.VDW.0>
-3.15072

>  <SCORE.INTRA.norm>
-0.060925

>  <SCORE.RESTR>
0

>  <SCORE.RESTR.CAVITY>
0

>  <SCORE.RESTR.norm>
0

>  <SCORE.SYSTEM>
0

>  <SCORE.SYSTEM.CONST>
0

>  <SCORE.SYSTEM.DIHEDRAL>
0

>  <SCORE.SYSTEM.SOLV>
0

>  <SCORE.SYSTEM.norm>
0

>  <SCORE.heavy>
26

>  <SCORE.norm>
-0.606791

>  <RMSD>
8.092

$$$$
ligand
 OpenBabel11021811473D
libRbt.so/2013.1/901 2013/11/27
 26 27  0  0  0  0  0  0  0  0999 V2000
   -4.3743  -10.3181   16.4582 C   0  0  0  0  0  0  0  0  0  0  0  0
   -5.1004  -14.7862   16.7343 C   0  0  0  0  0  0  0  0  0  0  0  0
   -5.5705  -14.2304   15.5491 C   0  0  0  0  0  0  0  0  0  0  0  0
   -5.5827  -12.7251   15.2728 C   0  0  0  0  0  0  0  0  0  0  0  0
   -5.7136  -10.9014   16.9182 C   0  0  1  0  0  0  0  0  0  0  0  0
   -5.5615  -18.4983   15.9991 C   0  0  0  0  0  0  0  0  0  0  0  0
   -5.5728  -16.9763   15.8491 C   0  0  0  0  0  0  0  0  0  0  0  0
   -6.0301  -15.0948   14.5605 C   0  0  0  0  0  0  0  0  0  0  0  0
   -7.4288  -12.3957   16.8279 C   0  0  0  0  0  0  0  0  0  0  0  0
   -6.4630  -10.3190   17.9334 C   0  0  2  0  0  0  0  0  0  0  0  0
   -6.2054   -9.0702   18.7805 C   0  0  0  0  0  0  0  0  0  0  0  0
   -6.5079   -9.2844   20.2654 C   0  0  0  0  0  0  0  0  0  0  0  0
   -5.0974  -16.1734   16.8944 N   0  0  0  0  0  0  0  0  0  0  0  0
   -6.2461  -11.9927   16.3612 N   0  0  0  0  0  0  0  0  0  0  0  0
   -6.0221  -16.4048   14.7225 N   0  0  0  0  0  0  0  0  0  0  0  0
   -4.6846  -14.0624   17.6393 O   0  0  0  0  0  0  0  0  0  0  0  0
   -6.9874  -10.0407   23.0278 O   0  5  0  0  0  0  0  0  0  0  0  0
   -8.6140  -12.1886   23.7934 O   0  0  0  0  0  0  0  0  0  0  0  0
   -5.6585  -10.2816   20.8414 O   0  0  0  0  0  0  0  0  0  0  0  0
   -7.0708  -12.2453   21.7541 O   0  0  0  0  0  0  0  0  0  0  0  0
   -8.5766  -14.2825   22.2746 O   0  5  0  0  0  0  0  0  0  0  0  0
   -4.8953  -11.5564   22.9413 O   0  0  0  0  0  0  0  0  0  0  0  0
   -6.5665  -13.7308   23.7724 O   0  0  0  0  0  0  0  0  0  0  0  0
   -7.8612  -11.3360   18.1435 S   0  0  0  0  0  0  0  0  0  0  0  0
   -6.0709  -11.0629   22.1878 P   0  0  2  0  0  0  0  0  0  0  0  0
   -7.7690  -13.1861   22.8545 P   0  0  2  0  0  0  0  0  0  0  0  0
  2 16  2  0  0  0  0
  2  3  1  0  0  0  0
  2 13  1  0  0  0  0
  3  8  2  0  0  0  0
  3  4  1  0  0  0  0
  4 14  1  0  0  0  0
  5  1  1  6  0  0  0
  5 14  1  0  0  0  0
  5 10  1  0  0  0  0
  6  7  1  0  0  0  0
  7 13  1  0  0  0  0
  7 15  2  0  0  0  0
  8 15  1  0  0  0  0
  9 14  1  0  0  0  0
  9 24  1  0  0  0  0
 10 24  1  0  0  0  0
 10 11  1  1  0  0  0
 11 12  1  0  0  0  0
 12 19  1  0  0  0  0
 17 25  1  0  0  0  0
 19 25  1  0  0  0  0
 20 26  1  0  0  0  0
 21 26  1  0  0  0  0
 22 25  2  0  0  0  0
 23 26  2  0  0  0  0
 25 20  1  6  0  0  0
 26 18  1  1  0  0  0
M  CHG  2  17  -1  21  -1
M  END
>  <CHROM.1>
-52.25852751,-136.12059501,62.85619005,132.49673800,-158.35279961,-63.96327570
-29.47851276,59.19518991,-6.38141782,-12.65828984,19.24824329,-0.64903218
1.35303860,0.20135478

>  <Name>
ligand

>  <RI>
0

>  <Rbt.Current_Directory>
/home/itssahil/PROJECTS/Mol_Feturizer/New_Systems/rnas/3D2X

>  <Rbt.Executable>
rbdock ($Id: //depot/dev/client3/rdock/2013.1/src/exe/rbdock.cxx#4 $)

>  <Rbt.Library>
libRbt.so (2013.1, Build901 2013/11/27)

>  <Rbt.Parameter_File>
/export/apps/rDock/src/rDock_2013.1_src/data/scripts/dock_solv.prm

>  <Rbt.Receptor>
prm/pocket_docking_8.prm

>  <SCORE>
-16.5317

>  <SCORE.INTER>
-15.7497

>  <SCORE.INTER.CONST>
1

>  <SCORE.INTER.POLAR>
0

>  <SCORE.INTER.ROT>
8

>  <SCORE.INTER.SOLV>
9.25636

>  <SCORE.INTER.VDW>
-22.5186

>  <SCORE.INTER.norm>
-0.605759

>  <SCORE.INTRA>
-0.782002

>  <SCORE.INTRA.DIHEDRAL>
0.320042

>  <SCORE.INTRA.DIHEDRAL.0>
7.88077

>  <SCORE.INTRA.POLAR>
0

>  <SCORE.INTRA.POLAR.0>
0

>  <SCORE.INTRA.REPUL>
0

>  <SCORE.INTRA.REPUL.0>
0

>  <SCORE.INTRA.SOLV>
-0.539864

>  <SCORE.INTRA.SOLV.lig_0>
-63.2542

>  <SCORE.INTRA.VDW>
-0.672091

>  <SCORE.INTRA.VDW.0>
-3.15072

>  <SCORE.INTRA.norm>
-0.030077

>  <SCORE.RESTR>
0

>  <SCORE.RESTR.CAVITY>
0

>  <SCORE.RESTR.norm>
0

>  <SCORE.SYSTEM>
0

>  <SCORE.SYSTEM.CONST>
0

>  <SCORE.SYSTEM.DIHEDRAL>
0

>  <SCORE.SYSTEM.SOLV>
0

>  <SCORE.SYSTEM.norm>
0

>  <SCORE.heavy>
26

>  <SCORE.norm>
-0.635836

>  <RMSD>
8.097

$$$$
ligand
 OpenBabel11021811473D
libRbt.so/2013.1/901 2013/11/27
 26 27  0  0  0  0  0  0  0  0999 V2000
   -4.3959  -10.3163   16.4636 C   0  0  0  0  0  0  0  0  0  0  0  0
   -5.0920  -14.8689   16.8464 C   0  0  0  0  0  0  0  0  0  0  0  0
   -5.5335  -14.3117   15.6509 C   0  0  0  0  0  0  0  0  0  0  0  0
   -5.5092  -12.8084   15.3641 C   0  0  0  0  0  0  0  0  0  0  0  0
   -5.7189  -10.9273   16.9350 C   0  0  1  0  0  0  0  0  0  0  0  0
   -5.6235  -18.5753   16.1305 C   0  0  0  0  0  0  0  0  0  0  0  0
   -5.5996  -17.0546   15.9698 C   0  0  0  0  0  0  0  0  0  0  0  0
   -5.9981  -15.1730   14.6621 C   0  0  0  0  0  0  0  0  0  0  0  0
   -7.3807  -12.4827   16.8894 C   0  0  0  0  0  0  0  0  0  0  0  0
   -6.4977  -10.3320   17.9201 C   0  0  2  0  0  0  0  0  0  0  0  0
   -6.2915   -9.0428   18.7193 C   0  0  0  0  0  0  0  0  0  0  0  0
   -5.9789   -9.3000   20.1953 C   0  0  0  0  0  0  0  0  0  0  0  0
   -5.1214  -16.2546   17.0161 N   0  0  0  0  0  0  0  0  0  0  0  0
   -6.2080  -12.0575   16.4171 N   0  0  0  0  0  0  0  0  0  0  0  0
   -6.0209  -16.4817   14.8331 N   0  0  0  0  0  0  0  0  0  0  0  0
   -4.6731  -14.1477   17.7521 O   0  0  0  0  0  0  0  0  0  0  0  0
   -8.0155   -9.5537   23.1356 O   0  5  0  0  0  0  0  0  0  0  0  0
   -5.4965  -13.1912   23.5703 O   0  0  0  0  0  0  0  0  0  0  0  0
   -7.0062  -10.0686   20.8290 O   0  0  0  0  0  0  0  0  0  0  0  0
   -7.4809  -11.9667   22.5187 O   0  0  0  0  0  0  0  0  0  0  0  0
   -7.4098  -12.3226   25.0793 O   0  5  0  0  0  0  0  0  0  0  0  0
   -5.5535  -10.3156   22.9375 O   0  0  0  0  0  0  0  0  0  0  0  0
   -7.8038  -14.3057   23.4981 O   0  0  0  0  0  0  0  0  0  0  0  0
   -7.8621  -11.3879   18.1584 S   0  0  0  0  0  0  0  0  0  0  0  0
   -6.9203  -10.4653   22.3873 P   0  0  2  0  0  0  0  0  0  0  0  0
   -7.0681  -12.9003   23.7602 P   0  0  2  0  0  0  0  0  0  0  0  0
  2 16  2  0  0  0  0
  2  3  1  0  0  0  0
  2 13  1  0  0  0  0
  3  8  2  0  0  0  0
  3  4  1  0  0  0  0
  4 14  1  0  0  0  0
  5  1  1  6  0  0  0
  5 14  1  0  0  0  0
  5 10  1  0  0  0  0
  6  7  1  0  0  0  0
  7 13  1  0  0  0  0
  7 15  2  0  0  0  0
  8 15  1  0  0  0  0
  9 14  1  0  0  0  0
  9 24  1  0  0  0  0
 10 24  1  0  0  0  0
 10 11  1  1  0  0  0
 11 12  1  0  0  0  0
 12 19  1  0  0  0  0
 17 25  1  0  0  0  0
 19 25  1  0  0  0  0
 20 26  1  0  0  0  0
 21 26  1  0  0  0  0
 22 25  2  0  0  0  0
 23 26  2  0  0  0  0
 25 20  1  1  0  0  0
 26 18  1  6  0  0  0
M  CHG  2  17  -1  21  -1
M  END
>  <CHROM.1>
-54.02322309,-110.34302693,-57.29345739,136.47464365,-179.53294356,-90.95344764
107.52797219,-67.37541661,-6.39069163,-12.52659129,19.48306272,-0.08224850
1.40432542,-0.38240172

>  <Name>
ligand

>  <RI>
0

>  <Rbt.Current_Directory>
/home/itssahil/PROJECTS/Mol_Feturizer/New_Systems/rnas/3D2X

>  <Rbt.Executable>
rbdock ($Id: //depot/dev/client3/rdock/2013.1/src/exe/rbdock.cxx#4 $)

>  <Rbt.Library>
libRbt.so (2013.1, Build901 2013/11/27)

>  <Rbt.Parameter_File>
/export/apps/rDock/src/rDock_2013.1_src/data/scripts/dock_solv.prm

>  <Rbt.Receptor>
prm/pocket_docking_6.prm

>  <SCORE>
-15.929

>  <SCORE.INTER>
-14.7754

>  <SCORE.INTER.CONST>
1

>  <SCORE.INTER.POLAR>
0

>  <SCORE.INTER.ROT>
8

>  <SCORE.INTER.SOLV>
9.41384

>  <SCORE.INTER.VDW>
-21.9216

>  <SCORE.INTER.norm>
-0.568285

>  <SCORE.INTRA>
-1.15362

>  <SCORE.INTRA.DIHEDRAL>
0.21002

>  <SCORE.INTRA.DIHEDRAL.0>
7.88077

>  <SCORE.INTRA.POLAR>
0

>  <SCORE.INTRA.POLAR.0>
0

>  <SCORE.INTRA.REPUL>
0

>  <SCORE.INTRA.REPUL.0>
0

>  <SCORE.INTRA.SOLV>
-1.17227

>  <SCORE.INTRA.SOLV.lig_0>
-63.2542

>  <SCORE.INTRA.VDW>
-0.672498

>  <SCORE.INTRA.VDW.0>
-3.15072

>  <SCORE.INTRA.norm>
-0.0443702

>  <SCORE.RESTR>
0

>  <SCORE.RESTR.CAVITY>
0

>  <SCORE.RESTR.norm>
0

>  <SCORE.SYSTEM>
0

>  <SCORE.SYSTEM.CONST>
0

>  <SCORE.SYSTEM.DIHEDRAL>
0

>  <SCORE.SYSTEM.SOLV>
0

>  <SCORE.SYSTEM.norm>
0

>  <SCORE.heavy>
26

>  <SCORE.norm>
-0.612655

>  <RMSD>
8.123

$$$$
ligand
 OpenBabel11021811473D
libRbt.so/2013.1/901 2013/11/27
 26 27  0  0  0  0  0  0  0  0999 V2000
   -5.2230  -16.3859   15.4632 C   0  0  0  0  0  0  0  0  0  0  0  0
   -3.3248  -20.2320   16.0965 C   0  0  0  0  0  0  0  0  0  0  0  0
   -3.6613  -19.0979   16.8280 C   0  0  0  0  0  0  0  0  0  0  0  0
   -5.0985  -18.7445   17.2183 C   0  0  0  0  0  0  0  0  0  0  0  0
   -5.2295  -16.2987   16.9923 C   0  0  1  0  0  0  0  0  0  0  0  0
    0.4695  -19.8854   15.9719 C   0  0  0  0  0  0  0  0  0  0  0  0
   -1.0052  -19.6042   16.2641 C   0  0  0  0  0  0  0  0  0  0  0  0
   -2.6314  -18.2591   17.2417 C   0  0  0  0  0  0  0  0  0  0  0  0
   -5.2133  -17.1874   19.0883 C   0  0  0  0  0  0  0  0  0  0  0  0
   -5.3058  -15.0836   17.6624 C   0  0  2  0  0  0  0  0  0  0  0  0
   -5.4033  -13.6505   17.1331 C   0  0  0  0  0  0  0  0  0  0  0  0
   -4.0406  -12.9632   17.0191 C   0  0  0  0  0  0  0  0  0  0  0  0
   -1.9845  -20.4961   15.8072 N   0  0  0  0  0  0  0  0  0  0  0  0
   -5.1778  -17.3841   17.7696 N   0  0  0  0  0  0  0  0  0  0  0  0
   -1.3675  -18.5188   16.9630 N   0  0  0  0  0  0  0  0  0  0  0  0
   -4.2011  -21.0042   15.7069 O   0  0  0  0  0  0  0  0  0  0  0  0
   -2.1581  -10.6258   18.1228 O   0  5  0  0  0  0  0  0  0  0  0  0
    0.5993  -10.9264   19.5717 O   0  0  0  0  0  0  0  0  0  0  0  0
   -3.3806  -12.8804   18.2861 O   0  0  0  0  0  0  0  0  0  0  0  0
   -1.5542  -12.2389   19.9996 O   0  0  0  0  0  0  0  0  0  0  0  0
    0.1102  -11.8460   21.9397 O   0  5  0  0  0  0  0  0  0  0  0  0
   -0.9079  -12.8220   17.5791 O   0  0  0  0  0  0  0  0  0  0  0  0
    0.6979  -13.4480   20.0223 O   0  0  0  0  0  0  0  0  0  0  0  0
   -5.2357  -15.4651   19.3602 S   0  0  0  0  0  0  0  0  0  0  0  0
   -1.9346  -12.1882   18.4380 P   0  0  2  0  0  0  0  0  0  0  0  0
   -0.0297  -12.0915   20.4869 P   0  0  2  0  0  0  0  0  0  0  0  0
  2 16  2  0  0  0  0
  2  3  1  0  0  0  0
  2 13  1  0  0  0  0
  3  8  2  0  0  0  0
  3  4  1  0  0  0  0
  4 14  1  0  0  0  0
  5  1  1  6  0  0  0
  5 14  1  0  0  0  0
  5 10  1  0  0  0  0
  6  7  1  0  0  0  0
  7 13  1  0  0  0  0
  7 15  2  0  0  0  0
  8 15  1  0  0  0  0
  9 14  1  0  0  0  0
  9 24  1  0  0  0  0
 10 24  1  0  0  0  0
 10 11  1  6  0  0  0
 11 12  1  0  0  0  0
 12 19  1  0  0  0  0
 17 25  1  0  0  0  0
 19 25  1  0  0  0  0
 20 26  1  0  0  0  0
 21 26  1  0  0  0  0
 22 25  2  0  0  0  0
 23 26  2  0  0  0  0
 25 20  1  1  0  0  0
 26 18  1  6  0  0  0
M  CHG  2  17  -1  21  -1
M  END
>  <CHROM.1>
-169.77027029,-94.33526184,-60.15369031,81.43284360,-179.46480535,-88.01107770
66.68240499,41.46393450,-2.64858467,-15.28258188,18.06159565,1.88338169,0.14956001
-2.78618322

>  <Name>
ligand

>  <RI>
0

>  <Rbt.Current_Directory>
/home/itssahil/PROJECTS/Mol_Feturizer/New_Systems/rnas/3D2X

>  <Rbt.Executable>
rbdock ($Id: //depot/dev/client3/rdock/2013.1/src/exe/rbdock.cxx#4 $)

>  <Rbt.Library>
libRbt.so (2013.1, Build901 2013/11/27)

>  <Rbt.Parameter_File>
/export/apps/rDock/src/rDock_2013.1_src/data/scripts/dock_solv.prm

>  <Rbt.Receptor>
prm/pocket_docking_8.prm

>  <SCORE>
-13.296

>  <SCORE.INTER>
-11.0389

>  <SCORE.INTER.CONST>
1

>  <SCORE.INTER.POLAR>
0

>  <SCORE.INTER.ROT>
8

>  <SCORE.INTER.SOLV>
12.1106

>  <SCORE.INTER.VDW>
-20.3295

>  <SCORE.INTER.norm>
-0.424575

>  <SCORE.INTRA>
-2.25703

>  <SCORE.INTRA.DIHEDRAL>
-1.82797

>  <SCORE.INTRA.DIHEDRAL.0>
7.88077

>  <SCORE.INTRA.POLAR>
0

>  <SCORE.INTRA.POLAR.0>
0

>  <SCORE.INTRA.REPUL>
0

>  <SCORE.INTRA.REPUL.0>
0

>  <SCORE.INTRA.SOLV>
-1.38687

>  <SCORE.INTRA.SOLV.lig_0>
-63.2542

>  <SCORE.INTRA.VDW>
-0.649613

>  <SCORE.INTRA.VDW.0>
-3.15072

>  <SCORE.INTRA.norm>
-0.0868089

>  <SCORE.RESTR>
0

>  <SCORE.RESTR.CAVITY>
0

>  <SCORE.RESTR.norm>
0

>  <SCORE.SYSTEM>
0

>  <SCORE.SYSTEM.CONST>
0

>  <SCORE.SYSTEM.DIHEDRAL>
0

>  <SCORE.SYSTEM.SOLV>
0

>  <SCORE.SYSTEM.norm>
0

>  <SCORE.heavy>
26

>  <SCORE.norm>
-0.511384

>  <RMSD>
8.140

$$$$
ligand
 OpenBabel11021811473D
libRbt.so/2013.1/901 2013/11/27
 26 27  0  0  0  0  0  0  0  0999 V2000
   -5.0837  -15.6806   14.4786 C   0  0  0  0  0  0  0  0  0  0  0  0
   -2.8039  -19.3555   16.2516 C   0  0  0  0  0  0  0  0  0  0  0  0
   -3.3686  -18.1861   16.7500 C   0  0  0  0  0  0  0  0  0  0  0  0
   -4.8282  -17.7901   16.5142 C   0  0  0  0  0  0  0  0  0  0  0  0
   -5.1770  -15.4137   15.9838 C   0  0  1  0  0  0  0  0  0  0  0  0
    0.7268  -19.0860   17.6636 C   0  0  0  0  0  0  0  0  0  0  0  0
   -0.7298  -18.7652   17.3252 C   0  0  0  0  0  0  0  0  0  0  0  0
   -2.5658  -17.3507   17.5200 C   0  0  0  0  0  0  0  0  0  0  0  0
   -5.1850  -16.0412   18.1723 C   0  0  0  0  0  0  0  0  0  0  0  0
   -5.4017  -14.1413   16.4956 C   0  0  2  0  0  0  0  0  0  0  0  0
   -5.6063  -12.7980   15.7905 C   0  0  0  0  0  0  0  0  0  0  0  0
   -4.3325  -12.2755   15.1221 C   0  0  0  0  0  0  0  0  0  0  0  0
   -1.4708  -19.6564   16.5378 N   0  0  0  0  0  0  0  0  0  0  0  0
   -5.0634  -16.3885   16.8902 N   0  0  0  0  0  0  0  0  0  0  0  0
   -1.3066  -17.6454   17.7848 N   0  0  0  0  0  0  0  0  0  0  0  0
   -3.4738  -20.1263   15.5639 O   0  0  0  0  0  0  0  0  0  0  0  0
   -4.3451  -11.5875   18.3860 O   0  5  0  0  0  0  0  0  0  0  0  0
    0.2049  -11.2741   18.9848 O   0  0  0  0  0  0  0  0  0  0  0  0
   -3.2995  -12.0174   16.0781 O   0  0  0  0  0  0  0  0  0  0  0  0
   -2.0222  -10.6729   17.8793 O   0  0  0  0  0  0  0  0  0  0  0  0
   -1.9361  -12.5754   19.6291 O   0  5  0  0  0  0  0  0  0  0  0  0
   -4.0664   -9.6434   16.7054 O   0  0  0  0  0  0  0  0  0  0  0  0
   -0.8772  -12.8868   17.3117 O   0  0  0  0  0  0  0  0  0  0  0  0
   -5.3833  -14.3096   18.2290 S   0  0  0  0  0  0  0  0  0  0  0  0
   -3.4727  -10.8978   17.2226 P   0  0  2  0  0  0  0  0  0  0  0  0
   -1.2095  -11.8957   18.5334 P   0  0  2  0  0  0  0  0  0  0  0  0
  2 16  2  0  0  0  0
  2  3  1  0  0  0  0
  2 13  1  0  0  0  0
  3  8  2  0  0  0  0
  3  4  1  0  0  0  0
  4 14  1  0  0  0  0
  5  1  1  6  0  0  0
  5 14  1  0  0  0  0
  5 10  1  0  0  0  0
  6  7  1  0  0  0  0
  7 13  1  0  0  0  0
  7 15  2  0  0  0  0
  8 15  1  0  0  0  0
  9 14  1  0  0  0  0
  9 24  1  0  0  0  0
 10 24  1  0  0  0  0
 10 11  1  1  0  0  0
 11 12  1  0  0  0  0
 12 19  1  0  0  0  0
 17 25  1  0  0  0  0
 19 25  1  0  0  0  0
 20 26  1  0  0  0  0
 21 26  1  0  0  0  0
 22 25  2  0  0  0  0
 23 26  2  0  0  0  0
 25 20  1  1  0  0  0
 26 18  1  1  0  0  0
M  CHG  2  17  -1  21  -1
M  END
>  <CHROM.1>
-167.27706980,-69.98869696,-62.85365267,103.32457139,-63.26644669,54.86196677
80.95312218,176.61571848,-3.14137928,-14.48083711,17.20297826,1.52743884
0.38091690,-3.00017338

>  <Name>
ligand

>  <RI>
0

>  <Rbt.Current_Directory>
/home/itssahil/PROJECTS/Mol_Feturizer/New_Systems/rnas/3D2X

>  <Rbt.Executable>
rbdock ($Id: //depot/dev/client3/rdock/2013.1/src/exe/rbdock.cxx#4 $)

>  <Rbt.Library>
libRbt.so (2013.1, Build901 2013/11/27)

>  <Rbt.Parameter_File>
/export/apps/rDock/src/rDock_2013.1_src/data/scripts/dock_solv.prm

>  <Rbt.Receptor>
prm/pocket_docking_8.prm

>  <SCORE>
-13.7774

>  <SCORE.INTER>
-12.4345

>  <SCORE.INTER.CONST>
1

>  <SCORE.INTER.POLAR>
0

>  <SCORE.INTER.ROT>
8

>  <SCORE.INTER.SOLV>
10.7867

>  <SCORE.INTER.VDW>
-20.8186

>  <SCORE.INTER.norm>
-0.478248

>  <SCORE.INTRA>
-1.3429

>  <SCORE.INTRA.DIHEDRAL>
-2.76935

>  <SCORE.INTRA.DIHEDRAL.0>
7.88077

>  <SCORE.INTRA.POLAR>
0

>  <SCORE.INTRA.POLAR.0>
0

>  <SCORE.INTRA.REPUL>
0

>  <SCORE.INTRA.REPUL.0>
0

>  <SCORE.INTRA.SOLV>
1.81376

>  <SCORE.INTRA.SOLV.lig_0>
-63.2542

>  <SCORE.INTRA.VDW>
-0.865109

>  <SCORE.INTRA.VDW.0>
-3.15072

>  <SCORE.INTRA.norm>
-0.0516501

>  <SCORE.RESTR>
0

>  <SCORE.RESTR.CAVITY>
0

>  <SCORE.RESTR.norm>
0

>  <SCORE.SYSTEM>
0

>  <SCORE.SYSTEM.CONST>
0

>  <SCORE.SYSTEM.DIHEDRAL>
0

>  <SCORE.SYSTEM.SOLV>
0

>  <SCORE.SYSTEM.norm>
0

>  <SCORE.heavy>
26

>  <SCORE.norm>
-0.529898

>  <RMSD>
8.162

$$$$
ligand
 OpenBabel11021811473D
libRbt.so/2013.1/901 2013/11/27
 26 27  0  0  0  0  0  0  0  0999 V2000
   -4.3575  -10.3592   16.5168 C   0  0  0  0  0  0  0  0  0  0  0  0
   -5.8636  -15.3014   14.8135 C   0  0  0  0  0  0  0  0  0  0  0  0
   -5.4891  -14.3135   15.7181 C   0  0  0  0  0  0  0  0  0  0  0  0
   -5.5144  -12.8188   15.3895 C   0  0  0  0  0  0  0  0  0  0  0  0
   -5.6995  -10.9424   16.9691 C   0  0  1  0  0  0  0  0  0  0  0  0
   -5.4165  -18.4214   16.9578 C   0  0  0  0  0  0  0  0  0  0  0  0
   -5.4336  -16.9602   16.5066 C   0  0  0  0  0  0  0  0  0  0  0  0
   -5.0944  -14.7109   16.9916 C   0  0  0  0  0  0  0  0  0  0  0  0
   -7.3957  -12.4590   16.8948 C   0  0  0  0  0  0  0  0  0  0  0  0
   -6.4761  -10.3350   17.9485 C   0  0  2  0  0  0  0  0  0  0  0  0
   -6.2499   -9.0554   18.7578 C   0  0  0  0  0  0  0  0  0  0  0  0
   -5.9679   -9.3277   20.2372 C   0  0  0  0  0  0  0  0  0  0  0  0
   -5.8391  -16.6419   15.2037 N   0  0  0  0  0  0  0  0  0  0  0  0
   -6.2082  -12.0581   16.4388 N   0  0  0  0  0  0  0  0  0  0  0  0
   -5.0755  -15.9813   17.3500 N   0  0  0  0  0  0  0  0  0  0  0  0
   -6.2193  -14.9996   13.6741 O   0  0  0  0  0  0  0  0  0  0  0  0
   -8.6649  -10.3510   22.9096 O   0  5  0  0  0  0  0  0  0  0  0  0
   -8.3459  -12.9896   22.8348 O   0  0  0  0  0  0  0  0  0  0  0  0
   -7.1332   -9.7986   20.9214 O   0  0  0  0  0  0  0  0  0  0  0  0
   -6.3449  -11.3967   22.7944 O   0  0  0  0  0  0  0  0  0  0  0  0
   -6.8446  -12.8738   20.7312 O   0  5  0  0  0  0  0  0  0  0  0  0
   -6.5705   -8.8762   23.2558 O   0  0  0  0  0  0  0  0  0  0  0  0
   -5.9587  -13.9214   22.9005 O   0  0  0  0  0  0  0  0  0  0  0  0
   -7.8669  -11.3607   18.1646 S   0  0  0  0  0  0  0  0  0  0  0  0
   -7.1386  -10.0262   22.5155 P   0  0  2  0  0  0  0  0  0  0  0  0
   -6.8757  -12.7962   22.2088 P   0  0  2  0  0  0  0  0  0  0  0  0
  2 16  2  0  0  0  0
  2  3  1  0  0  0  0
  2 13  1  0  0  0  0
  3  8  2  0  0  0  0
  3  4  1  0  0  0  0
  4 14  1  0  0  0  0
  5  1  1  6  0  0  0
  5 14  1  0  0  0  0
  5 10  1  0  0  0  0
  6  7  1  0  0  0  0
  7 13  1  0  0  0  0
  7 15  2  0  0  0  0
  8 15  1  0  0  0  0
  9 14  1  0  0  0  0
  9 24  1  0  0  0  0
 10 24  1  0  0  0  0
 10 11  1  1  0  0  0
 11 12  1  0  0  0  0
 12 19  1  0  0  0  0
 17 25  1  0  0  0  0
 19 25  1  0  0  0  0
 20 26  1  0  0  0  0
 21 26  1  0  0  0  0
 22 25  2  0  0  0  0
 23 26  2  0  0  0  0
 25 20  1  1  0  0  0
 26 18  1  1  0  0  0
M  CHG  2  17  -1  21  -1
M  END
>  <CHROM.1>
130.56455395,-110.64324740,-70.39627165,132.40083792,-174.15980055,50.18845062
172.25899406,-59.64305900,-6.46509868,-12.44949204,19.11154238,-0.21969918
1.39030152,-0.38476639

>  <Name>
ligand

>  <RI>
0

>  <Rbt.Current_Directory>
/home/itssahil/PROJECTS/Mol_Feturizer/New_Systems/rnas/3D2X

>  <Rbt.Executable>
rbdock ($Id: //depot/dev/client3/rdock/2013.1/src/exe/rbdock.cxx#4 $)

>  <Rbt.Library>
libRbt.so (2013.1, Build901 2013/11/27)

>  <Rbt.Parameter_File>
/export/apps/rDock/src/rDock_2013.1_src/data/scripts/dock_solv.prm

>  <Rbt.Receptor>
prm/pocket_docking_8.prm

>  <SCORE>
-19.3026

>  <SCORE.INTER>
-16.6114

>  <SCORE.INTER.CONST>
1

>  <SCORE.INTER.POLAR>
0

>  <SCORE.INTER.ROT>
8

>  <SCORE.INTER.SOLV>
13.0172

>  <SCORE.INTER.VDW>
-24.3466

>  <SCORE.INTER.norm>
-0.638899

>  <SCORE.INTRA>
-2.69122

>  <SCORE.INTRA.DIHEDRAL>
-1.81529

>  <SCORE.INTRA.DIHEDRAL.0>
7.88077

>  <SCORE.INTRA.POLAR>
0

>  <SCORE.INTRA.POLAR.0>
0

>  <SCORE.INTRA.REPUL>
0

>  <SCORE.INTRA.REPUL.0>
0

>  <SCORE.INTRA.SOLV>
-1.04466

>  <SCORE.INTRA.SOLV.lig_0>
-63.2542

>  <SCORE.INTRA.VDW>
-1.26124

>  <SCORE.INTRA.VDW.0>
-3.15072

>  <SCORE.INTRA.norm>
-0.103508

>  <SCORE.RESTR>
0

>  <SCORE.RESTR.CAVITY>
0

>  <SCORE.RESTR.norm>
0

>  <SCORE.SYSTEM>
0

>  <SCORE.SYSTEM.CONST>
0

>  <SCORE.SYSTEM.DIHEDRAL>
0

>  <SCORE.SYSTEM.SOLV>
0

>  <SCORE.SYSTEM.norm>
0

>  <SCORE.heavy>
26

>  <SCORE.norm>
-0.742408

>  <RMSD>
8.170

$$$$
ligand
 OpenBabel11021811473D
libRbt.so/2013.1/901 2013/11/27
 26 27  0  0  0  0  0  0  0  0999 V2000
   -7.5437  -12.2427   16.8677 C   0  0  0  0  0  0  0  0  0  0  0  0
   -5.2054   -8.6306   19.1264 C   0  0  0  0  0  0  0  0  0  0  0  0
   -6.3839   -9.2097   18.6675 C   0  0  0  0  0  0  0  0  0  0  0  0
   -6.6829   -9.4468   17.1853 C   0  0  0  0  0  0  0  0  0  0  0  0
   -6.1519  -11.7404   16.4725 C   0  0  1  0  0  0  0  0  0  0  0  0
   -5.7777   -8.7672   22.8929 C   0  0  0  0  0  0  0  0  0  0  0  0
   -5.9929   -8.9118   21.3856 C   0  0  0  0  0  0  0  0  0  0  0  0
   -7.3238   -9.6116   19.6112 C   0  0  0  0  0  0  0  0  0  0  0  0
   -4.5554  -10.1371   16.2197 C   0  0  0  0  0  0  0  0  0  0  0  0
   -5.1927  -12.5809   15.9204 C   0  0  2  0  0  0  0  0  0  0  0  0
   -5.2428  -14.0722   15.5784 C   0  0  0  0  0  0  0  0  0  0  0  0
   -4.5681  -14.9492   16.6358 C   0  0  0  0  0  0  0  0  0  0  0  0
   -4.9991   -8.4766   20.4988 N   0  0  0  0  0  0  0  0  0  0  0  0
   -5.7847  -10.4644   16.6206 N   0  0  0  0  0  0  0  0  0  0  0  0
   -7.1180   -9.4616   20.9064 N   0  0  0  0  0  0  0  0  0  0  0  0
   -4.3439   -8.2575   18.3299 O   0  0  0  0  0  0  0  0  0  0  0  0
   -3.3408  -15.4159   19.4870 O   0  5  0  0  0  0  0  0  0  0  0  0
   -7.6677  -16.8008   19.4694 O   0  0  0  0  0  0  0  0  0  0  0  0
   -5.2827  -14.9301   17.8754 O   0  0  0  0  0  0  0  0  0  0  0  0
   -5.7273  -15.4032   20.3778 O   0  0  0  0  0  0  0  0  0  0  0  0
   -7.9594  -15.4911   21.6811 O   0  5  0  0  0  0  0  0  0  0  0  0
   -4.9741  -17.3040   18.8170 O   0  0  0  0  0  0  0  0  0  0  0  0
   -7.8042  -14.2412   19.4446 O   0  0  0  0  0  0  0  0  0  0  0  0
   -3.7741  -11.5996   15.6798 S   0  0  0  0  0  0  0  0  0  0  0  0
   -4.8426  -15.8592   19.1148 P   0  0  2  0  0  0  0  0  0  0  0  0
   -7.3319  -15.4898   20.3407 P   0  0  2  0  0  0  0  0  0  0  0  0
  2 16  2  0  0  0  0
  2  3  1  0  0  0  0
  2 13  1  0  0  0  0
  3  8  2  0  0  0  0
  3  4  1  0  0  0  0
  4 14  1  0  0  0  0
  5  1  1  6  0  0  0
  5 14  1  0  0  0  0
  5 10  1  0  0  0  0
  6  7  1  0  0  0  0
  7 13  1  0  0  0  0
  7 15  2  0  0  0  0
  8 15  1  0  0  0  0
  9 14  1  0  0  0  0
  9 24  1  0  0  0  0
 10 24  1  0  0  0  0
 10 11  1  1  0  0  0
 11 12  1  0  0  0  0
 12 19  1  0  0  0  0
 17 25  1  0  0  0  0
 19 25  1  0  0  0  0
 20 26  1  0  0  0  0
 21 26  1  0  0  0  0
 22 25  2  0  0  0  0
 23 26  2  0  0  0  0
 25 20  1  1  0  0  0
 26 18  1  6  0  0  0
M  CHG  2  17  -1  21  -1
M  END
>  <CHROM.1>
67.32112073,-100.03053164,66.97649235,98.48318479,175.25674098,172.11124834
60.38609038,34.85629264,-5.76840169,-12.68830279,18.67009259,-1.40909985
-1.16910730,-3.05698401

>  <Name>
ligand

>  <RI>
0

>  <Rbt.Current_Directory>
/home/itssahil/PROJECTS/Mol_Feturizer/New_Systems/rnas/3D2X

>  <Rbt.Executable>
rbdock ($Id: //depot/dev/client3/rdock/2013.1/src/exe/rbdock.cxx#4 $)

>  <Rbt.Library>
libRbt.so (2013.1, Build901 2013/11/27)

>  <Rbt.Parameter_File>
/export/apps/rDock/src/rDock_2013.1_src/data/scripts/dock_solv.prm

>  <Rbt.Receptor>
prm/pocket_docking_5.prm

>  <SCORE>
-17.8862

>  <SCORE.INTER>
-14.9225

>  <SCORE.INTER.CONST>
1

>  <SCORE.INTER.POLAR>
0

>  <SCORE.INTER.ROT>
8

>  <SCORE.INTER.SOLV>
15.615

>  <SCORE.INTER.VDW>
-24.0867

>  <SCORE.INTER.norm>
-0.573943

>  <SCORE.INTRA>
-2.96365

>  <SCORE.INTRA.DIHEDRAL>
-1.90073

>  <SCORE.INTRA.DIHEDRAL.0>
7.88077

>  <SCORE.INTRA.POLAR>
0

>  <SCORE.INTRA.POLAR.0>
0

>  <SCORE.INTRA.REPUL>
0

>  <SCORE.INTRA.REPUL.0>
0

>  <SCORE.INTRA.SOLV>
-1.39753

>  <SCORE.INTRA.SOLV.lig_0>
-63.2542

>  <SCORE.INTRA.VDW>
-1.31452

>  <SCORE.INTRA.VDW.0>
-3.15072

>  <SCORE.INTRA.norm>
-0.113987

>  <SCORE.RESTR>
0

>  <SCORE.RESTR.CAVITY>
0

>  <SCORE.RESTR.norm>
0

>  <SCORE.SYSTEM>
0

>  <SCORE.SYSTEM.CONST>
0

>  <SCORE.SYSTEM.DIHEDRAL>
0

>  <SCORE.SYSTEM.SOLV>
0

>  <SCORE.SYSTEM.norm>
0

>  <SCORE.heavy>
26

>  <SCORE.norm>
-0.687929

>  <RMSD>
8.174

$$$$
ligand
 OpenBabel11021811473D
libRbt.so/2013.1/901 2013/11/27
 26 27  0  0  0  0  0  0  0  0999 V2000
   -4.8948  -14.1708   17.4533 C   0  0  0  0  0  0  0  0  0  0  0  0
   -1.1916  -17.2132   17.6707 C   0  0  0  0  0  0  0  0  0  0  0  0
   -2.3827  -16.5495   17.9455 C   0  0  0  0  0  0  0  0  0  0  0  0
   -3.6985  -16.8494   17.2234 C   0  0  0  0  0  0  0  0  0  0  0  0
   -5.4076  -15.3907   18.2243 C   0  0  1  0  0  0  0  0  0  0  0  0
    1.1291  -15.5679   20.2085 C   0  0  0  0  0  0  0  0  0  0  0  0
   -0.1163  -15.9140   19.3910 C   0  0  0  0  0  0  0  0  0  0  0  0
   -2.3745  -15.5812   18.9445 C   0  0  0  0  0  0  0  0  0  0  0  0
   -5.3978  -17.5926   18.8029 C   0  0  0  0  0  0  0  0  0  0  0  0
   -6.4935  -15.3154   19.0882 C   0  0  2  0  0  0  0  0  0  0  0  0
   -7.3923  -14.1362   19.4694 C   0  0  0  0  0  0  0  0  0  0  0  0
   -7.0052  -13.4995   20.8062 C   0  0  0  0  0  0  0  0  0  0  0  0
   -0.0411  -16.8987   18.3969 N   0  0  0  0  0  0  0  0  0  0  0  0
   -4.8519  -16.5993   18.0999 N   0  0  0  0  0  0  0  0  0  0  0  0
   -1.2810  -15.2923   19.6251 N   0  0  0  0  0  0  0  0  0  0  0  0
   -1.1482  -18.0772   16.7947 O   0  0  0  0  0  0  0  0  0  0  0  0
   -6.5189  -15.3985   24.2002 O   0  5  0  0  0  0  0  0  0  0  0  0
   -4.4828  -14.0173   25.7042 O   0  0  0  0  0  0  0  0  0  0  0  0
   -7.0791  -14.4395   21.8827 O   0  0  0  0  0  0  0  0  0  0  0  0
   -5.2457  -13.3615   23.3523 O   0  0  0  0  0  0  0  0  0  0  0  0
   -3.2575  -12.1190   24.4442 O   0  5  0  0  0  0  0  0  0  0  0  0
   -7.7247  -13.1213   23.9952 O   0  0  0  0  0  0  0  0  0  0  0  0
   -5.6481  -11.7683   25.3105 O   0  0  0  0  0  0  0  0  0  0  0  0
   -6.6815  -16.9090   19.7650 S   0  0  0  0  0  0  0  0  0  0  0  0
   -6.7124  -14.0193   23.3934 P   0  0  2  0  0  0  0  0  0  0  0  0
   -4.5624  -12.7751   24.6838 P   0  0  2  0  0  0  0  0  0  0  0  0
  2 16  2  0  0  0  0
  2  3  1  0  0  0  0
  2 13  1  0  0  0  0
  3  8  2  0  0  0  0
  3  4  1  0  0  0  0
  4 14  1  0  0  0  0
  5  1  1  6  0  0  0
  5 14  1  0  0  0  0
  5 10  1  0  0  0  0
  6  7  1  0  0  0  0
  7 13  1  0  0  0  0
  7 15  2  0  0  0  0
  8 15  1  0  0  0  0
  9 14  1  0  0  0  0
  9 24  1  0  0  0  0
 10 24  1  0  0  0  0
 10 11  1  1  0  0  0
 11 12  1  0  0  0  0
 12 19  1  0  0  0  0
 17 25  1  0  0  0  0
 19 25  1  0  0  0  0
 20 26  1  0  0  0  0
 21 26  1  0  0  0  0
 22 25  2  0  0  0  0
 23 26  2  0  0  0  0
 25 20  1  6  0  0  0
 26 18  1  1  0  0  0
M  CHG  2  17  -1  21  -1
M  END
>  <CHROM.1>
149.70627043,-99.32257136,-59.61363850,85.89101507,179.65179144,-69.91367374
-164.59661761,59.17418799,-4.51787692,-14.96066288,20.97495583,1.07937032
0.02819047,-2.06105107

>  <Name>
ligand

>  <RI>
0

>  <Rbt.Current_Directory>
/home/itssahil/PROJECTS/Mol_Feturizer/New_Systems/rnas/3D2X

>  <Rbt.Executable>
rbdock ($Id: //depot/dev/client3/rdock/2013.1/src/exe/rbdock.cxx#4 $)

>  <Rbt.Library>
libRbt.so (2013.1, Build901 2013/11/27)

>  <Rbt.Parameter_File>
/export/apps/rDock/src/rDock_2013.1_src/data/scripts/dock_solv.prm

>  <Rbt.Receptor>
prm/pocket_docking_6.prm

>  <SCORE>
-14.3573

>  <SCORE.INTER>
-11.9184

>  <SCORE.INTER.CONST>
1

>  <SCORE.INTER.POLAR>
0

>  <SCORE.INTER.ROT>
8

>  <SCORE.INTER.SOLV>
8.84102

>  <SCORE.INTER.VDW>
-19.8259

>  <SCORE.INTER.norm>
-0.458399

>  <SCORE.INTRA>
-2.43893

>  <SCORE.INTRA.DIHEDRAL>
-2.53456

>  <SCORE.INTRA.DIHEDRAL.0>
7.88077

>  <SCORE.INTRA.POLAR>
0

>  <SCORE.INTRA.POLAR.0>
0

>  <SCORE.INTRA.REPUL>
0

>  <SCORE.INTRA.REPUL.0>
0

>  <SCORE.INTRA.SOLV>
-1.17637

>  <SCORE.INTRA.SOLV.lig_0>
-63.2542

>  <SCORE.INTRA.VDW>
-0.583467

>  <SCORE.INTRA.VDW.0>
-3.15072

>  <SCORE.INTRA.norm>
-0.0938051

>  <SCORE.RESTR>
0

>  <SCORE.RESTR.CAVITY>
0

>  <SCORE.RESTR.norm>
0

>  <SCORE.SYSTEM>
0

>  <SCORE.SYSTEM.CONST>
0

>  <SCORE.SYSTEM.DIHEDRAL>
0

>  <SCORE.SYSTEM.SOLV>
0

>  <SCORE.SYSTEM.norm>
0

>  <SCORE.heavy>
26

>  <SCORE.norm>
-0.552204

>  <RMSD>
8.175

$$$$
ligand
 OpenBabel11021811473D
libRbt.so/2013.1/901 2013/11/27
 26 27  0  0  0  0  0  0  0  0999 V2000
   -7.6359  -11.7425   18.1540 C   0  0  0  0  0  0  0  0  0  0  0  0
   -3.9946  -12.2088   15.6851 C   0  0  0  0  0  0  0  0  0  0  0  0
   -5.3823  -12.1398   15.6194 C   0  0  0  0  0  0  0  0  0  0  0  0
   -6.1675  -10.8347   15.7710 C   0  0  0  0  0  0  0  0  0  0  0  0
   -6.5946  -10.6199   18.1838 C   0  0  1  0  0  0  0  0  0  0  0  0
   -3.4472  -15.9279   15.0513 C   0  0  0  0  0  0  0  0  0  0  0  0
   -4.1317  -14.5771   15.2658 C   0  0  0  0  0  0  0  0  0  0  0  0
   -6.0835  -13.3174   15.3807 C   0  0  0  0  0  0  0  0  0  0  0  0
   -5.0344   -9.2563   17.2405 C   0  0  0  0  0  0  0  0  0  0  0  0
   -6.2616   -9.9524   19.3564 C   0  0  2  0  0  0  0  0  0  0  0  0
   -6.7695  -10.1284   20.7898 C   0  0  0  0  0  0  0  0  0  0  0  0
   -5.6891  -10.6374   21.7468 C   0  0  0  0  0  0  0  0  0  0  0  0
   -3.3540  -13.4367   15.5070 N   0  0  0  0  0  0  0  0  0  0  0  0
   -5.9357  -10.2279   17.0897 N   0  0  0  0  0  0  0  0  0  0  0  0
   -5.4674  -14.4728   15.2134 N   0  0  0  0  0  0  0  0  0  0  0  0
   -3.3301  -11.1940   15.8955 O   0  0  0  0  0  0  0  0  0  0  0  0
   -4.3631  -13.0814   23.4080 O   0  5  0  0  0  0  0  0  0  0  0  0
   -3.0729  -12.2844   19.1268 O   0  0  0  0  0  0  0  0  0  0  0  0
   -5.0887  -11.8471   21.2739 O   0  0  0  0  0  0  0  0  0  0  0  0
   -3.3969  -13.7988   21.1628 O   0  0  0  0  0  0  0  0  0  0  0  0
   -2.5817  -14.8165   18.9294 O   0  5  0  0  0  0  0  0  0  0  0  0
   -2.6980  -11.5383   22.1719 O   0  0  0  0  0  0  0  0  0  0  0  0
   -4.9954  -13.9792   19.1761 O   0  0  0  0  0  0  0  0  0  0  0  0
   -5.0889   -8.7458   18.9070 S   0  0  0  0  0  0  0  0  0  0  0  0
   -3.8142  -12.4985   22.0118 P   0  0  2  0  0  0  0  0  0  0  0  0
   -3.4446  -13.7904   19.5562 P   0  0  2  0  0  0  0  0  0  0  0  0
  2 16  2  0  0  0  0
  2  3  1  0  0  0  0
  2 13  1  0  0  0  0
  3  8  2  0  0  0  0
  3  4  1  0  0  0  0
  4 14  1  0  0  0  0
  5  1  1  1  0  0  0
  5 14  1  0  0  0  0
  5 10  1  0  0  0  0
  6  7  1  0  0  0  0
  7 13  1  0  0  0  0
  7 15  2  0  0  0  0
  8 15  1  0  0  0  0
  9 14  1  0  0  0  0
  9 24  1  0  0  0  0
 10 24  1  0  0  0  0
 10 11  1  6  0  0  0
 11 12  1  0  0  0  0
 12 19  1  0  0  0  0
 17 25  1  0  0  0  0
 19 25  1  0  0  0  0
 20 26  1  0  0  0  0
 21 26  1  0  0  0  0
 22 25  2  0  0  0  0
 23 26  2  0  0  0  0
 25 20  1  6  0  0  0
 26 18  1  6  0  0  0
M  CHG  2  17  -1  21  -1
M  END
>  <CHROM.1>
-61.07490740,113.89662660,-54.57320920,-82.05938616,173.08221396,151.46745616
71.01078892,33.05742237,-4.62865384,-12.17001660,18.70487387,1.66331636,1.05336007
-1.86291053

>  <Name>
ligand

>  <RI>
0

>  <Rbt.Current_Directory>
/home/itssahil/PROJECTS/Mol_Feturizer/New_Systems/rnas/3D2X

>  <Rbt.Executable>
rbdock ($Id: //depot/dev/client3/rdock/2013.1/src/exe/rbdock.cxx#4 $)

>  <Rbt.Library>
libRbt.so (2013.1, Build901 2013/11/27)

>  <Rbt.Parameter_File>
/export/apps/rDock/src/rDock_2013.1_src/data/scripts/dock_solv.prm

>  <Rbt.Receptor>
prm/pocket_docking_7.prm

>  <SCORE>
-12.9773

>  <SCORE.INTER>
-8.56986

>  <SCORE.INTER.CONST>
1

>  <SCORE.INTER.POLAR>
0

>  <SCORE.INTER.ROT>
8

>  <SCORE.INTER.SOLV>
5.36032

>  <SCORE.INTER.VDW>
-16.4333

>  <SCORE.INTER.norm>
-0.32961

>  <SCORE.INTRA>
-4.40745

>  <SCORE.INTRA.DIHEDRAL>
-0.682779

>  <SCORE.INTRA.DIHEDRAL.0>
7.88077

>  <SCORE.INTRA.POLAR>
0

>  <SCORE.INTRA.POLAR.0>
0

>  <SCORE.INTRA.REPUL>
0

>  <SCORE.INTRA.REPUL.0>
0

>  <SCORE.INTRA.SOLV>
-0.928946

>  <SCORE.INTRA.SOLV.lig_0>
-63.2542

>  <SCORE.INTRA.VDW>
-3.60158

>  <SCORE.INTRA.VDW.0>
-3.15072

>  <SCORE.INTRA.norm>
-0.169517

>  <SCORE.RESTR>
0

>  <SCORE.RESTR.CAVITY>
0

>  <SCORE.RESTR.norm>
0

>  <SCORE.SYSTEM>
0

>  <SCORE.SYSTEM.CONST>
0

>  <SCORE.SYSTEM.DIHEDRAL>
0

>  <SCORE.SYSTEM.SOLV>
0

>  <SCORE.SYSTEM.norm>
0

>  <SCORE.heavy>
26

>  <SCORE.norm>
-0.499127

>  <RMSD>
8.190

$$$$
ligand
 OpenBabel11021811473D
libRbt.so/2013.1/901 2013/11/27
 26 27  0  0  0  0  0  0  0  0999 V2000
   -7.3959  -12.2653   16.5673 C   0  0  0  0  0  0  0  0  0  0  0  0
   -5.7241  -15.3744   14.9310 C   0  0  0  0  0  0  0  0  0  0  0  0
   -5.2145  -14.2200   15.5161 C   0  0  0  0  0  0  0  0  0  0  0  0
   -5.1314  -12.8752   14.7900 C   0  0  0  0  0  0  0  0  0  0  0  0
   -6.0923  -11.4614   16.5585 C   0  0  1  0  0  0  0  0  0  0  0  0
   -5.4202  -17.8251   17.8351 C   0  0  0  0  0  0  0  0  0  0  0  0
   -5.3389  -16.5464   17.0001 C   0  0  0  0  0  0  0  0  0  0  0  0
   -4.7814  -14.2943   16.8361 C   0  0  0  0  0  0  0  0  0  0  0  0
   -3.9798  -11.0045   15.8431 C   0  0  0  0  0  0  0  0  0  0  0  0
   -5.8851  -10.3813   17.4082 C   0  0  2  0  0  0  0  0  0  0  0  0
   -6.7858   -9.7596   18.4785 C   0  0  0  0  0  0  0  0  0  0  0  0
   -6.4684  -10.2609   19.8893 C   0  0  0  0  0  0  0  0  0  0  0  0
   -5.7912  -16.5548   15.6739 N   0  0  0  0  0  0  0  0  0  0  0  0
   -5.0746  -11.7602   15.7462 N   0  0  0  0  0  0  0  0  0  0  0  0
   -4.8500  -15.4156   17.5293 N   0  0  0  0  0  0  0  0  0  0  0  0
   -6.1186  -15.3592   13.7648 O   0  0  0  0  0  0  0  0  0  0  0  0
   -7.1078  -11.5879   22.6166 O   0  5  0  0  0  0  0  0  0  0  0  0
   -5.6742   -7.5149   21.1570 O   0  0  0  0  0  0  0  0  0  0  0  0
   -7.3819   -9.7349   20.8571 O   0  0  0  0  0  0  0  0  0  0  0  0
   -5.6993   -9.4734   22.8023 O   0  0  0  0  0  0  0  0  0  0  0  0
   -5.9472   -7.0563   23.6882 O   0  5  0  0  0  0  0  0  0  0  0  0
   -8.2283   -9.3477   23.2552 O   0  0  0  0  0  0  0  0  0  0  0  0
   -3.7023   -7.8783   22.7540 O   0  0  0  0  0  0  0  0  0  0  0  0
   -4.3070   -9.7571   17.0169 S   0  0  0  0  0  0  0  0  0  0  0  0
   -7.1767   -9.9903   22.4338 P   0  0  2  0  0  0  0  0  0  0  0  0
   -5.3074   -7.9201   22.6709 P   0  0  2  0  0  0  0  0  0  0  0  0
  2 16  2  0  0  0  0
  2  3  1  0  0  0  0
  2 13  1  0  0  0  0
  3  8  2  0  0  0  0
  3  4  1  0  0  0  0
  4 14  1  0  0  0  0
  5  1  1  1  0  0  0
  5 14  1  0  0  0  0
  5 10  1  0  0  0  0
  6  7  1  0  0  0  0
  7 13  1  0  0  0  0
  7 15  2  0  0  0  0
  8 15  1  0  0  0  0
  9 14  1  0  0  0  0
  9 24  1  0  0  0  0
 10 24  1  0  0  0  0
 10 11  1  6  0  0  0
 11 12  1  0  0  0  0
 12 19  1  0  0  0  0
 17 25  1  0  0  0  0
 19 25  1  0  0  0  0
 20 26  1  0  0  0  0
 21 26  1  0  0  0  0
 22 25  2  0  0  0  0
 23 26  2  0  0  0  0
 25 20  1  1  0  0  0
 26 18  1  6  0  0  0
M  CHG  2  17  -1  21  -1
M  END
>  <CHROM.1>
157.38260386,96.99525416,-176.03818074,-65.54442965,-173.77089578,176.63107211
-55.98956989,-54.43183168,-5.80081388,-11.33019602,19.02610397,-1.35932677
1.23613160,0.62769131

>  <Name>
ligand

>  <RI>
0

>  <Rbt.Current_Directory>
/home/itssahil/PROJECTS/Mol_Feturizer/New_Systems/rnas/3D2X

>  <Rbt.Executable>
rbdock ($Id: //depot/dev/client3/rdock/2013.1/src/exe/rbdock.cxx#4 $)

>  <Rbt.Library>
libRbt.so (2013.1, Build901 2013/11/27)

>  <Rbt.Parameter_File>
/export/apps/rDock/src/rDock_2013.1_src/data/scripts/dock_solv.prm

>  <Rbt.Receptor>
prm/pocket_docking_7.prm

>  <SCORE>
-20.1664

>  <SCORE.INTER>
-17.2289

>  <SCORE.INTER.CONST>
1

>  <SCORE.INTER.POLAR>
0

>  <SCORE.INTER.ROT>
8

>  <SCORE.INTER.SOLV>
11.3419

>  <SCORE.INTER.VDW>
-24.1999

>  <SCORE.INTER.norm>
-0.662648

>  <SCORE.INTRA>
-2.93753

>  <SCORE.INTRA.DIHEDRAL>
-2.34505

>  <SCORE.INTRA.DIHEDRAL.0>
7.88077

>  <SCORE.INTRA.POLAR>
0

>  <SCORE.INTRA.POLAR.0>
0

>  <SCORE.INTRA.REPUL>
0

>  <SCORE.INTRA.REPUL.0>
0

>  <SCORE.INTRA.SOLV>
-2.7208

>  <SCORE.INTRA.SOLV.lig_0>
-63.2542

>  <SCORE.INTRA.VDW>
-0.4046

>  <SCORE.INTRA.VDW.0>
-3.15072

>  <SCORE.INTRA.norm>
-0.112982

>  <SCORE.RESTR>
0

>  <SCORE.RESTR.CAVITY>
0

>  <SCORE.RESTR.norm>
0

>  <SCORE.SYSTEM>
0

>  <SCORE.SYSTEM.CONST>
0

>  <SCORE.SYSTEM.DIHEDRAL>
0

>  <SCORE.SYSTEM.SOLV>
0

>  <SCORE.SYSTEM.norm>
0

>  <SCORE.heavy>
26

>  <SCORE.norm>
-0.77563

>  <RMSD>
8.190

$$$$
ligand
 OpenBabel11021811473D
libRbt.so/2013.1/901 2013/11/27
 26 27  0  0  0  0  0  0  0  0999 V2000
    0.4423  -14.9165   20.4679 C   0  0  0  0  0  0  0  0  0  0  0  0
   -2.1727  -17.8794   17.4216 C   0  0  0  0  0  0  0  0  0  0  0  0
   -1.7644  -16.6718   17.9779 C   0  0  0  0  0  0  0  0  0  0  0  0
   -0.3230  -16.1608   17.9136 C   0  0  0  0  0  0  0  0  0  0  0  0
    0.0668  -14.1131   19.2193 C   0  0  1  0  0  0  0  0  0  0  0  0
   -5.8989  -17.7956   18.2223 C   0  0  0  0  0  0  0  0  0  0  0  0
   -4.4221  -17.4058   18.1420 C   0  0  0  0  0  0  0  0  0  0  0  0
   -2.7253  -15.8835   18.6031 C   0  0  0  0  0  0  0  0  0  0  0  0
   -0.5570  -13.8986   17.0403 C   0  0  0  0  0  0  0  0  0  0  0  0
    0.0723  -12.7234   19.2061 C   0  0  2  0  0  0  0  0  0  0  0  0
    0.4216  -11.7111   20.2999 C   0  0  0  0  0  0  0  0  0  0  0  0
   -0.7097  -10.7182   20.5766 C   0  0  0  0  0  0  0  0  0  0  0  0
   -3.5145  -18.2582   17.4994 N   0  0  0  0  0  0  0  0  0  0  0  0
   -0.2722  -14.6998   18.0679 N   0  0  0  0  0  0  0  0  0  0  0  0
   -3.9913  -16.2513   18.6703 N   0  0  0  0  0  0  0  0  0  0  0  0
   -1.3590  -18.6123   16.8589 O   0  0  0  0  0  0  0  0  0  0  0  0
   -2.2844  -10.9197   23.4548 O   0  5  0  0  0  0  0  0  0  0  0  0
   -2.9319  -14.6883   24.1035 O   0  0  0  0  0  0  0  0  0  0  0  0
   -1.9191  -11.3837   20.9537 O   0  0  0  0  0  0  0  0  0  0  0  0
   -3.4738  -12.8914   22.3654 O   0  0  0  0  0  0  0  0  0  0  0  0
   -4.3834  -12.6550   24.7748 O   0  5  0  0  0  0  0  0  0  0  0  0
   -0.9256  -12.9863   22.7035 O   0  0  0  0  0  0  0  0  0  0  0  0
   -5.3187  -14.4522   23.1990 O   0  0  0  0  0  0  0  0  0  0  0  0
   -0.4595  -12.2552   17.6151 S   0  0  0  0  0  0  0  0  0  0  0  0
   -2.0719  -12.1040   22.3858 P   0  0  2  0  0  0  0  0  0  0  0  0
   -4.0450  -13.6021   23.6891 P   0  0  2  0  0  0  0  0  0  0  0  0
  2 16  2  0  0  0  0
  2  3  1  0  0  0  0
  2 13  1  0  0  0  0
  3  8  2  0  0  0  0
  3  4  1  0  0  0  0
  4 14  1  0  0  0  0
  5  1  1  6  0  0  0
  5 14  1  0  0  0  0
  5 10  1  0  0  0  0
  6  7  1  0  0  0  0
  7 13  1  0  0  0  0
  7 15  2  0  0  0  0
  8 15  1  0  0  0  0
  9 14  1  0  0  0  0
  9 24  1  0  0  0  0
 10 24  1  0  0  0  0
 10 11  1  1  0  0  0
 11 12  1  0  0  0  0
 12 19  1  0  0  0  0
 17 25  1  0  0  0  0
 19 25  1  0  0  0  0
 20 26  1  0  0  0  0
 21 26  1  0  0  0  0
 22 25  2  0  0  0  0
 23 26  2  0  0  0  0
 25 20  1  6  0  0  0
 26 18  1  1  0  0  0
M  CHG  2  17  -1  21  -1
M  END
>  <CHROM.1>
156.94974537,-123.98093717,57.74488692,101.45931243,71.37148326,-61.18312743
75.96653883,-60.06540300,-2.14975373,-14.16526566,20.33344635,-1.44985941
0.71992181,0.82711965

>  <Name>
ligand

>  <RI>
0

>  <Rbt.Current_Directory>
/home/itssahil/PROJECTS/Mol_Feturizer/New_Systems/rnas/3D2X

>  <Rbt.Executable>
rbdock ($Id: //depot/dev/client3/rdock/2013.1/src/exe/rbdock.cxx#4 $)

>  <Rbt.Library>
libRbt.so (2013.1, Build901 2013/11/27)

>  <Rbt.Parameter_File>
/export/apps/rDock/src/rDock_2013.1_src/data/scripts/dock_solv.prm

>  <Rbt.Receptor>
prm/pocket_docking_6.prm

>  <SCORE>
-14.0679

>  <SCORE.INTER>
-12.8172

>  <SCORE.INTER.CONST>
1

>  <SCORE.INTER.POLAR>
0

>  <SCORE.INTER.ROT>
8

>  <SCORE.INTER.SOLV>
9.7449

>  <SCORE.INTER.VDW>
-20.7264

>  <SCORE.INTER.norm>
-0.492968

>  <SCORE.INTRA>
-1.25075

>  <SCORE.INTRA.DIHEDRAL>
-1.7

>  <SCORE.INTRA.DIHEDRAL.0>
7.88077

>  <SCORE.INTRA.POLAR>
0

>  <SCORE.INTRA.POLAR.0>
0

>  <SCORE.INTRA.REPUL>
0

>  <SCORE.INTRA.REPUL.0>
0

>  <SCORE.INTRA.SOLV>
0.885918

>  <SCORE.INTRA.SOLV.lig_0>
-63.2542

>  <SCORE.INTRA.VDW>
-0.843713

>  <SCORE.INTRA.VDW.0>
-3.15072

>  <SCORE.INTRA.norm>
-0.0481059

>  <SCORE.RESTR>
0

>  <SCORE.RESTR.CAVITY>
0

>  <SCORE.RESTR.norm>
0

>  <SCORE.SYSTEM>
0

>  <SCORE.SYSTEM.CONST>
0

>  <SCORE.SYSTEM.DIHEDRAL>
0

>  <SCORE.SYSTEM.SOLV>
0

>  <SCORE.SYSTEM.norm>
0

>  <SCORE.heavy>
26

>  <SCORE.norm>
-0.541074

>  <RMSD>
8.211

$$$$
ligand
 OpenBabel11021811473D
libRbt.so/2013.1/901 2013/11/27
 26 27  0  0  0  0  0  0  0  0999 V2000
   -2.8512  -15.0622   15.8269 C   0  0  0  0  0  0  0  0  0  0  0  0
   -1.6707  -14.9759   20.2253 C   0  0  0  0  0  0  0  0  0  0  0  0
   -0.5806  -14.8983   19.3649 C   0  0  0  0  0  0  0  0  0  0  0  0
   -0.7098  -14.9165   17.8399 C   0  0  0  0  0  0  0  0  0  0  0  0
   -2.3548  -13.7468   16.4343 C   0  0  1  0  0  0  0  0  0  0  0  0
    0.0810  -14.7169   23.6012 C   0  0  0  0  0  0  0  0  0  0  0  0
   -0.1601  -14.7935   22.0929 C   0  0  0  0  0  0  0  0  0  0  0  0
    0.6863  -14.7753   19.9266 C   0  0  0  0  0  0  0  0  0  0  0  0
   -1.0507  -12.5044   17.8267 C   0  0  0  0  0  0  0  0  0  0  0  0
   -2.8970  -12.5178   16.0778 C   0  0  2  0  0  0  0  0  0  0  0  0
   -4.0193  -12.1623   15.0993 C   0  0  0  0  0  0  0  0  0  0  0  0
   -5.3891  -12.0616   15.7744 C   0  0  0  0  0  0  0  0  0  0  0  0
   -1.4675  -14.9231   21.6058 N   0  0  0  0  0  0  0  0  0  0  0  0
   -1.3844  -13.7051   17.3516 N   0  0  0  0  0  0  0  0  0  0  0  0
    0.8667  -14.7259   21.2333 N   0  0  0  0  0  0  0  0  0  0  0  0
   -2.8116  -15.0868   19.7761 O   0  0  0  0  0  0  0  0  0  0  0  0
   -7.7497  -12.0493   17.4495 O   0  5  0  0  0  0  0  0  0  0  0  0
   -6.7525  -13.6902   19.3262 O   0  0  0  0  0  0  0  0  0  0  0  0
   -5.3221  -11.3332   17.0042 O   0  0  0  0  0  0  0  0  0  0  0  0
   -6.3363  -11.1667   19.3764 O   0  0  0  0  0  0  0  0  0  0  0  0
   -4.3343  -12.7960   19.5375 O   0  5  0  0  0  0  0  0  0  0  0  0
   -7.0994   -9.5488   17.5280 O   0  0  0  0  0  0  0  0  0  0  0  0
   -5.9807  -12.5568   21.4920 O   0  0  0  0  0  0  0  0  0  0  0  0
   -2.0033  -11.3199   16.9720 S   0  0  0  0  0  0  0  0  0  0  0  0
   -6.6525  -10.9307   17.8175 P   0  0  2  0  0  0  0  0  0  0  0  0
   -5.7509  -12.5688   19.9007 P   0  0  2  0  0  0  0  0  0  0  0  0
  2 16  2  0  0  0  0
  2  3  1  0  0  0  0
  2 13  1  0  0  0  0
  3  8  2  0  0  0  0
  3  4  1  0  0  0  0
  4 14  1  0  0  0  0
  5  1  1  1  0  0  0
  5 14  1  0  0  0  0
  5 10  1  0  0  0  0
  6  7  1  0  0  0  0
  7 13  1  0  0  0  0
  7 15  2  0  0  0  0
  8 15  1  0  0  0  0
  9 14  1  0  0  0  0
  9 24  1  0  0  0  0
 10 24  1  0  0  0  0
 10 11  1  6  0  0  0
 11 12  1  0  0  0  0
 12 19  1  0  0  0  0
 17 25  1  0  0  0  0
 19 25  1  0  0  0  0
 20 26  1  0  0  0  0
 21 26  1  0  0  0  0
 22 25  2  0  0  0  0
 23 26  2  0  0  0  0
 25 20  1  1  0  0  0
 26 18  1  6  0  0  0
M  CHG  2  17  -1  21  -1
M  END
>  <CHROM.1>
66.88242621,93.21081802,44.52334523,-134.58259322,172.41167474,60.00961924
27.78842343,-52.52360740,-3.56543419,-12.95891339,18.65590809,-0.51333810
0.39616619,-1.31960458

>  <Name>
ligand

>  <RI>
0

>  <Rbt.Current_Directory>
/home/itssahil/PROJECTS/Mol_Feturizer/New_Systems/rnas/3D2X

>  <Rbt.Executable>
rbdock ($Id: //depot/dev/client3/rdock/2013.1/src/exe/rbdock.cxx#4 $)

>  <Rbt.Library>
libRbt.so (2013.1, Build901 2013/11/27)

>  <Rbt.Parameter_File>
/export/apps/rDock/src/rDock_2013.1_src/data/scripts/dock_solv.prm

>  <Rbt.Receptor>
prm/pocket_docking_7.prm

>  <SCORE>
-12.9

>  <SCORE.INTER>
-11.3043

>  <SCORE.INTER.CONST>
1

>  <SCORE.INTER.POLAR>
0

>  <SCORE.INTER.ROT>
8

>  <SCORE.INTER.SOLV>
11.4051

>  <SCORE.INTER.VDW>
-20.2712

>  <SCORE.INTER.norm>
-0.434779

>  <SCORE.INTRA>
-1.5957

>  <SCORE.INTRA.DIHEDRAL>
0.113394

>  <SCORE.INTRA.DIHEDRAL.0>
7.88077

>  <SCORE.INTRA.POLAR>
0

>  <SCORE.INTRA.POLAR.0>
0

>  <SCORE.INTRA.REPUL>
0

>  <SCORE.INTRA.REPUL.0>
0

>  <SCORE.INTRA.SOLV>
0.580832

>  <SCORE.INTRA.SOLV.lig_0>
-63.2542

>  <SCORE.INTRA.VDW>
-1.94281

>  <SCORE.INTRA.VDW.0>
-3.15072

>  <SCORE.INTRA.norm>
-0.0613731

>  <SCORE.RESTR>
0

>  <SCORE.RESTR.CAVITY>
0

>  <SCORE.RESTR.norm>
0

>  <SCORE.SYSTEM>
0

>  <SCORE.SYSTEM.CONST>
0

>  <SCORE.SYSTEM.DIHEDRAL>
0

>  <SCORE.SYSTEM.SOLV>
0

>  <SCORE.SYSTEM.norm>
0

>  <SCORE.heavy>
26

>  <SCORE.norm>
-0.496152

>  <RMSD>
8.221

$$$$
ligand
 OpenBabel11021811473D
libRbt.so/2013.1/901 2013/11/27
 26 27  0  0  0  0  0  0  0  0999 V2000
   -7.4278  -12.3858   17.9666 C   0  0  0  0  0  0  0  0  0  0  0  0
   -3.3589  -13.6599   15.7535 C   0  0  0  0  0  0  0  0  0  0  0  0
   -4.6081  -13.0507   15.6979 C   0  0  0  0  0  0  0  0  0  0  0  0
   -4.9613  -11.7830   16.4795 C   0  0  0  0  0  0  0  0  0  0  0  0
   -6.0475  -12.3012   18.6247 C   0  0  1  0  0  0  0  0  0  0  0  0
   -3.8745  -16.5408   13.3108 C   0  0  0  0  0  0  0  0  0  0  0  0
   -4.1335  -15.3040   14.1724 C   0  0  0  0  0  0  0  0  0  0  0  0
   -5.5730  -13.6156   14.8699 C   0  0  0  0  0  0  0  0  0  0  0  0
   -3.7900  -12.0065   18.6039 C   0  0  0  0  0  0  0  0  0  0  0  0
   -5.8636  -12.5163   19.9853 C   0  0  2  0  0  0  0  0  0  0  0  0
   -6.8638  -12.8674   21.0897 C   0  0  0  0  0  0  0  0  0  0  0  0
   -6.3426  -13.9422   22.0464 C   0  0  0  0  0  0  0  0  0  0  0  0
   -3.1100  -14.7991   14.9853 N   0  0  0  0  0  0  0  0  0  0  0  0
   -4.9398  -12.0314   17.9282 N   0  0  0  0  0  0  0  0  0  0  0  0
   -5.3265  -14.6926   14.1475 N   0  0  0  0  0  0  0  0  0  0  0  0
   -2.4727  -13.1981   16.4726 O   0  0  0  0  0  0  0  0  0  0  0  0
   -7.6121  -15.3316   19.5901 O   0  5  0  0  0  0  0  0  0  0  0  0
   -5.4503  -15.2434   17.7878 O   0  0  0  0  0  0  0  0  0  0  0  0
   -5.7541  -15.0397   21.3414 O   0  0  0  0  0  0  0  0  0  0  0  0
   -5.6778  -16.9884   19.6443 O   0  0  0  0  0  0  0  0  0  0  0  0
   -3.5088  -15.5916   19.4616 O   0  5  0  0  0  0  0  0  0  0  0  0
   -7.4037  -17.0022   21.5515 O   0  0  0  0  0  0  0  0  0  0  0  0
   -4.0520  -17.3905   17.7131 O   0  0  0  0  0  0  0  0  0  0  0  0
   -4.1654  -12.2730   20.2858 S   0  0  0  0  0  0  0  0  0  0  0  0
   -6.6592  -16.1459   20.5998 P   0  0  2  0  0  0  0  0  0  0  0  0
   -4.5983  -16.2520   18.7084 P   0  0  2  0  0  0  0  0  0  0  0  0
  2 16  2  0  0  0  0
  2  3  1  0  0  0  0
  2 13  1  0  0  0  0
  3  8  2  0  0  0  0
  3  4  1  0  0  0  0
  4 14  1  0  0  0  0
  5  1  1  6  0  0  0
  5 14  1  0  0  0  0
  5 10  1  0  0  0  0
  6  7  1  0  0  0  0
  7 13  1  0  0  0  0
  7 15  2  0  0  0  0
  8 15  1  0  0  0  0
  9 14  1  0  0  0  0
  9 24  1  0  0  0  0
 10 24  1  0  0  0  0
 10 11  1  1  0  0  0
 11 12  1  0  0  0  0
 12 19  1  0  0  0  0
 17 25  1  0  0  0  0
 19 25  1  0  0  0  0
 20 26  1  0  0  0  0
 21 26  1  0  0  0  0
 22 25  2  0  0  0  0
 23 26  2  0  0  0  0
 25 20  1  6  0  0  0
 26 18  1  6  0  0  0
M  CHG  2  17  -1  21  -1
M  END
>  <CHROM.1>
-65.41110947,137.21463991,-46.14682706,-97.10640207,-76.07309594,66.50506978
55.39623399,-57.15510890,-5.15429761,-14.46226326,18.33245656,-3.00115027
-1.20142282,-2.90218012

>  <Name>
ligand

>  <RI>
0

>  <Rbt.Current_Directory>
/home/itssahil/PROJECTS/Mol_Feturizer/New_Systems/rnas/3D2X

>  <Rbt.Executable>
rbdock ($Id: //depot/dev/client3/rdock/2013.1/src/exe/rbdock.cxx#4 $)

>  <Rbt.Library>
libRbt.so (2013.1, Build901 2013/11/27)

>  <Rbt.Parameter_File>
/export/apps/rDock/src/rDock_2013.1_src/data/scripts/dock_solv.prm

>  <Rbt.Receptor>
prm/pocket_docking_7.prm

>  <SCORE>
-11.5955

>  <SCORE.INTER>
-7.36231

>  <SCORE.INTER.CONST>
1

>  <SCORE.INTER.POLAR>
0

>  <SCORE.INTER.ROT>
8

>  <SCORE.INTER.SOLV>
14.0558

>  <SCORE.INTER.VDW>
-18.5268

>  <SCORE.INTER.norm>
-0.283166

>  <SCORE.INTRA>
-4.23319

>  <SCORE.INTRA.DIHEDRAL>
-0.543018

>  <SCORE.INTRA.DIHEDRAL.0>
7.88077

>  <SCORE.INTRA.POLAR>
0

>  <SCORE.INTRA.POLAR.0>
0

>  <SCORE.INTRA.REPUL>
0

>  <SCORE.INTRA.REPUL.0>
0

>  <SCORE.INTRA.SOLV>
1.1112

>  <SCORE.INTRA.SOLV.lig_0>
-63.2542

>  <SCORE.INTRA.VDW>
-4.51729

>  <SCORE.INTRA.VDW.0>
-3.15072

>  <SCORE.INTRA.norm>
-0.162815

>  <SCORE.RESTR>
0

>  <SCORE.RESTR.CAVITY>
0

>  <SCORE.RESTR.norm>
0

>  <SCORE.SYSTEM>
0

>  <SCORE.SYSTEM.CONST>
0

>  <SCORE.SYSTEM.DIHEDRAL>
0

>  <SCORE.SYSTEM.SOLV>
0

>  <SCORE.SYSTEM.norm>
0

>  <SCORE.heavy>
26

>  <SCORE.norm>
-0.445981

>  <RMSD>
8.265

$$$$
ligand
 OpenBabel11021811473D
libRbt.so/2013.1/901 2013/11/27
 26 27  0  0  0  0  0  0  0  0999 V2000
   -3.5176  -16.3560   17.5990 C   0  0  0  0  0  0  0  0  0  0  0  0
   -6.8048  -15.7423   21.4758 C   0  0  0  0  0  0  0  0  0  0  0  0
   -7.0543  -16.1489   20.1692 C   0  0  0  0  0  0  0  0  0  0  0  0
   -6.0609  -15.9493   19.0220 C   0  0  0  0  0  0  0  0  0  0  0  0
   -4.6021  -17.4319   17.7090 C   0  0  1  0  0  0  0  0  0  0  0  0
   -9.9867  -16.9379   23.2016 C   0  0  0  0  0  0  0  0  0  0  0  0
   -8.9429  -16.6438   22.1232 C   0  0  0  0  0  0  0  0  0  0  0  0
   -8.2608  -16.7890   19.9043 C   0  0  0  0  0  0  0  0  0  0  0  0
   -6.6082  -18.2443   18.4151 C   0  0  0  0  0  0  0  0  0  0  0  0
   -4.4511  -18.6930   17.1449 C   0  0  2  0  0  0  0  0  0  0  0  0
   -3.2935  -19.3054   16.3523 C   0  0  0  0  0  0  0  0  0  0  0  0
   -3.5477  -19.3229   14.8432 C   0  0  0  0  0  0  0  0  0  0  0  0
   -7.7537  -15.9889   22.4701 N   0  0  0  0  0  0  0  0  0  0  0  0
   -5.7475  -17.2266   18.3653 N   0  0  0  0  0  0  0  0  0  0  0  0
   -9.1506  -17.0174   20.8524 N   0  0  0  0  0  0  0  0  0  0  0  0
   -5.7519  -15.1706   21.7595 O   0  0  0  0  0  0  0  0  0  0  0  0
   -4.1013  -20.9599   12.1808 O   0  5  0  0  0  0  0  0  0  0  0  0
   -2.2331  -23.8316   15.8969 O   0  0  0  0  0  0  0  0  0  0  0  0
   -4.7209  -20.0721   14.5116 O   0  0  0  0  0  0  0  0  0  0  0  0
   -3.4511  -22.3079   14.2422 O   0  0  0  0  0  0  0  0  0  0  0  0
   -3.9066  -22.0659   16.7765 O   0  5  0  0  0  0  0  0  0  0  0  0
   -5.9297  -22.1406   13.5751 O   0  0  0  0  0  0  0  0  0  0  0  0
   -4.7475  -24.1226   15.4915 O   0  0  0  0  0  0  0  0  0  0  0  0
   -5.9310  -19.5491   17.4771 S   0  0  0  0  0  0  0  0  0  0  0  0
   -4.6394  -21.4156   13.6276 P   0  0  2  0  0  0  0  0  0  0  0  0
   -3.6008  -23.0113   15.6797 P   0  0  2  0  0  0  0  0  0  0  0  0
  2 16  2  0  0  0  0
  2  3  1  0  0  0  0
  2 13  1  0  0  0  0
  3  8  2  0  0  0  0
  3  4  1  0  0  0  0
  4 14  1  0  0  0  0
  5  1  1  1  0  0  0
  5 14  1  0  0  0  0
  5 10  1  0  0  0  0
  6  7  1  0  0  0  0
  7 13  1  0  0  0  0
  7 15  2  0  0  0  0
  8 15  1  0  0  0  0
  9 14  1  0  0  0  0
  9 24  1  0  0  0  0
 10 24  1  0  0  0  0
 10 11  1  6  0  0  0
 11 12  1  0  0  0  0
 12 19  1  0  0  0  0
 17 25  1  0  0  0  0
 19 25  1  0  0  0  0
 20 26  1  0  0  0  0
 21 26  1  0  0  0  0
 22 25  2  0  0  0  0
 23 26  2  0  0  0  0
 25 20  1  1  0  0  0
 26 18  1  1  0  0  0
M  CHG  2  17  -1  21  -1
M  END
>  <CHROM.1>
124.14749832,-101.38466374,-59.44056150,-154.63017241,-116.12691406,-177.92776771
-64.16836371,178.27627832,-5.39040193,-19.37134658,17.33636904,-2.20124132
-0.87028414,-2.79900364

>  <Name>
ligand

>  <RI>
0

>  <Rbt.Current_Directory>
/home/itssahil/PROJECTS/Mol_Feturizer/New_Systems/rnas/3D2X

>  <Rbt.Executable>
rbdock ($Id: //depot/dev/client3/rdock/2013.1/src/exe/rbdock.cxx#4 $)

>  <Rbt.Library>
libRbt.so (2013.1, Build901 2013/11/27)

>  <Rbt.Parameter_File>
/export/apps/rDock/src/rDock_2013.1_src/data/scripts/dock_solv.prm

>  <Rbt.Receptor>
prm/blind_docking_60.prm

>  <SCORE>
-9.84333

>  <SCORE.INTER>
-13.3508

>  <SCORE.INTER.CONST>
1

>  <SCORE.INTER.POLAR>
0

>  <SCORE.INTER.ROT>
8

>  <SCORE.INTER.SOLV>
16.9227

>  <SCORE.INTER.VDW>
-23.4748

>  <SCORE.INTER.norm>
-0.513493

>  <SCORE.INTRA>
3.19456

>  <SCORE.INTRA.DIHEDRAL>
4.50287

>  <SCORE.INTRA.DIHEDRAL.0>
7.88077

>  <SCORE.INTRA.POLAR>
0

>  <SCORE.INTRA.POLAR.0>
0

>  <SCORE.INTRA.REPUL>
0

>  <SCORE.INTRA.REPUL.0>
0

>  <SCORE.INTRA.SOLV>
1.51887

>  <SCORE.INTRA.SOLV.lig_0>
-63.2542

>  <SCORE.INTRA.VDW>
0.18369

>  <SCORE.INTRA.VDW.0>
-3.15072

>  <SCORE.INTRA.norm>
0.122868

>  <SCORE.RESTR>
0.312922

>  <SCORE.RESTR.CAVITY>
0.312922

>  <SCORE.RESTR.norm>
0.0120355

>  <SCORE.SYSTEM>
0

>  <SCORE.SYSTEM.CONST>
0

>  <SCORE.SYSTEM.DIHEDRAL>
0

>  <SCORE.SYSTEM.SOLV>
0

>  <SCORE.SYSTEM.norm>
0

>  <SCORE.heavy>
26

>  <SCORE.norm>
-0.37859

>  <RMSD>
8.293

$$$$
ligand
 OpenBabel11021811473D
libRbt.so/2013.1/901 2013/11/27
 26 27  0  0  0  0  0  0  0  0999 V2000
   -7.4296  -12.1589   16.6652 C   0  0  0  0  0  0  0  0  0  0  0  0
   -4.4549  -13.8684   17.0611 C   0  0  0  0  0  0  0  0  0  0  0  0
   -4.9536  -13.5922   15.7924 C   0  0  0  0  0  0  0  0  0  0  0  0
   -4.9051  -12.2021   15.1539 C   0  0  0  0  0  0  0  0  0  0  0  0
   -6.3261  -11.1113   16.8395 C   0  0  1  0  0  0  0  0  0  0  0  0
   -5.1325  -17.6134   17.2808 C   0  0  0  0  0  0  0  0  0  0  0  0
   -5.0762  -16.1763   16.7604 C   0  0  0  0  0  0  0  0  0  0  0  0
   -5.5021  -14.6431   15.0641 C   0  0  0  0  0  0  0  0  0  0  0  0
   -4.2863  -10.2014   16.3985 C   0  0  0  0  0  0  0  0  0  0  0  0
   -6.4406  -10.0614   17.7428 C   0  0  2  0  0  0  0  0  0  0  0  0
   -7.5629   -9.6940   18.7169 C   0  0  0  0  0  0  0  0  0  0  0  0
   -7.0445   -9.2961   20.1009 C   0  0  0  0  0  0  0  0  0  0  0  0
   -4.5123  -15.1720   17.5583 N   0  0  0  0  0  0  0  0  0  0  0  0
   -5.1850  -11.1541   16.1460 N   0  0  0  0  0  0  0  0  0  0  0  0
   -5.5507  -15.8719   15.5439 N   0  0  0  0  0  0  0  0  0  0  0  0
   -3.9609  -12.9714   17.7446 O   0  0  0  0  0  0  0  0  0  0  0  0
   -4.4793   -9.5189   21.9614 O   0  5  0  0  0  0  0  0  0  0  0  0
   -9.1775   -9.5947   22.5144 O   0  0  0  0  0  0  0  0  0  0  0  0
   -6.6089  -10.4339   20.8514 O   0  0  0  0  0  0  0  0  0  0  0  0
   -6.7236   -9.2121   23.1269 O   0  0  0  0  0  0  0  0  0  0  0  0
   -8.1366  -10.8896   24.4973 O   0  5  0  0  0  0  0  0  0  0  0  0
   -5.6936  -11.5642   22.9732 O   0  0  0  0  0  0  0  0  0  0  0  0
   -8.5690   -8.3661   24.6803 O   0  0  0  0  0  0  0  0  0  0  0  0
   -4.9908   -9.1130   17.5646 S   0  0  0  0  0  0  0  0  0  0  0  0
   -5.8677  -10.2715   22.2718 P   0  0  2  0  0  0  0  0  0  0  0  0
   -8.1494   -9.6106   23.7527 P   0  0  2  0  0  0  0  0  0  0  0  0
  2 16  2  0  0  0  0
  2  3  1  0  0  0  0
  2 13  1  0  0  0  0
  3  8  2  0  0  0  0
  3  4  1  0  0  0  0
  4 14  1  0  0  0  0
  5  1  1  1  0  0  0
  5 14  1  0  0  0  0
  5 10  1  0  0  0  0
  6  7  1  0  0  0  0
  7 13  1  0  0  0  0
  7 15  2  0  0  0  0
  8 15  1  0  0  0  0
  9 14  1  0  0  0  0
  9 24  1  0  0  0  0
 10 24  1  0  0  0  0
 10 11  1  6  0  0  0
 11 12  1  0  0  0  0
 12 19  1  0  0  0  0
 17 25  1  0  0  0  0
 19 25  1  0  0  0  0
 20 26  1  0  0  0  0
 21 26  1  0  0  0  0
 22 25  2  0  0  0  0
 23 26  2  0  0  0  0
 25 20  1  1  0  0  0
 26 18  1  6  0  0  0
M  CHG  2  17  -1  21  -1
M  END
>  <CHROM.1>
-39.25104947,136.07245312,-74.77483033,-58.86609613,173.02295733,-174.93538669
-64.45524582,-76.05017748,-6.11244268,-11.37843270,19.48501661,-0.32023083
1.27524181,-0.23065738

>  <Name>
ligand

>  <RI>
0

>  <Rbt.Current_Directory>
/home/itssahil/PROJECTS/Mol_Feturizer/New_Systems/rnas/3D2X

>  <Rbt.Executable>
rbdock ($Id: //depot/dev/client3/rdock/2013.1/src/exe/rbdock.cxx#4 $)

>  <Rbt.Library>
libRbt.so (2013.1, Build901 2013/11/27)

>  <Rbt.Parameter_File>
/export/apps/rDock/src/rDock_2013.1_src/data/scripts/dock_solv.prm

>  <Rbt.Receptor>
prm/pocket_docking_7.prm

>  <SCORE>
-18.9648

>  <SCORE.INTER>
-16.633

>  <SCORE.INTER.CONST>
1

>  <SCORE.INTER.POLAR>
0

>  <SCORE.INTER.ROT>
8

>  <SCORE.INTER.SOLV>
9.28903

>  <SCORE.INTER.VDW>
-23.1183

>  <SCORE.INTER.norm>
-0.63973

>  <SCORE.INTRA>
-2.33176

>  <SCORE.INTRA.DIHEDRAL>
-1.36736

>  <SCORE.INTRA.DIHEDRAL.0>
7.88077

>  <SCORE.INTRA.POLAR>
0

>  <SCORE.INTRA.POLAR.0>
0

>  <SCORE.INTRA.REPUL>
0

>  <SCORE.INTRA.REPUL.0>
0

>  <SCORE.INTRA.SOLV>
-2.00964

>  <SCORE.INTRA.SOLV.lig_0>
-63.2542

>  <SCORE.INTRA.VDW>
-0.643263

>  <SCORE.INTRA.VDW.0>
-3.15072

>  <SCORE.INTRA.norm>
-0.0896831

>  <SCORE.RESTR>
0

>  <SCORE.RESTR.CAVITY>
0

>  <SCORE.RESTR.norm>
0

>  <SCORE.SYSTEM>
0

>  <SCORE.SYSTEM.CONST>
0

>  <SCORE.SYSTEM.DIHEDRAL>
0

>  <SCORE.SYSTEM.SOLV>
0

>  <SCORE.SYSTEM.norm>
0

>  <SCORE.heavy>
26

>  <SCORE.norm>
-0.729414

>  <RMSD>
8.299

$$$$
ligand
 OpenBabel11021811473D
libRbt.so/2013.1/901 2013/11/27
 26 27  0  0  0  0  0  0  0  0999 V2000
   -4.7911  -14.8816   16.8893 C   0  0  0  0  0  0  0  0  0  0  0  0
   -0.7429  -13.1362   18.7228 C   0  0  0  0  0  0  0  0  0  0  0  0
   -1.5008  -14.1821   18.2066 C   0  0  0  0  0  0  0  0  0  0  0  0
   -1.9159  -14.2742   16.7363 C   0  0  0  0  0  0  0  0  0  0  0  0
   -4.2404  -13.5168   16.4654 C   0  0  1  0  0  0  0  0  0  0  0  0
   -0.3970  -14.2463   22.3533 C   0  0  0  0  0  0  0  0  0  0  0  0
   -0.7968  -14.2121   20.8774 C   0  0  0  0  0  0  0  0  0  0  0  0
   -1.8773  -15.2040   19.0724 C   0  0  0  0  0  0  0  0  0  0  0  0
   -2.5676  -12.0299   16.0484 C   0  0  0  0  0  0  0  0  0  0  0  0
   -5.0734  -12.4562   16.1296 C   0  0  2  0  0  0  0  0  0  0  0  0
   -6.6003  -12.3510   16.0979 C   0  0  0  0  0  0  0  0  0  0  0  0
   -7.1804  -11.7145   17.3630 C   0  0  0  0  0  0  0  0  0  0  0  0
   -0.3821  -13.1435   20.0717 N   0  0  0  0  0  0  0  0  0  0  0  0
   -2.9302  -13.2619   16.4085 N   0  0  0  0  0  0  0  0  0  0  0  0
   -1.5301  -15.2009   20.3459 N   0  0  0  0  0  0  0  0  0  0  0  0
   -0.3866  -12.2081   17.9964 O   0  0  0  0  0  0  0  0  0  0  0  0
   -8.6092   -9.2292   18.7659 O   0  5  0  0  0  0  0  0  0  0  0  0
   -4.9744  -11.9946   19.3604 O   0  0  0  0  0  0  0  0  0  0  0  0
   -6.6503  -10.4046   17.5888 O   0  0  0  0  0  0  0  0  0  0  0  0
   -6.9348  -10.5556   20.1539 O   0  0  0  0  0  0  0  0  0  0  0  0
   -4.5684  -10.1293   21.1062 O   0  5  0  0  0  0  0  0  0  0  0  0
   -6.1983   -8.3456   19.0630 O   0  0  0  0  0  0  0  0  0  0  0  0
   -5.8703  -12.2459   21.7489 O   0  0  0  0  0  0  0  0  0  0  0  0
   -4.0224  -11.1441   15.6749 S   0  0  0  0  0  0  0  0  0  0  0  0
   -7.0386   -9.5542   18.9000 P   0  0  2  0  0  0  0  0  0  0  0  0
   -5.5186  -11.1551   20.6212 P   0  0  2  0  0  0  0  0  0  0  0  0
  2 16  2  0  0  0  0
  2  3  1  0  0  0  0
  2 13  1  0  0  0  0
  3  8  2  0  0  0  0
  3  4  1  0  0  0  0
  4 14  1  0  0  0  0
  5  1  1  1  0  0  0
  5 14  1  0  0  0  0
  5 10  1  0  0  0  0
  6  7  1  0  0  0  0
  7 13  1  0  0  0  0
  7 15  2  0  0  0  0
  8 15  1  0  0  0  0
  9 14  1  0  0  0  0
  9 24  1  0  0  0  0
 10 24  1  0  0  0  0
 10 11  1  6  0  0  0
 11 12  1  0  0  0  0
 12 19  1  0  0  0  0
 17 25  1  0  0  0  0
 19 25  1  0  0  0  0
 20 26  1  0  0  0  0
 21 26  1  0  0  0  0
 22 25  2  0  0  0  0
 23 26  2  0  0  0  0
 25 20  1  1  0  0  0
 26 18  1  6  0  0  0
M  CHG  2  17  -1  21  -1
M  END
>  <CHROM.1>
-70.75476600,97.40033090,57.93223654,-93.18490687,-176.52346295,178.90216472
-66.03734096,-60.98145047,-4.26587142,-12.03294657,18.60040209,0.01978083
0.60371394,-1.70955478

>  <Name>
ligand

>  <RI>
0

>  <Rbt.Current_Directory>
/home/itssahil/PROJECTS/Mol_Feturizer/New_Systems/rnas/3D2X

>  <Rbt.Executable>
rbdock ($Id: //depot/dev/client3/rdock/2013.1/src/exe/rbdock.cxx#4 $)

>  <Rbt.Library>
libRbt.so (2013.1, Build901 2013/11/27)

>  <Rbt.Parameter_File>
/export/apps/rDock/src/rDock_2013.1_src/data/scripts/dock_solv.prm

>  <Rbt.Receptor>
prm/pocket_docking_6.prm

>  <SCORE>
-14.5775

>  <SCORE.INTER>
-9.79491

>  <SCORE.INTER.CONST>
1

>  <SCORE.INTER.POLAR>
0

>  <SCORE.INTER.ROT>
8

>  <SCORE.INTER.SOLV>
15.6374

>  <SCORE.INTER.VDW>
-20.6757

>  <SCORE.INTER.norm>
-0.376727

>  <SCORE.INTRA>
-4.78254

>  <SCORE.INTRA.DIHEDRAL>
-2.50306

>  <SCORE.INTRA.DIHEDRAL.0>
7.88077

>  <SCORE.INTRA.POLAR>
0

>  <SCORE.INTRA.POLAR.0>
0

>  <SCORE.INTRA.REPUL>
0

>  <SCORE.INTRA.REPUL.0>
0

>  <SCORE.INTRA.SOLV>
-2.66794

>  <SCORE.INTRA.SOLV.lig_0>
-63.2542

>  <SCORE.INTRA.VDW>
-2.19704

>  <SCORE.INTRA.VDW.0>
-3.15072

>  <SCORE.INTRA.norm>
-0.183944

>  <SCORE.RESTR>
0

>  <SCORE.RESTR.CAVITY>
0

>  <SCORE.RESTR.norm>
0

>  <SCORE.SYSTEM>
0

>  <SCORE.SYSTEM.CONST>
0

>  <SCORE.SYSTEM.DIHEDRAL>
0

>  <SCORE.SYSTEM.SOLV>
0

>  <SCORE.SYSTEM.norm>
0

>  <SCORE.heavy>
26

>  <SCORE.norm>
-0.560671

>  <RMSD>
8.304

$$$$
ligand
 OpenBabel11021811473D
libRbt.so/2013.1/901 2013/11/27
 26 27  0  0  0  0  0  0  0  0999 V2000
   -3.9175  -14.8219   17.3800 C   0  0  0  0  0  0  0  0  0  0  0  0
   -5.8817  -12.0447   16.6070 C   0  0  0  0  0  0  0  0  0  0  0  0
   -4.5372  -11.7706   16.3790 C   0  0  0  0  0  0  0  0  0  0  0  0
   -3.6522  -12.6115   15.4558 C   0  0  0  0  0  0  0  0  0  0  0  0
   -2.5842  -14.1396   17.0603 C   0  0  1  0  0  0  0  0  0  0  0  0
   -6.7972   -9.1713   18.9390 C   0  0  0  0  0  0  0  0  0  0  0  0
   -5.9943  -10.1077   18.0348 C   0  0  0  0  0  0  0  0  0  0  0  0
   -3.9820  -10.6607   17.0079 C   0  0  0  0  0  0  0  0  0  0  0  0
   -1.2696  -12.6391   15.9632 C   0  0  0  0  0  0  0  0  0  0  0  0
   -1.3923  -14.5309   17.6583 C   0  0  2  0  0  0  0  0  0  0  0  0
   -1.0969  -15.6311   18.6809 C   0  0  0  0  0  0  0  0  0  0  0  0
   -0.7960  -15.0818   20.0774 C   0  0  0  0  0  0  0  0  0  0  0  0
   -6.6260  -11.2091   17.4422 N   0  0  0  0  0  0  0  0  0  0  0  0
   -2.4866  -13.1409   16.1783 N   0  0  0  0  0  0  0  0  0  0  0  0
   -4.6953   -9.8772   17.7952 N   0  0  0  0  0  0  0  0  0  0  0  0
   -6.4179  -13.0164   16.0740 O   0  0  0  0  0  0  0  0  0  0  0  0
   -1.6845  -12.1934   21.6998 O   0  5  0  0  0  0  0  0  0  0  0  0
   -4.3712  -11.5256   22.2068 O   0  0  0  0  0  0  0  0  0  0  0  0
   -1.9671  -14.5437   20.6993 O   0  0  0  0  0  0  0  0  0  0  0  0
   -3.3504  -13.8061   22.7550 O   0  0  0  0  0  0  0  0  0  0  0  0
   -5.1686  -12.8139   24.3036 O   0  5  0  0  0  0  0  0  0  0  0  0
   -0.8301  -14.2641   22.9898 O   0  0  0  0  0  0  0  0  0  0  0  0
   -2.8175  -11.7867   24.2290 O   0  0  0  0  0  0  0  0  0  0  0  0
   -0.1676  -13.4601   17.0366 S   0  0  0  0  0  0  0  0  0  0  0  0
   -1.8863  -13.7410   22.0930 P   0  0  2  0  0  0  0  0  0  0  0  0
   -4.0131  -12.5072   23.4311 P   0  0  2  0  0  0  0  0  0  0  0  0
  2 16  2  0  0  0  0
  2  3  1  0  0  0  0
  2 13  1  0  0  0  0
  3  8  2  0  0  0  0
  3  4  1  0  0  0  0
  4 14  1  0  0  0  0
  5  1  1  6  0  0  0
  5 14  1  0  0  0  0
  5 10  1  0  0  0  0
  6  7  1  0  0  0  0
  7 13  1  0  0  0  0
  7 15  2  0  0  0  0
  8 15  1  0  0  0  0
  9 14  1  0  0  0  0
  9 24  1  0  0  0  0
 10 24  1  0  0  0  0
 10 11  1  1  0  0  0
 11 12  1  0  0  0  0
 12 19  1  0  0  0  0
 17 25  1  0  0  0  0
 19 25  1  0  0  0  0
 20 26  1  0  0  0  0
 21 26  1  0  0  0  0
 22 25  2  0  0  0  0
 23 26  2  0  0  0  0
 25 20  1  1  0  0  0
 26 18  1  6  0  0  0
M  CHG  2  17  -1  21  -1
M  END
>  <CHROM.1>
-122.35209222,-107.12962895,70.73353901,73.58831692,-172.31139033,-24.60531017
90.66964482,70.79276810,-3.22203551,-12.81900834,19.53114417,-1.77047414
-0.61596435,1.57116964

>  <Name>
ligand

>  <RI>
0

>  <Rbt.Current_Directory>
/home/itssahil/PROJECTS/Mol_Feturizer/New_Systems/rnas/3D2X

>  <Rbt.Executable>
rbdock ($Id: //depot/dev/client3/rdock/2013.1/src/exe/rbdock.cxx#4 $)

>  <Rbt.Library>
libRbt.so (2013.1, Build901 2013/11/27)

>  <Rbt.Parameter_File>
/export/apps/rDock/src/rDock_2013.1_src/data/scripts/dock_solv.prm

>  <Rbt.Receptor>
prm/pocket_docking_8.prm

>  <SCORE>
-9.30393

>  <SCORE.INTER>
-9.16149

>  <SCORE.INTER.CONST>
1

>  <SCORE.INTER.POLAR>
0

>  <SCORE.INTER.ROT>
8

>  <SCORE.INTER.SOLV>
8.80716

>  <SCORE.INTER.VDW>
-17.9767

>  <SCORE.INTER.norm>
-0.352365

>  <SCORE.INTRA>
-0.142438

>  <SCORE.INTRA.DIHEDRAL>
1.00128

>  <SCORE.INTRA.DIHEDRAL.0>
7.88077

>  <SCORE.INTRA.POLAR>
0

>  <SCORE.INTRA.POLAR.0>
0

>  <SCORE.INTRA.REPUL>
0

>  <SCORE.INTRA.REPUL.0>
0

>  <SCORE.INTRA.SOLV>
-0.165655

>  <SCORE.INTRA.SOLV.lig_0>
-63.2542

>  <SCORE.INTRA.VDW>
-0.560251

>  <SCORE.INTRA.VDW.0>
-3.15072

>  <SCORE.INTRA.norm>
-0.00547838

>  <SCORE.RESTR>
0

>  <SCORE.RESTR.CAVITY>
0

>  <SCORE.RESTR.norm>
0

>  <SCORE.SYSTEM>
0

>  <SCORE.SYSTEM.CONST>
0

>  <SCORE.SYSTEM.DIHEDRAL>
0

>  <SCORE.SYSTEM.SOLV>
0

>  <SCORE.SYSTEM.norm>
0

>  <SCORE.heavy>
26

>  <SCORE.norm>
-0.357844

>  <RMSD>
8.377

$$$$
ligand
 OpenBabel11021811473D
libRbt.so/2013.1/901 2013/11/27
 26 27  0  0  0  0  0  0  0  0999 V2000
   -4.1191   -9.2666   18.3914 C   0  0  0  0  0  0  0  0  0  0  0  0
   -6.9014  -11.9137   16.8137 C   0  0  0  0  0  0  0  0  0  0  0  0
   -6.3369  -10.7298   16.3507 C   0  0  0  0  0  0  0  0  0  0  0  0
   -6.6728   -9.3543   16.9318 C   0  0  0  0  0  0  0  0  0  0  0  0
   -5.4828   -9.3427   19.0845 C   0  0  1  0  0  0  0  0  0  0  0  0
   -5.1220  -14.4531   14.5961 C   0  0  0  0  0  0  0  0  0  0  0  0
   -5.5673  -13.1284   15.2176 C   0  0  0  0  0  0  0  0  0  0  0  0
   -5.4034  -10.8108   15.3223 C   0  0  0  0  0  0  0  0  0  0  0  0
   -7.7580   -9.4181   19.1120 C   0  0  0  0  0  0  0  0  0  0  0  0
   -5.6074   -9.3655   20.4685 C   0  0  2  0  0  0  0  0  0  0  0  0
   -4.5477   -9.3178   21.5721 C   0  0  0  0  0  0  0  0  0  0  0  0
   -3.8974  -10.6784   21.8333 C   0  0  0  0  0  0  0  0  0  0  0  0
   -6.5179  -13.1309   16.2471 N   0  0  0  0  0  0  0  0  0  0  0  0
   -6.6302   -9.3758   18.4011 N   0  0  0  0  0  0  0  0  0  0  0  0
   -5.0478  -11.9671   14.7943 N   0  0  0  0  0  0  0  0  0  0  0  0
   -7.7331  -11.8935   17.7213 O   0  0  0  0  0  0  0  0  0  0  0  0
   -3.6699  -13.1820   23.8558 O   0  5  0  0  0  0  0  0  0  0  0  0
   -8.0651  -14.5694   23.7851 O   0  0  0  0  0  0  0  0  0  0  0  0
   -4.8699  -11.6788   22.1515 O   0  0  0  0  0  0  0  0  0  0  0  0
   -5.7983  -14.0200   22.7348 O   0  0  0  0  0  0  0  0  0  0  0  0
   -6.3734  -13.1062   25.0848 O   0  5  0  0  0  0  0  0  0  0  0  0
   -3.6463  -13.7926   21.3442 O   0  0  0  0  0  0  0  0  0  0  0  0
   -7.5552  -12.1824   23.0019 O   0  0  0  0  0  0  0  0  0  0  0  0
   -7.3126   -9.5016   20.7958 S   0  0  0  0  0  0  0  0  0  0  0  0
   -4.4435  -13.2037   22.4446 P   0  0  2  0  0  0  0  0  0  0  0  0
   -6.9082  -13.4509   23.7486 P   0  0  2  0  0  0  0  0  0  0  0  0
  2 16  2  0  0  0  0
  2  3  1  0  0  0  0
  2 13  1  0  0  0  0
  3  8  2  0  0  0  0
  3  4  1  0  0  0  0
  4 14  1  0  0  0  0
  5  1  1  1  0  0  0
  5 14  1  0  0  0  0
  5 10  1  0  0  0  0
  6  7  1  0  0  0  0
  7 13  1  0  0  0  0
  7 15  2  0  0  0  0
  8 15  1  0  0  0  0
  9 14  1  0  0  0  0
  9 24  1  0  0  0  0
 10 24  1  0  0  0  0
 10 11  1  6  0  0  0
 11 12  1  0  0  0  0
 12 19  1  0  0  0  0
 17 25  1  0  0  0  0
 19 25  1  0  0  0  0
 20 26  1  0  0  0  0
 21 26  1  0  0  0  0
 22 25  2  0  0  0  0
 23 26  2  0  0  0  0
 25 20  1  1  0  0  0
 26 18  1  1  0  0  0
M  CHG  2  17  -1  21  -1
M  END
>  <CHROM.1>
47.03993185,-81.00276614,-56.16072960,77.92660670,178.95256578,64.49993748
69.70138492,-178.51753020,-5.88320967,-11.77743690,20.17101762,1.64831106
1.42386154,-1.42311484

>  <Name>
ligand

>  <RI>
0

>  <Rbt.Current_Directory>
/home/itssahil/PROJECTS/Mol_Feturizer/New_Systems/rnas/3D2X

>  <Rbt.Executable>
rbdock ($Id: //depot/dev/client3/rdock/2013.1/src/exe/rbdock.cxx#4 $)

>  <Rbt.Library>
libRbt.so (2013.1, Build901 2013/11/27)

>  <Rbt.Parameter_File>
/export/apps/rDock/src/rDock_2013.1_src/data/scripts/dock_solv.prm

>  <Rbt.Receptor>
prm/pocket_docking_7.prm

>  <SCORE>
-15.4064

>  <SCORE.INTER>
-12.5011

>  <SCORE.INTER.CONST>
1

>  <SCORE.INTER.POLAR>
0

>  <SCORE.INTER.ROT>
8

>  <SCORE.INTER.SOLV>
7.95507

>  <SCORE.INTER.VDW>
-19.9191

>  <SCORE.INTER.norm>
-0.480812

>  <SCORE.INTRA>
-2.90533

>  <SCORE.INTRA.DIHEDRAL>
-2.83154

>  <SCORE.INTRA.DIHEDRAL.0>
7.88077

>  <SCORE.INTRA.POLAR>
0

>  <SCORE.INTRA.POLAR.0>
0

>  <SCORE.INTRA.REPUL>
0

>  <SCORE.INTRA.REPUL.0>
0

>  <SCORE.INTRA.SOLV>
0.381724

>  <SCORE.INTRA.SOLV.lig_0>
-63.2542

>  <SCORE.INTRA.VDW>
-1.68042

>  <SCORE.INTRA.VDW.0>
-3.15072

>  <SCORE.INTRA.norm>
-0.111743

>  <SCORE.RESTR>
0

>  <SCORE.RESTR.CAVITY>
0

>  <SCORE.RESTR.norm>
0

>  <SCORE.SYSTEM>
0

>  <SCORE.SYSTEM.CONST>
0

>  <SCORE.SYSTEM.DIHEDRAL>
0

>  <SCORE.SYSTEM.SOLV>
0

>  <SCORE.SYSTEM.norm>
0

>  <SCORE.heavy>
26

>  <SCORE.norm>
-0.592555

>  <RMSD>
8.404

$$$$
ligand
 OpenBabel11021811473D
libRbt.so/2013.1/901 2013/11/27
 26 27  0  0  0  0  0  0  0  0999 V2000
   -7.6308  -12.1944   17.6162 C   0  0  0  0  0  0  0  0  0  0  0  0
   -6.2663  -10.4389   20.9541 C   0  0  0  0  0  0  0  0  0  0  0  0
   -6.4139   -9.3810   20.0632 C   0  0  0  0  0  0  0  0  0  0  0  0
   -7.1217   -9.5115   18.7124 C   0  0  0  0  0  0  0  0  0  0  0  0
   -6.4410  -11.3258   17.1974 C   0  0  1  0  0  0  0  0  0  0  0  0
   -4.4738   -8.6899   23.8282 C   0  0  0  0  0  0  0  0  0  0  0  0
   -5.1559   -8.9450   22.4833 C   0  0  0  0  0  0  0  0  0  0  0  0
   -5.9098   -8.1390   20.4360 C   0  0  0  0  0  0  0  0  0  0  0  0
   -5.1766   -9.4332   17.2477 C   0  0  0  0  0  0  0  0  0  0  0  0
   -5.5150  -11.7484   16.2511 C   0  0  2  0  0  0  0  0  0  0  0  0
   -5.4284  -13.0446   15.4414 C   0  0  0  0  0  0  0  0  0  0  0  0
   -5.0810  -14.2623   16.3009 C   0  0  0  0  0  0  0  0  0  0  0  0
   -5.6321  -10.2274   22.1801 N   0  0  0  0  0  0  0  0  0  0  0  0
   -6.2327  -10.1076   17.7047 N   0  0  0  0  0  0  0  0  0  0  0  0
   -5.3124   -7.9504   21.5979 N   0  0  0  0  0  0  0  0  0  0  0  0
   -6.6946  -11.5574   20.6688 O   0  0  0  0  0  0  0  0  0  0  0  0
   -5.8367  -16.7189   17.8565 O   0  5  0  0  0  0  0  0  0  0  0  0
   -7.4953  -20.1238   15.2136 O   0  0  0  0  0  0  0  0  0  0  0  0
   -5.4097  -15.4887   15.6409 O   0  0  0  0  0  0  0  0  0  0  0  0
   -6.2503  -17.9334   15.6557 O   0  0  0  0  0  0  0  0  0  0  0  0
   -4.9793  -20.1803   15.8128 O   0  5  0  0  0  0  0  0  0  0  0  0
   -3.8372  -17.3920   16.3631 O   0  0  0  0  0  0  0  0  0  0  0  0
   -6.7208  -19.5410   17.5867 O   0  0  0  0  0  0  0  0  0  0  0  0
   -4.3330  -10.4748   16.1323 S   0  0  0  0  0  0  0  0  0  0  0  0
   -5.2380  -16.9117   16.3750 P   0  0  2  0  0  0  0  0  0  0  0  0
   -6.2694  -19.4929   16.0443 P   0  0  2  0  0  0  0  0  0  0  0  0
  2 16  2  0  0  0  0
  2  3  1  0  0  0  0
  2 13  1  0  0  0  0
  3  8  2  0  0  0  0
  3  4  1  0  0  0  0
  4 14  1  0  0  0  0
  5  1  1  6  0  0  0
  5 14  1  0  0  0  0
  5 10  1  0  0  0  0
  6  7  1  0  0  0  0
  7 13  1  0  0  0  0
  7 15  2  0  0  0  0
  8 15  1  0  0  0  0
  9 14  1  0  0  0  0
  9 24  1  0  0  0  0
 10 24  1  0  0  0  0
 10 11  1  1  0  0  0
 11 12  1  0  0  0  0
 12 19  1  0  0  0  0
 17 25  1  0  0  0  0
 19 25  1  0  0  0  0
 20 26  1  0  0  0  0
 21 26  1  0  0  0  0
 22 25  2  0  0  0  0
 23 26  2  0  0  0  0
 25 20  1  6  0  0  0
 26 18  1  6  0  0  0
M  CHG  2  17  -1  21  -1
M  END
>  <CHROM.1>
-80.30896535,-69.42252602,161.72743518,111.76816072,-175.64983795,-73.05168606
44.48341490,174.82912298,-5.73893713,-13.67431832,17.81584342,-1.36714236
-1.44183599,-2.50690887

>  <Name>
ligand

>  <RI>
0

>  <Rbt.Current_Directory>
/home/itssahil/PROJECTS/Mol_Feturizer/New_Systems/rnas/3D2X

>  <Rbt.Executable>
rbdock ($Id: //depot/dev/client3/rdock/2013.1/src/exe/rbdock.cxx#4 $)

>  <Rbt.Library>
libRbt.so (2013.1, Build901 2013/11/27)

>  <Rbt.Parameter_File>
/export/apps/rDock/src/rDock_2013.1_src/data/scripts/dock_solv.prm

>  <Rbt.Receptor>
prm/pocket_docking_8.prm

>  <SCORE>
-16.6381

>  <SCORE.INTER>
-15.9425

>  <SCORE.INTER.CONST>
1

>  <SCORE.INTER.POLAR>
0

>  <SCORE.INTER.ROT>
8

>  <SCORE.INTER.SOLV>
13.3949

>  <SCORE.INTER.VDW>
-24.0266

>  <SCORE.INTER.norm>
-0.613173

>  <SCORE.INTRA>
-0.695617

>  <SCORE.INTRA.DIHEDRAL>
-1.22276

>  <SCORE.INTRA.DIHEDRAL.0>
7.88077

>  <SCORE.INTRA.POLAR>
0

>  <SCORE.INTRA.POLAR.0>
0

>  <SCORE.INTRA.REPUL>
0

>  <SCORE.INTRA.REPUL.0>
0

>  <SCORE.INTRA.SOLV>
0.908874

>  <SCORE.INTRA.SOLV.lig_0>
-63.2542

>  <SCORE.INTRA.VDW>
-0.538676

>  <SCORE.INTRA.VDW.0>
-3.15072

>  <SCORE.INTRA.norm>
-0.0267545

>  <SCORE.RESTR>
0

>  <SCORE.RESTR.CAVITY>
0

>  <SCORE.RESTR.norm>
0

>  <SCORE.SYSTEM>
0

>  <SCORE.SYSTEM.CONST>
0

>  <SCORE.SYSTEM.DIHEDRAL>
0

>  <SCORE.SYSTEM.SOLV>
0

>  <SCORE.SYSTEM.norm>
0

>  <SCORE.heavy>
26

>  <SCORE.norm>
-0.639927

>  <RMSD>
8.421

$$$$
ligand
 OpenBabel11021811473D
libRbt.so/2013.1/901 2013/11/27
 26 27  0  0  0  0  0  0  0  0999 V2000
   -3.9865   -9.7197   19.5873 C   0  0  0  0  0  0  0  0  0  0  0  0
   -5.5751  -12.4987   16.8439 C   0  0  0  0  0  0  0  0  0  0  0  0
   -5.0529  -11.4222   16.1344 C   0  0  0  0  0  0  0  0  0  0  0  0
   -4.7584  -10.0606   16.7683 C   0  0  0  0  0  0  0  0  0  0  0  0
   -5.4265   -9.5769   19.0856 C   0  0  1  0  0  0  0  0  0  0  0  0
   -5.6763  -15.1557   14.1122 C   0  0  0  0  0  0  0  0  0  0  0  0
   -5.4670  -13.8245   14.8355 C   0  0  0  0  0  0  0  0  0  0  0  0
   -4.7653  -11.6076   14.7860 C   0  0  0  0  0  0  0  0  0  0  0  0
   -7.0354   -9.5595   17.4749 C   0  0  0  0  0  0  0  0  0  0  0  0
   -6.4778   -9.2625   19.9384 C   0  0  2  0  0  0  0  0  0  0  0  0
   -6.5008   -8.9906   21.4447 C   0  0  0  0  0  0  0  0  0  0  0  0
   -7.0682  -10.1599   22.2529 C   0  0  0  0  0  0  0  0  0  0  0  0
   -5.7872  -13.7170   16.1954 N   0  0  0  0  0  0  0  0  0  0  0  0
   -5.7530   -9.7306   17.7993 N   0  0  0  0  0  0  0  0  0  0  0  0
   -4.9693  -12.7641   14.1831 N   0  0  0  0  0  0  0  0  0  0  0  0
   -5.8470  -12.3834   18.0391 O   0  0  0  0  0  0  0  0  0  0  0  0
   -7.5976  -13.4442   21.8062 O   0  5  0  0  0  0  0  0  0  0  0  0
   -3.8747  -11.6969   23.8087 O   0  0  0  0  0  0  0  0  0  0  0  0
   -6.2188  -11.3097   22.1901 O   0  0  0  0  0  0  0  0  0  0  0  0
   -5.3178  -13.6173   22.9294 O   0  0  0  0  0  0  0  0  0  0  0  0
   -4.3901  -13.7161   25.3415 O   0  5  0  0  0  0  0  0  0  0  0  0
   -7.2695  -12.5245   24.1995 O   0  0  0  0  0  0  0  0  0  0  0  0
   -2.8196  -13.9833   23.3290 O   0  0  0  0  0  0  0  0  0  0  0  0
   -7.9123   -9.2531   18.9507 S   0  0  0  0  0  0  0  0  0  0  0  0
   -6.6418  -12.7066   22.8705 P   0  0  2  0  0  0  0  0  0  0  0  0
   -4.1245  -13.2805   23.9522 P   0  0  2  0  0  0  0  0  0  0  0  0
  2 16  2  0  0  0  0
  2  3  1  0  0  0  0
  2 13  1  0  0  0  0
  3  8  2  0  0  0  0
  3  4  1  0  0  0  0
  4 14  1  0  0  0  0
  5  1  1  6  0  0  0
  5 14  1  0  0  0  0
  5 10  1  0  0  0  0
  6  7  1  0  0  0  0
  7 13  1  0  0  0  0
  7 15  2  0  0  0  0
  8 15  1  0  0  0  0
  9 14  1  0  0  0  0
  9 24  1  0  0  0  0
 10 24  1  0  0  0  0
 10 11  1  1  0  0  0
 11 12  1  0  0  0  0
 12 19  1  0  0  0  0
 17 25  1  0  0  0  0
 19 25  1  0  0  0  0
 20 26  1  0  0  0  0
 21 26  1  0  0  0  0
 22 25  2  0  0  0  0
 23 26  2  0  0  0  0
 25 20  1  1  0  0  0
 26 18  1  1  0  0  0
M  CHG  2  17  -1  21  -1
M  END
>  <CHROM.1>
-35.34895325,-104.68761346,66.63932533,116.81014322,-175.61353291,-176.25833931
83.09961253,-46.44876371,-5.69210224,-11.82426324,20.04557252,1.68856634
1.14650660,-1.58508034

>  <Name>
ligand

>  <RI>
0

>  <Rbt.Current_Directory>
/home/itssahil/PROJECTS/Mol_Feturizer/New_Systems/rnas/3D2X

>  <Rbt.Executable>
rbdock ($Id: //depot/dev/client3/rdock/2013.1/src/exe/rbdock.cxx#4 $)

>  <Rbt.Library>
libRbt.so (2013.1, Build901 2013/11/27)

>  <Rbt.Parameter_File>
/export/apps/rDock/src/rDock_2013.1_src/data/scripts/dock_solv.prm

>  <Rbt.Receptor>
prm/pocket_docking_7.prm

>  <SCORE>
-19.4313

>  <SCORE.INTER>
-16.2094

>  <SCORE.INTER.CONST>
1

>  <SCORE.INTER.POLAR>
0

>  <SCORE.INTER.ROT>
8

>  <SCORE.INTER.SOLV>
11.9678

>  <SCORE.INTER.VDW>
-23.7289

>  <SCORE.INTER.norm>
-0.623438

>  <SCORE.INTRA>
-3.22191

>  <SCORE.INTRA.DIHEDRAL>
-1.47575

>  <SCORE.INTRA.DIHEDRAL.0>
7.88077

>  <SCORE.INTRA.POLAR>
0

>  <SCORE.INTRA.POLAR.0>
0

>  <SCORE.INTRA.REPUL>
0.00303316

>  <SCORE.INTRA.REPUL.0>
0

>  <SCORE.INTRA.SOLV>
-2.32199

>  <SCORE.INTRA.SOLV.lig_0>
-63.2542

>  <SCORE.INTRA.VDW>
-1.3382

>  <SCORE.INTRA.VDW.0>
-3.15072

>  <SCORE.INTRA.norm>
-0.123919

>  <SCORE.RESTR>
0

>  <SCORE.RESTR.CAVITY>
0

>  <SCORE.RESTR.norm>
0

>  <SCORE.SYSTEM>
0

>  <SCORE.SYSTEM.CONST>
0

>  <SCORE.SYSTEM.DIHEDRAL>
0

>  <SCORE.SYSTEM.SOLV>
0

>  <SCORE.SYSTEM.norm>
0

>  <SCORE.heavy>
26

>  <SCORE.norm>
-0.747357

>  <RMSD>
8.426

$$$$
ligand
 OpenBabel11021811473D
libRbt.so/2013.1/901 2013/11/27
 26 27  0  0  0  0  0  0  0  0999 V2000
    0.2934  -11.8741   19.9721 C   0  0  0  0  0  0  0  0  0  0  0  0
   -0.4557  -16.6765   18.4506 C   0  0  0  0  0  0  0  0  0  0  0  0
   -0.5206  -15.4951   19.1819 C   0  0  0  0  0  0  0  0  0  0  0  0
    0.7145  -14.7764   19.7302 C   0  0  0  0  0  0  0  0  0  0  0  0
    0.2404  -12.8347   21.1638 C   0  0  1  0  0  0  0  0  0  0  0  0
   -4.1483  -17.2278   17.6804 C   0  0  0  0  0  0  0  0  0  0  0  0
   -2.8532  -16.6212   18.2225 C   0  0  0  0  0  0  0  0  0  0  0  0
   -1.7738  -14.9325   19.4026 C   0  0  0  0  0  0  0  0  0  0  0  0
    0.3365  -14.8919   22.1340 C   0  0  0  0  0  0  0  0  0  0  0  0
   -0.0238  -12.3950   22.4554 C   0  0  2  0  0  0  0  0  0  0  0  0
   -0.3133  -10.9934   22.9986 C   0  0  0  0  0  0  0  0  0  0  0  0
   -1.4707  -10.9693   23.9997 C   0  0  0  0  0  0  0  0  0  0  0  0
   -1.6298  -17.2525   17.9613 N   0  0  0  0  0  0  0  0  0  0  0  0
    0.4292  -14.1504   21.0293 N   0  0  0  0  0  0  0  0  0  0  0  0
   -2.8773  -15.4855   18.9347 N   0  0  0  0  0  0  0  0  0  0  0  0
    0.6302  -17.2133   18.2302 O   0  0  0  0  0  0  0  0  0  0  0  0
   -4.5685   -9.8797   24.2593 O   0  5  0  0  0  0  0  0  0  0  0  0
   -4.4218  -14.4700   24.1580 O   0  0  0  0  0  0  0  0  0  0  0  0
   -2.6938  -11.4173   23.4073 O   0  0  0  0  0  0  0  0  0  0  0  0
   -5.1652  -12.1707   23.3188 O   0  0  0  0  0  0  0  0  0  0  0  0
   -6.1286  -14.3051   22.2210 O   0  5  0  0  0  0  0  0  0  0  0  0
   -3.9418  -12.0140   25.5760 O   0  0  0  0  0  0  0  0  0  0  0  0
   -3.6772  -13.6410   21.8495 O   0  0  0  0  0  0  0  0  0  0  0  0
    0.0622  -13.8070   23.4714 S   0  0  0  0  0  0  0  0  0  0  0  0
   -4.0784  -11.4125   24.2296 P   0  0  2  0  0  0  0  0  0  0  0  0
   -4.9369  -13.6903   22.8474 P   0  0  2  0  0  0  0  0  0  0  0  0
  2 16  2  0  0  0  0
  2  3  1  0  0  0  0
  2 13  1  0  0  0  0
  3  8  2  0  0  0  0
  3  4  1  0  0  0  0
  4 14  1  0  0  0  0
  5  1  1  6  0  0  0
  5 14  1  0  0  0  0
  5 10  1  0  0  0  0
  6  7  1  0  0  0  0
  7 13  1  0  0  0  0
  7 15  2  0  0  0  0
  8 15  1  0  0  0  0
  9 14  1  0  0  0  0
  9 24  1  0  0  0  0
 10 24  1  0  0  0  0
 10 11  1  1  0  0  0
 11 12  1  0  0  0  0
 12 19  1  0  0  0  0
 17 25  1  0  0  0  0
 19 25  1  0  0  0  0
 20 26  1  0  0  0  0
 21 26  1  0  0  0  0
 22 25  2  0  0  0  0
 23 26  2  0  0  0  0
 25 20  1  6  0  0  0
 26 18  1  1  0  0  0
M  CHG  2  17  -1  21  -1
M  END
>  <CHROM.1>
-144.88308611,136.11769572,-60.87913873,-104.07792906,-176.72219624,170.87870928
76.69617014,44.85505156,-2.25446451,-13.70333490,21.76316232,-1.16772087
0.15173548,0.81844735

>  <Name>
ligand

>  <RI>
0

>  <Rbt.Current_Directory>
/home/itssahil/PROJECTS/Mol_Feturizer/New_Systems/rnas/3D2X

>  <Rbt.Executable>
rbdock ($Id: //depot/dev/client3/rdock/2013.1/src/exe/rbdock.cxx#4 $)

>  <Rbt.Library>
libRbt.so (2013.1, Build901 2013/11/27)

>  <Rbt.Parameter_File>
/export/apps/rDock/src/rDock_2013.1_src/data/scripts/dock_solv.prm

>  <Rbt.Receptor>
prm/pocket_docking_7.prm

>  <SCORE>
-14.9262

>  <SCORE.INTER>
-11.5895

>  <SCORE.INTER.CONST>
1

>  <SCORE.INTER.POLAR>
0

>  <SCORE.INTER.ROT>
8

>  <SCORE.INTER.SOLV>
8.67212

>  <SCORE.INTER.VDW>
-19.5504

>  <SCORE.INTER.norm>
-0.445749

>  <SCORE.INTRA>
-3.33673

>  <SCORE.INTRA.DIHEDRAL>
-2.35759

>  <SCORE.INTRA.DIHEDRAL.0>
7.88077

>  <SCORE.INTRA.POLAR>
0

>  <SCORE.INTRA.POLAR.0>
0

>  <SCORE.INTRA.REPUL>
0

>  <SCORE.INTRA.REPUL.0>
0

>  <SCORE.INTRA.SOLV>
-1.40933

>  <SCORE.INTRA.SOLV.lig_0>
-63.2542

>  <SCORE.INTRA.VDW>
-1.45327

>  <SCORE.INTRA.VDW.0>
-3.15072

>  <SCORE.INTRA.norm>
-0.128336

>  <SCORE.RESTR>
0

>  <SCORE.RESTR.CAVITY>
0

>  <SCORE.RESTR.norm>
0

>  <SCORE.SYSTEM>
0

>  <SCORE.SYSTEM.CONST>
0

>  <SCORE.SYSTEM.DIHEDRAL>
0

>  <SCORE.SYSTEM.SOLV>
0

>  <SCORE.SYSTEM.norm>
0

>  <SCORE.heavy>
26

>  <SCORE.norm>
-0.574085

>  <RMSD>
8.434

$$$$
ligand
 OpenBabel11021811473D
libRbt.so/2013.1/901 2013/11/27
 26 27  0  0  0  0  0  0  0  0999 V2000
   -3.4588   -9.3475   18.9510 C   0  0  0  0  0  0  0  0  0  0  0  0
   -5.3544  -12.6555   16.6574 C   0  0  0  0  0  0  0  0  0  0  0  0
   -4.8708  -11.6493   15.8277 C   0  0  0  0  0  0  0  0  0  0  0  0
   -4.4484  -10.2693   16.3376 C   0  0  0  0  0  0  0  0  0  0  0  0
   -4.9425   -9.3669   18.5718 C   0  0  1  0  0  0  0  0  0  0  0  0
   -5.8782  -15.4586   14.1273 C   0  0  0  0  0  0  0  0  0  0  0  0
   -5.5316  -14.0996   14.7373 C   0  0  0  0  0  0  0  0  0  0  0  0
   -4.7462  -11.9267   14.4701 C   0  0  0  0  0  0  0  0  0  0  0  0
   -6.6821   -9.7348   17.1499 C   0  0  0  0  0  0  0  0  0  0  0  0
   -5.9336   -8.9350   19.4451 C   0  0  2  0  0  0  0  0  0  0  0  0
   -5.8432   -8.3728   20.8661 C   0  0  0  0  0  0  0  0  0  0  0  0
   -5.7458   -9.4647   21.9341 C   0  0  0  0  0  0  0  0  0  0  0  0
   -5.6904  -13.8975   16.1148 N   0  0  0  0  0  0  0  0  0  0  0  0
   -5.3686   -9.7847   17.3765 N   0  0  0  0  0  0  0  0  0  0  0  0
   -5.0665  -13.1048   13.9680 N   0  0  0  0  0  0  0  0  0  0  0  0
   -5.4836  -12.4577   17.8656 O   0  0  0  0  0  0  0  0  0  0  0  0
   -3.1925  -12.4555   21.9057 O   0  5  0  0  0  0  0  0  0  0  0  0
   -1.9237  -10.2157   25.5571 O   0  0  0  0  0  0  0  0  0  0  0  0
   -4.6437  -10.3452   21.6935 O   0  0  0  0  0  0  0  0  0  0  0  0
   -3.7432  -11.1053   23.9945 O   0  0  0  0  0  0  0  0  0  0  0  0
   -1.3101  -10.9060   23.1406 O   0  5  0  0  0  0  0  0  0  0  0  0
   -5.6065  -12.4425   22.8299 O   0  0  0  0  0  0  0  0  0  0  0  0
   -2.7170   -8.8027   23.5709 O   0  0  0  0  0  0  0  0  0  0  0  0
   -7.4456   -9.1806   18.6164 S   0  0  0  0  0  0  0  0  0  0  0  0
   -4.3817  -11.6375   22.6179 P   0  0  2  0  0  0  0  0  0  0  0  0
   -2.3489  -10.3058   24.0073 P   0  0  2  0  0  0  0  0  0  0  0  0
  2 16  2  0  0  0  0
  2  3  1  0  0  0  0
  2 13  1  0  0  0  0
  3  8  2  0  0  0  0
  3  4  1  0  0  0  0
  4 14  1  0  0  0  0
  5  1  1  6  0  0  0
  5 14  1  0  0  0  0
  5 10  1  0  0  0  0
  6  7  1  0  0  0  0
  7 13  1  0  0  0  0
  7 15  2  0  0  0  0
  8 15  1  0  0  0  0
  9 14  1  0  0  0  0
  9 24  1  0  0  0  0
 10 24  1  0  0  0  0
 10 11  1  1  0  0  0
 11 12  1  0  0  0  0
 12 19  1  0  0  0  0
 17 25  1  0  0  0  0
 19 25  1  0  0  0  0
 20 26  1  0  0  0  0
 21 26  1  0  0  0  0
 22 25  2  0  0  0  0
 23 26  2  0  0  0  0
 25 20  1  1  0  0  0
 26 18  1  1  0  0  0
M  CHG  2  17  -1  21  -1
M  END
>  <CHROM.1>
-39.84747548,-83.07421590,55.78809989,127.09745373,-175.83401583,51.53949180
172.49119420,-169.06688829,-4.64825683,-10.98722736,19.80967344,2.11072574
0.98904172,-2.28038007

>  <Name>
ligand

>  <RI>
0

>  <Rbt.Current_Directory>
/home/itssahil/PROJECTS/Mol_Feturizer/New_Systems/rnas/3D2X

>  <Rbt.Executable>
rbdock ($Id: //depot/dev/client3/rdock/2013.1/src/exe/rbdock.cxx#4 $)

>  <Rbt.Library>
libRbt.so (2013.1, Build901 2013/11/27)

>  <Rbt.Parameter_File>
/export/apps/rDock/src/rDock_2013.1_src/data/scripts/dock_solv.prm

>  <Rbt.Receptor>
prm/pocket_docking_8.prm

>  <SCORE>
-19.0464

>  <SCORE.INTER>
-17.0099

>  <SCORE.INTER.CONST>
1

>  <SCORE.INTER.POLAR>
0

>  <SCORE.INTER.ROT>
8

>  <SCORE.INTER.SOLV>
5.58364

>  <SCORE.INTER.VDW>
-22.1345

>  <SCORE.INTER.norm>
-0.654227

>  <SCORE.INTRA>
-2.03647

>  <SCORE.INTRA.DIHEDRAL>
-2.40078

>  <SCORE.INTRA.DIHEDRAL.0>
7.88077

>  <SCORE.INTRA.POLAR>
0

>  <SCORE.INTRA.POLAR.0>
0

>  <SCORE.INTRA.REPUL>
0

>  <SCORE.INTRA.REPUL.0>
0

>  <SCORE.INTRA.SOLV>
1.12191

>  <SCORE.INTRA.SOLV.lig_0>
-63.2542

>  <SCORE.INTRA.VDW>
-1.39704

>  <SCORE.INTRA.VDW.0>
-3.15072

>  <SCORE.INTRA.norm>
-0.0783259

>  <SCORE.RESTR>
0

>  <SCORE.RESTR.CAVITY>
0

>  <SCORE.RESTR.norm>
0

>  <SCORE.SYSTEM>
0

>  <SCORE.SYSTEM.CONST>
0

>  <SCORE.SYSTEM.DIHEDRAL>
0

>  <SCORE.SYSTEM.SOLV>
0

>  <SCORE.SYSTEM.norm>
0

>  <SCORE.heavy>
26

>  <SCORE.norm>
-0.732553

>  <RMSD>
8.440

$$$$
ligand
 OpenBabel11021811473D
libRbt.so/2013.1/901 2013/11/27
 26 27  0  0  0  0  0  0  0  0999 V2000
   -7.4014  -12.2502   16.5050 C   0  0  0  0  0  0  0  0  0  0  0  0
   -4.5787  -14.2154   16.4572 C   0  0  0  0  0  0  0  0  0  0  0  0
   -5.1652  -13.8220   15.2589 C   0  0  0  0  0  0  0  0  0  0  0  0
   -5.0766  -12.3971   14.7070 C   0  0  0  0  0  0  0  0  0  0  0  0
   -6.1924  -11.3164   16.6142 C   0  0  1  0  0  0  0  0  0  0  0  0
   -5.4914  -17.9165   16.5023 C   0  0  0  0  0  0  0  0  0  0  0  0
   -5.3814  -16.4535   16.0701 C   0  0  0  0  0  0  0  0  0  0  0  0
   -5.8459  -14.7837   14.5191 C   0  0  0  0  0  0  0  0  0  0  0  0
   -4.1386  -10.5540   15.9946 C   0  0  0  0  0  0  0  0  0  0  0  0
   -6.1067  -10.3302   17.5896 C   0  0  2  0  0  0  0  0  0  0  0  0
   -7.0740   -9.9411   18.7105 C   0  0  0  0  0  0  0  0  0  0  0  0
   -6.4479  -10.0504   20.1028 C   0  0  0  0  0  0  0  0  0  0  0  0
   -4.6826  -15.5438   16.8748 N   0  0  0  0  0  0  0  0  0  0  0  0
   -5.1448  -11.4052   15.7898 N   0  0  0  0  0  0  0  0  0  0  0  0
   -5.9374  -16.0371   14.9233 N   0  0  0  0  0  0  0  0  0  0  0  0
   -3.9668  -13.4003   17.1478 O   0  0  0  0  0  0  0  0  0  0  0  0
   -8.3736   -9.8063   23.5168 O   0  5  0  0  0  0  0  0  0  0  0  0
   -5.0945  -13.1185   24.2286 O   0  0  0  0  0  0  0  0  0  0  0  0
   -7.4056   -9.8005   21.1362 O   0  0  0  0  0  0  0  0  0  0  0  0
   -6.3678  -11.2829   22.9825 O   0  0  0  0  0  0  0  0  0  0  0  0
   -4.4961  -10.6367   24.6462 O   0  5  0  0  0  0  0  0  0  0  0  0
   -6.0696   -8.7290   23.0556 O   0  0  0  0  0  0  0  0  0  0  0  0
   -6.7210  -11.5948   25.4950 O   0  0  0  0  0  0  0  0  0  0  0  0
   -4.6037   -9.4985   17.3024 S   0  0  0  0  0  0  0  0  0  0  0  0
   -6.9916   -9.8295   22.6921 P   0  0  2  0  0  0  0  0  0  0  0  0
   -5.5883  -11.5917   24.3538 P   0  0  2  0  0  0  0  0  0  0  0  0
  2 16  2  0  0  0  0
  2  3  1  0  0  0  0
  2 13  1  0  0  0  0
  3  8  2  0  0  0  0
  3  4  1  0  0  0  0
  4 14  1  0  0  0  0
  5  1  1  1  0  0  0
  5 14  1  0  0  0  0
  5 10  1  0  0  0  0
  6  7  1  0  0  0  0
  7 13  1  0  0  0  0
  7 15  2  0  0  0  0
  8 15  1  0  0  0  0
  9 14  1  0  0  0  0
  9 24  1  0  0  0  0
 10 24  1  0  0  0  0
 10 11  1  6  0  0  0
 11 12  1  0  0  0  0
 12 19  1  0  0  0  0
 17 25  1  0  0  0  0
 19 25  1  0  0  0  0
 20 26  1  0  0  0  0
 21 26  1  0  0  0  0
 22 25  2  0  0  0  0
 23 26  2  0  0  0  0
 25 20  1  1  0  0  0
 26 18  1  6  0  0  0
M  CHG  2  17  -1  21  -1
M  END
>  <CHROM.1>
-37.07658616,120.94829982,-174.66166104,-59.58285271,-178.91519673,-79.65113404
-168.68892939,-178.38538618,-5.80127547,-11.87513913,19.49304903,0.53747144
1.43316284,-0.94553178

>  <Name>
ligand

>  <RI>
0

>  <Rbt.Current_Directory>
/home/itssahil/PROJECTS/Mol_Feturizer/New_Systems/rnas/3D2X

>  <Rbt.Executable>
rbdock ($Id: //depot/dev/client3/rdock/2013.1/src/exe/rbdock.cxx#4 $)

>  <Rbt.Library>
libRbt.so (2013.1, Build901 2013/11/27)

>  <Rbt.Parameter_File>
/export/apps/rDock/src/rDock_2013.1_src/data/scripts/dock_solv.prm

>  <Rbt.Receptor>
prm/pocket_docking_8.prm

>  <SCORE>
-16.3448

>  <SCORE.INTER>
-15.4227

>  <SCORE.INTER.CONST>
1

>  <SCORE.INTER.POLAR>
0

>  <SCORE.INTER.ROT>
8

>  <SCORE.INTER.SOLV>
7.48789

>  <SCORE.INTER.VDW>
-21.7111

>  <SCORE.INTER.norm>
-0.593181

>  <SCORE.INTRA>
-0.922103

>  <SCORE.INTRA.DIHEDRAL>
-2.08033

>  <SCORE.INTRA.DIHEDRAL.0>
7.88077

>  <SCORE.INTRA.POLAR>
0

>  <SCORE.INTRA.POLAR.0>
0

>  <SCORE.INTRA.REPUL>
0

>  <SCORE.INTRA.REPUL.0>
0

>  <SCORE.INTRA.SOLV>
0.618208

>  <SCORE.INTRA.SOLV.lig_0>
-63.2542

>  <SCORE.INTRA.VDW>
-0.191044

>  <SCORE.INTRA.VDW.0>
-3.15072

>  <SCORE.INTRA.norm>
-0.0354655

>  <SCORE.RESTR>
0

>  <SCORE.RESTR.CAVITY>
0

>  <SCORE.RESTR.norm>
0

>  <SCORE.SYSTEM>
0

>  <SCORE.SYSTEM.CONST>
0

>  <SCORE.SYSTEM.DIHEDRAL>
0

>  <SCORE.SYSTEM.SOLV>
0

>  <SCORE.SYSTEM.norm>
0

>  <SCORE.heavy>
26

>  <SCORE.norm>
-0.628646

>  <RMSD>
8.445

$$$$
ligand
 OpenBabel11021811473D
libRbt.so/2013.1/901 2013/11/27
 26 27  0  0  0  0  0  0  0  0999 V2000
   -3.7607   -9.5511   19.4734 C   0  0  0  0  0  0  0  0  0  0  0  0
   -4.3508  -12.6737   16.8111 C   0  0  0  0  0  0  0  0  0  0  0  0
   -4.6170  -11.5130   16.0923 C   0  0  0  0  0  0  0  0  0  0  0  0
   -4.3971  -10.1065   16.6546 C   0  0  0  0  0  0  0  0  0  0  0  0
   -5.1824   -9.5023   18.9060 C   0  0  1  0  0  0  0  0  0  0  0  0
   -5.2312  -15.3229   14.2151 C   0  0  0  0  0  0  0  0  0  0  0  0
   -5.0211  -13.9683   14.8933 C   0  0  0  0  0  0  0  0  0  0  0  0
   -5.0849  -11.6457   14.7889 C   0  0  0  0  0  0  0  0  0  0  0  0
   -6.7203   -9.6576   17.2345 C   0  0  0  0  0  0  0  0  0  0  0  0
   -6.2810   -9.1780   19.6930 C   0  0  2  0  0  0  0  0  0  0  0  0
   -6.3792   -8.8102   21.1758 C   0  0  0  0  0  0  0  0  0  0  0  0
   -7.1679   -9.8358   21.9934 C   0  0  0  0  0  0  0  0  0  0  0  0
   -4.5518  -13.9192   16.2127 N   0  0  0  0  0  0  0  0  0  0  0  0
   -5.4472   -9.7528   17.6207 N   0  0  0  0  0  0  0  0  0  0  0  0
   -5.2708  -12.8284   14.2329 N   0  0  0  0  0  0  0  0  0  0  0  0
   -3.9364  -12.6079   17.9685 O   0  0  0  0  0  0  0  0  0  0  0  0
   -8.3625  -11.9097   23.6439 O   0  5  0  0  0  0  0  0  0  0  0  0
   -5.7523  -12.3986   20.0233 O   0  0  0  0  0  0  0  0  0  0  0  0
   -6.4020  -11.0189   22.2411 O   0  0  0  0  0  0  0  0  0  0  0  0
   -7.7288  -13.1050   21.4854 O   0  0  0  0  0  0  0  0  0  0  0  0
   -6.1615  -14.9088   20.4962 O   0  5  0  0  0  0  0  0  0  0  0  0
   -6.1508  -13.2411   23.5123 O   0  0  0  0  0  0  0  0  0  0  0  0
   -7.7621  -13.5976   18.9773 O   0  0  0  0  0  0  0  0  0  0  0  0
   -7.6710   -9.2935   18.6502 S   0  0  0  0  0  0  0  0  0  0  0  0
   -7.0937  -12.3739   22.7692 P   0  0  2  0  0  0  0  0  0  0  0  0
   -6.8018  -13.5944   20.2669 P   0  0  2  0  0  0  0  0  0  0  0  0
  2 16  2  0  0  0  0
  2  3  1  0  0  0  0
  2 13  1  0  0  0  0
  3  8  2  0  0  0  0
  3  4  1  0  0  0  0
  4 14  1  0  0  0  0
  5  1  1  6  0  0  0
  5 14  1  0  0  0  0
  5 10  1  0  0  0  0
  6  7  1  0  0  0  0
  7 13  1  0  0  0  0
  7 15  2  0  0  0  0
  8 15  1  0  0  0  0
  9 14  1  0  0  0  0
  9 24  1  0  0  0  0
 10 24  1  0  0  0  0
 10 11  1  1  0  0  0
 11 12  1  0  0  0  0
 12 19  1  0  0  0  0
 17 25  1  0  0  0  0
 19 25  1  0  0  0  0
 20 26  1  0  0  0  0
 21 26  1  0  0  0  0
 22 25  2  0  0  0  0
 23 26  2  0  0  0  0
 25 20  1  6  0  0  0
 26 18  1  6  0  0  0
M  CHG  2  17  -1  21  -1
M  END
>  <CHROM.1>
-75.14012110,-115.39175773,75.81255790,117.30898607,-165.50343365,173.66402681
-30.08037130,-42.30145462,-6.09321235,-11.83553152,19.19240817,-0.16101086
1.26111111,0.04565159

>  <Name>
ligand

>  <RI>
0

>  <Rbt.Current_Directory>
/home/itssahil/PROJECTS/Mol_Feturizer/New_Systems/rnas/3D2X

>  <Rbt.Executable>
rbdock ($Id: //depot/dev/client3/rdock/2013.1/src/exe/rbdock.cxx#4 $)

>  <Rbt.Library>
libRbt.so (2013.1, Build901 2013/11/27)

>  <Rbt.Parameter_File>
/export/apps/rDock/src/rDock_2013.1_src/data/scripts/dock_solv.prm

>  <Rbt.Receptor>
prm/pocket_docking_6.prm

>  <SCORE>
-18.3559

>  <SCORE.INTER>
-14.9029

>  <SCORE.INTER.CONST>
1

>  <SCORE.INTER.POLAR>
0

>  <SCORE.INTER.ROT>
8

>  <SCORE.INTER.SOLV>
13.0093

>  <SCORE.INTER.VDW>
-23.205

>  <SCORE.INTER.norm>
-0.573189

>  <SCORE.INTRA>
-3.45302

>  <SCORE.INTRA.DIHEDRAL>
0.863281

>  <SCORE.INTRA.DIHEDRAL.0>
7.88077

>  <SCORE.INTRA.POLAR>
0

>  <SCORE.INTRA.POLAR.0>
0

>  <SCORE.INTRA.REPUL>
0

>  <SCORE.INTRA.REPUL.0>
0

>  <SCORE.INTRA.SOLV>
-2.19419

>  <SCORE.INTRA.SOLV.lig_0>
-63.2542

>  <SCORE.INTRA.VDW>
-2.78757

>  <SCORE.INTRA.VDW.0>
-3.15072

>  <SCORE.INTRA.norm>
-0.132809

>  <SCORE.RESTR>
0

>  <SCORE.RESTR.CAVITY>
0

>  <SCORE.RESTR.norm>
0

>  <SCORE.SYSTEM>
0

>  <SCORE.SYSTEM.CONST>
0

>  <SCORE.SYSTEM.DIHEDRAL>
0

>  <SCORE.SYSTEM.SOLV>
0

>  <SCORE.SYSTEM.norm>
0

>  <SCORE.heavy>
26

>  <SCORE.norm>
-0.705998

>  <RMSD>
8.450

$$$$
ligand
 OpenBabel11021811473D
libRbt.so/2013.1/901 2013/11/27
 26 27  0  0  0  0  0  0  0  0999 V2000
   -7.3677  -12.2238   16.6002 C   0  0  0  0  0  0  0  0  0  0  0  0
   -6.6519  -10.4134   19.8347 C   0  0  0  0  0  0  0  0  0  0  0  0
   -6.3660   -9.3910   18.9360 C   0  0  0  0  0  0  0  0  0  0  0  0
   -6.6035   -9.5055   17.4284 C   0  0  0  0  0  0  0  0  0  0  0  0
   -5.9550  -11.6575   16.4290 C   0  0  1  0  0  0  0  0  0  0  0  0
   -5.6935   -8.7432   23.1248 C   0  0  0  0  0  0  0  0  0  0  0  0
   -5.9246   -8.9840   21.6322 C   0  0  0  0  0  0  0  0  0  0  0  0
   -5.8601   -8.1987   19.4439 C   0  0  0  0  0  0  0  0  0  0  0  0
   -4.3767  -10.0244   16.5875 C   0  0  0  0  0  0  0  0  0  0  0  0
   -4.9279  -12.3962   15.8539 C   0  0  2  0  0  0  0  0  0  0  0  0
   -4.9115  -13.8168   15.2836 C   0  0  0  0  0  0  0  0  0  0  0  0
   -3.6065  -14.5612   15.5753 C   0  0  0  0  0  0  0  0  0  0  0  0
   -6.4323  -10.2162   21.1995 N   0  0  0  0  0  0  0  0  0  0  0  0
   -5.6321  -10.4176   16.8075 N   0  0  0  0  0  0  0  0  0  0  0  0
   -5.6569   -8.0230   20.7363 N   0  0  0  0  0  0  0  0  0  0  0  0
   -7.1000  -11.4876   19.4334 O   0  0  0  0  0  0  0  0  0  0  0  0
   -6.0859  -16.7185   15.4219 O   0  5  0  0  0  0  0  0  0  0  0  0
   -2.2545  -17.9882   13.6565 O   0  0  0  0  0  0  0  0  0  0  0  0
   -3.6604  -15.9204   15.1312 O   0  0  0  0  0  0  0  0  0  0  0  0
   -4.2203  -18.4424   15.2291 O   0  0  0  0  0  0  0  0  0  0  0  0
   -1.7994  -18.7152   16.0971 O   0  5  0  0  0  0  0  0  0  0  0  0
   -4.3880  -16.9978   17.3508 O   0  0  0  0  0  0  0  0  0  0  0  0
   -2.7741  -20.3835   14.4073 O   0  0  0  0  0  0  0  0  0  0  0  0
   -3.5143  -11.3806   15.9109 S   0  0  0  0  0  0  0  0  0  0  0  0
   -4.5722  -17.0153   15.8814 P   0  0  2  0  0  0  0  0  0  0  0  0
   -2.6985  -18.8652   14.9311 P   0  0  2  0  0  0  0  0  0  0  0  0
  2 16  2  0  0  0  0
  2  3  1  0  0  0  0
  2 13  1  0  0  0  0
  3  8  2  0  0  0  0
  3  4  1  0  0  0  0
  4 14  1  0  0  0  0
  5  1  1  6  0  0  0
  5 14  1  0  0  0  0
  5 10  1  0  0  0  0
  6  7  1  0  0  0  0
  7 13  1  0  0  0  0
  7 15  2  0  0  0  0
  8 15  1  0  0  0  0
  9 14  1  0  0  0  0
  9 24  1  0  0  0  0
 10 24  1  0  0  0  0
 10 11  1  1  0  0  0
 11 12  1  0  0  0  0
 12 19  1  0  0  0  0
 17 25  1  0  0  0  0
 19 25  1  0  0  0  0
 20 26  1  0  0  0  0
 21 26  1  0  0  0  0
 22 25  2  0  0  0  0
 23 26  2  0  0  0  0
 25 20  1  6  0  0  0
 26 18  1  6  0  0  0
M  CHG  2  17  -1  21  -1
M  END
>  <CHROM.1>
-71.66789691,-142.86512133,175.09577277,104.19810902,-71.05916431,155.68661895
76.28993657,-73.22577548,-4.74064225,-13.71606072,16.97903739,-2.72255040
-1.27662458,2.49381262

>  <Name>
ligand

>  <RI>
0

>  <Rbt.Current_Directory>
/home/itssahil/PROJECTS/Mol_Feturizer/New_Systems/rnas/3D2X

>  <Rbt.Executable>
rbdock ($Id: //depot/dev/client3/rdock/2013.1/src/exe/rbdock.cxx#4 $)

>  <Rbt.Library>
libRbt.so (2013.1, Build901 2013/11/27)

>  <Rbt.Parameter_File>
/export/apps/rDock/src/rDock_2013.1_src/data/scripts/dock_solv.prm

>  <Rbt.Receptor>
prm/pocket_docking_8.prm

>  <SCORE>
-13.384

>  <SCORE.INTER>
-12.3216

>  <SCORE.INTER.CONST>
1

>  <SCORE.INTER.POLAR>
0

>  <SCORE.INTER.ROT>
8

>  <SCORE.INTER.SOLV>
11.7434

>  <SCORE.INTER.VDW>
-21.0622

>  <SCORE.INTER.norm>
-0.473909

>  <SCORE.INTRA>
-1.06234

>  <SCORE.INTRA.DIHEDRAL>
-1.12298

>  <SCORE.INTRA.DIHEDRAL.0>
7.88077

>  <SCORE.INTRA.POLAR>
0

>  <SCORE.INTRA.POLAR.0>
0

>  <SCORE.INTRA.REPUL>
0

>  <SCORE.INTRA.REPUL.0>
0

>  <SCORE.INTRA.SOLV>
-0.828229

>  <SCORE.INTRA.SOLV.lig_0>
-63.2542

>  <SCORE.INTRA.VDW>
-0.0867361

>  <SCORE.INTRA.VDW.0>
-3.15072

>  <SCORE.INTRA.norm>
-0.0408592

>  <SCORE.RESTR>
0

>  <SCORE.RESTR.CAVITY>
0

>  <SCORE.RESTR.norm>
0

>  <SCORE.SYSTEM>
0

>  <SCORE.SYSTEM.CONST>
0

>  <SCORE.SYSTEM.DIHEDRAL>
0

>  <SCORE.SYSTEM.SOLV>
0

>  <SCORE.SYSTEM.norm>
0

>  <SCORE.heavy>
26

>  <SCORE.norm>
-0.514768

>  <RMSD>
8.466

$$$$
ligand
 OpenBabel11021811473D
libRbt.so/2013.1/901 2013/11/27
 26 27  0  0  0  0  0  0  0  0999 V2000
   -3.7530  -12.3334   18.0833 C   0  0  0  0  0  0  0  0  0  0  0  0
   -4.8436   -8.8127   19.7059 C   0  0  0  0  0  0  0  0  0  0  0  0
   -5.6959   -9.7644   20.2559 C   0  0  0  0  0  0  0  0  0  0  0  0
   -5.9585  -11.1291   19.6145 C   0  0  0  0  0  0  0  0  0  0  0  0
   -4.9148  -11.5768   17.4326 C   0  0  1  0  0  0  0  0  0  0  0  0
   -5.0720   -6.0634   22.3368 C   0  0  0  0  0  0  0  0  0  0  0  0
   -5.2991   -7.3757   21.5849 C   0  0  0  0  0  0  0  0  0  0  0  0
   -6.3199   -9.4620   21.4619 C   0  0  0  0  0  0  0  0  0  0  0  0
   -6.8793  -10.4269   17.4712 C   0  0  0  0  0  0  0  0  0  0  0  0
   -5.0117  -11.4149   16.0558 C   0  0  2  0  0  0  0  0  0  0  0  0
   -4.1011  -11.8949   14.9226 C   0  0  0  0  0  0  0  0  0  0  0  0
   -4.6329  -13.1463   14.2201 C   0  0  0  0  0  0  0  0  0  0  0  0
   -4.6367   -7.6026   20.3712 N   0  0  0  0  0  0  0  0  0  0  0  0
   -5.9088  -11.0428   18.1478 N   0  0  0  0  0  0  0  0  0  0  0  0
   -6.1166   -8.3147   22.0825 N   0  0  0  0  0  0  0  0  0  0  0  0
   -4.2692   -9.0335   18.6395 O   0  0  0  0  0  0  0  0  0  0  0  0
   -4.1978  -16.0283   13.1975 O   0  5  0  0  0  0  0  0  0  0  0  0
   -5.1414  -15.2403   17.4912 O   0  0  0  0  0  0  0  0  0  0  0  0
   -4.5606  -14.2996   15.0641 O   0  0  0  0  0  0  0  0  0  0  0  0
   -4.4651  -16.8265   15.6018 O   0  0  0  0  0  0  0  0  0  0  0  0
   -6.1040  -17.6407   17.4292 O   0  5  0  0  0  0  0  0  0  0  0  0
   -6.4959  -15.8439   14.3663 O   0  0  0  0  0  0  0  0  0  0  0  0
   -3.6274  -17.2504   17.9795 O   0  0  0  0  0  0  0  0  0  0  0  0
   -6.4457  -10.4650   15.7826 S   0  0  0  0  0  0  0  0  0  0  0  0
   -5.0290  -15.7512   14.5476 P   0  0  2  0  0  0  0  0  0  0  0  0
   -4.9229  -16.7963   17.1422 P   0  0  2  0  0  0  0  0  0  0  0  0
  2 16  2  0  0  0  0
  2  3  1  0  0  0  0
  2 13  1  0  0  0  0
  3  8  2  0  0  0  0
  3  4  1  0  0  0  0
  4 14  1  0  0  0  0
  5  1  1  6  0  0  0
  5 14  1  0  0  0  0
  5 10  1  0  0  0  0
  6  7  1  0  0  0  0
  7 13  1  0  0  0  0
  7 15  2  0  0  0  0
  8 15  1  0  0  0  0
  9 14  1  0  0  0  0
  9 24  1  0  0  0  0
 10 24  1  0  0  0  0
 10 11  1  1  0  0  0
 11 12  1  0  0  0  0
 12 19  1  0  0  0  0
 17 25  1  0  0  0  0
 19 25  1  0  0  0  0
 20 26  1  0  0  0  0
 21 26  1  0  0  0  0
 22 25  2  0  0  0  0
 23 26  2  0  0  0  0
 25 20  1  1  0  0  0
 26 18  1  1  0  0  0
M  CHG  2  17  -1  21  -1
M  END
>  <CHROM.1>
-33.07980198,100.64551601,-69.59897421,109.29211533,-178.62472706,173.55123876
54.76179272,-33.55309439,-5.17978871,-12.57943235,17.40227380,-2.44641155
1.50130996,-1.69799102

>  <Name>
ligand

>  <RI>
0

>  <Rbt.Current_Directory>
/home/itssahil/PROJECTS/Mol_Feturizer/New_Systems/rnas/3D2X

>  <Rbt.Executable>
rbdock ($Id: //depot/dev/client3/rdock/2013.1/src/exe/rbdock.cxx#4 $)

>  <Rbt.Library>
libRbt.so (2013.1, Build901 2013/11/27)

>  <Rbt.Parameter_File>
/export/apps/rDock/src/rDock_2013.1_src/data/scripts/dock_solv.prm

>  <Rbt.Receptor>
prm/pocket_docking_7.prm

>  <SCORE>
-13.5597

>  <SCORE.INTER>
-10.5001

>  <SCORE.INTER.CONST>
1

>  <SCORE.INTER.POLAR>
0

>  <SCORE.INTER.ROT>
8

>  <SCORE.INTER.SOLV>
19.7102

>  <SCORE.INTER.VDW>
-22.5035

>  <SCORE.INTER.norm>
-0.40385

>  <SCORE.INTRA>
-3.05956

>  <SCORE.INTRA.DIHEDRAL>
-1.03836

>  <SCORE.INTRA.DIHEDRAL.0>
7.88077

>  <SCORE.INTRA.POLAR>
0

>  <SCORE.INTRA.POLAR.0>
0

>  <SCORE.INTRA.REPUL>
0

>  <SCORE.INTRA.REPUL.0>
0

>  <SCORE.INTRA.SOLV>
-2.5554

>  <SCORE.INTRA.SOLV.lig_0>
-63.2542

>  <SCORE.INTRA.VDW>
-1.26268

>  <SCORE.INTRA.VDW.0>
-3.15072

>  <SCORE.INTRA.norm>
-0.117675

>  <SCORE.RESTR>
0

>  <SCORE.RESTR.CAVITY>
0

>  <SCORE.RESTR.norm>
0

>  <SCORE.SYSTEM>
0

>  <SCORE.SYSTEM.CONST>
0

>  <SCORE.SYSTEM.DIHEDRAL>
0

>  <SCORE.SYSTEM.SOLV>
0

>  <SCORE.SYSTEM.norm>
0

>  <SCORE.heavy>
26

>  <SCORE.norm>
-0.521525

>  <RMSD>
8.500

$$$$
ligand
 OpenBabel11021811473D
libRbt.so/2013.1/901 2013/11/27
 26 27  0  0  0  0  0  0  0  0999 V2000
   -2.9501  -11.3949   16.6742 C   0  0  0  0  0  0  0  0  0  0  0  0
   -5.5160  -13.8540   16.0974 C   0  0  0  0  0  0  0  0  0  0  0  0
   -4.8695  -13.4144   14.9469 C   0  0  0  0  0  0  0  0  0  0  0  0
   -4.8523  -11.9510   14.4990 C   0  0  0  0  0  0  0  0  0  0  0  0
   -4.3562  -10.7911   16.6106 C   0  0  1  0  0  0  0  0  0  0  0  0
   -4.6572  -17.5671   16.0084 C   0  0  0  0  0  0  0  0  0  0  0  0
   -4.7459  -16.0881   15.6293 C   0  0  0  0  0  0  0  0  0  0  0  0
   -4.1871  -14.3552   14.1822 C   0  0  0  0  0  0  0  0  0  0  0  0
   -6.3913  -10.4522   15.6479 C   0  0  0  0  0  0  0  0  0  0  0  0
   -4.8306   -9.9202   17.5842 C   0  0  2  0  0  0  0  0  0  0  0  0
   -4.1646   -9.3687   18.8474 C   0  0  0  0  0  0  0  0  0  0  0  0
   -4.6360  -10.0691   20.1240 C   0  0  0  0  0  0  0  0  0  0  0  0
   -5.4583  -15.2039   16.4502 N   0  0  0  0  0  0  0  0  0  0  0  0
   -5.2013  -11.0535   15.6097 N   0  0  0  0  0  0  0  0  0  0  0  0
   -4.1388  -15.6288   14.5256 N   0  0  0  0  0  0  0  0  0  0  0  0
   -6.1342  -13.0596   16.8062 O   0  0  0  0  0  0  0  0  0  0  0  0
   -4.0027  -12.1214   22.4509 O   0  5  0  0  0  0  0  0  0  0  0  0
   -8.4788  -11.7390   23.2270 O   0  0  0  0  0  0  0  0  0  0  0  0
   -4.5345  -11.4924   20.0166 O   0  0  0  0  0  0  0  0  0  0  0  0
   -6.4337  -11.9618   21.7066 O   0  0  0  0  0  0  0  0  0  0  0  0
   -7.4117  -14.0652   22.8501 O   0  5  0  0  0  0  0  0  0  0  0  0
   -4.9725  -13.8912   20.8357 O   0  0  0  0  0  0  0  0  0  0  0  0
   -6.1835  -12.2834   24.2302 O   0  0  0  0  0  0  0  0  0  0  0  0
   -6.4667   -9.5345   17.1288 S   0  0  0  0  0  0  0  0  0  0  0  0
   -4.9843  -12.4614   21.2215 P   0  0  2  0  0  0  0  0  0  0  0  0
   -7.1498  -12.6152   22.9887 P   0  0  2  0  0  0  0  0  0  0  0  0
  2 16  2  0  0  0  0
  2  3  1  0  0  0  0
  2 13  1  0  0  0  0
  3  8  2  0  0  0  0
  3  4  1  0  0  0  0
  4 14  1  0  0  0  0
  5  1  1  6  0  0  0
  5 14  1  0  0  0  0
  5 10  1  0  0  0  0
  6  7  1  0  0  0  0
  7 13  1  0  0  0  0
  7 15  2  0  0  0  0
  8 15  1  0  0  0  0
  9 14  1  0  0  0  0
  9 24  1  0  0  0  0
 10 24  1  0  0  0  0
 10 11  1  1  0  0  0
 11 12  1  0  0  0  0
 12 19  1  0  0  0  0
 17 25  1  0  0  0  0
 19 25  1  0  0  0  0
 20 26  1  0  0  0  0
 21 26  1  0  0  0  0
 22 25  2  0  0  0  0
 23 26  2  0  0  0  0
 25 20  1  1  0  0  0
 26 18  1  1  0  0  0
M  CHG  2  17  -1  21  -1
M  END
>  <CHROM.1>
18.29002050,-102.24071896,51.38625137,73.99854072,-179.31361787,-62.50864054
-63.37242510,173.95004513,-5.43929324,-12.42605514,18.78855616,-0.11583754
1.35993087,-0.03931548

>  <Name>
ligand

>  <RI>
0

>  <Rbt.Current_Directory>
/home/itssahil/PROJECTS/Mol_Feturizer/New_Systems/rnas/3D2X

>  <Rbt.Executable>
rbdock ($Id: //depot/dev/client3/rdock/2013.1/src/exe/rbdock.cxx#4 $)

>  <Rbt.Library>
libRbt.so (2013.1, Build901 2013/11/27)

>  <Rbt.Parameter_File>
/export/apps/rDock/src/rDock_2013.1_src/data/scripts/dock_solv.prm

>  <Rbt.Receptor>
prm/pocket_docking_8.prm

>  <SCORE>
-11.9472

>  <SCORE.INTER>
-10.4408

>  <SCORE.INTER.CONST>
1

>  <SCORE.INTER.POLAR>
0

>  <SCORE.INTER.ROT>
8

>  <SCORE.INTER.SOLV>
5.75958

>  <SCORE.INTER.VDW>
-17.8137

>  <SCORE.INTER.norm>
-0.40157

>  <SCORE.INTRA>
-1.50638

>  <SCORE.INTRA.DIHEDRAL>
-2.39413

>  <SCORE.INTRA.DIHEDRAL.0>
7.88077

>  <SCORE.INTRA.POLAR>
0

>  <SCORE.INTRA.POLAR.0>
0

>  <SCORE.INTRA.REPUL>
0.0147469

>  <SCORE.INTRA.REPUL.0>
0

>  <SCORE.INTRA.SOLV>
0.98945

>  <SCORE.INTRA.SOLV.lig_0>
-63.2542

>  <SCORE.INTRA.VDW>
-0.877775

>  <SCORE.INTRA.VDW.0>
-3.15072

>  <SCORE.INTRA.norm>
-0.0579377

>  <SCORE.RESTR>
0

>  <SCORE.RESTR.CAVITY>
0

>  <SCORE.RESTR.norm>
0

>  <SCORE.SYSTEM>
0

>  <SCORE.SYSTEM.CONST>
0

>  <SCORE.SYSTEM.DIHEDRAL>
0

>  <SCORE.SYSTEM.SOLV>
0

>  <SCORE.SYSTEM.norm>
0

>  <SCORE.heavy>
26

>  <SCORE.norm>
-0.459508

>  <RMSD>
8.520

$$$$
ligand
 OpenBabel11021811473D
libRbt.so/2013.1/901 2013/11/27
 26 27  0  0  0  0  0  0  0  0999 V2000
   -5.3582  -10.0022   17.1311 C   0  0  0  0  0  0  0  0  0  0  0  0
   -2.8412  -11.5433   21.1664 C   0  0  0  0  0  0  0  0  0  0  0  0
   -2.6305  -10.3116   20.5555 C   0  0  0  0  0  0  0  0  0  0  0  0
   -3.4526   -9.8115   19.3652 C   0  0  0  0  0  0  0  0  0  0  0  0
   -3.9792  -10.6684   17.1205 C   0  0  1  0  0  0  0  0  0  0  0  0
   -0.2368  -11.4014   23.9466 C   0  0  0  0  0  0  0  0  0  0  0  0
   -1.0853  -11.0234   22.7315 C   0  0  0  0  0  0  0  0  0  0  0  0
   -1.6354   -9.4885   21.0730 C   0  0  0  0  0  0  0  0  0  0  0  0
   -1.9452  -11.1667   18.0137 C   0  0  0  0  0  0  0  0  0  0  0  0
   -3.5254  -11.4094   16.0359 C   0  0  2  0  0  0  0  0  0  0  0  0
   -4.1866  -11.7304   14.6930 C   0  0  0  0  0  0  0  0  0  0  0  0
   -4.8358  -13.1161   14.6644 C   0  0  0  0  0  0  0  0  0  0  0  0
   -2.0650  -11.9112   22.2673 N   0  0  0  0  0  0  0  0  0  0  0  0
   -3.1277  -10.5636   18.1446 N   0  0  0  0  0  0  0  0  0  0  0  0
   -0.9079   -9.8462   22.1147 N   0  0  0  0  0  0  0  0  0  0  0  0
   -3.7094  -12.3073   20.7439 O   0  0  0  0  0  0  0  0  0  0  0  0
   -4.1778  -16.1041   13.1847 O   0  5  0  0  0  0  0  0  0  0  0  0
   -1.8753  -17.6580   17.4013 O   0  0  0  0  0  0  0  0  0  0  0  0
   -3.8698  -14.1580   14.8346 O   0  0  0  0  0  0  0  0  0  0  0  0
   -3.1097  -16.5501   15.4539 O   0  0  0  0  0  0  0  0  0  0  0  0
   -2.3074  -15.1078   17.4451 O   0  5  0  0  0  0  0  0  0  0  0  0
   -5.6153  -15.9816   15.3295 O   0  0  0  0  0  0  0  0  0  0  0  0
   -4.2527  -16.7578   17.7310 O   0  0  0  0  0  0  0  0  0  0  0  0
   -1.9514  -12.0048   16.4846 S   0  0  0  0  0  0  0  0  0  0  0  0
   -4.2828  -15.7117   14.7421 P   0  0  2  0  0  0  0  0  0  0  0  0
   -2.8425  -16.4250   17.0339 P   0  0  2  0  0  0  0  0  0  0  0  0
  2 16  2  0  0  0  0
  2  3  1  0  0  0  0
  2 13  1  0  0  0  0
  3  8  2  0  0  0  0
  3  4  1  0  0  0  0
  4 14  1  0  0  0  0
  5  1  1  6  0  0  0
  5 14  1  0  0  0  0
  5 10  1  0  0  0  0
  6  7  1  0  0  0  0
  7 13  1  0  0  0  0
  7 15  2  0  0  0  0
  8 15  1  0  0  0  0
  9 14  1  0  0  0  0
  9 24  1  0  0  0  0
 10 24  1  0  0  0  0
 10 11  1  1  0  0  0
 11 12  1  0  0  0  0
 12 19  1  0  0  0  0
 17 25  1  0  0  0  0
 19 25  1  0  0  0  0
 20 26  1  0  0  0  0
 21 26  1  0  0  0  0
 22 25  2  0  0  0  0
 23 26  2  0  0  0  0
 25 20  1  1  0  0  0
 26 18  1  1  0  0  0
M  CHG  2  17  -1  21  -1
M  END
>  <CHROM.1>
-71.08398758,-98.56220454,-63.05565931,156.05719778,-175.78220082,178.78395178
87.42957629,166.19960320,-3.09904922,-13.18982193,17.71633794,0.92013123
-1.15526500,0.27590480

>  <Name>
ligand

>  <RI>
0

>  <Rbt.Current_Directory>
/home/itssahil/PROJECTS/Mol_Feturizer/New_Systems/rnas/3D2X

>  <Rbt.Executable>
rbdock ($Id: //depot/dev/client3/rdock/2013.1/src/exe/rbdock.cxx#4 $)

>  <Rbt.Library>
libRbt.so (2013.1, Build901 2013/11/27)

>  <Rbt.Parameter_File>
/export/apps/rDock/src/rDock_2013.1_src/data/scripts/dock_solv.prm

>  <Rbt.Receptor>
prm/pocket_docking_7.prm

>  <SCORE>
-12.3946

>  <SCORE.INTER>
-10.3111

>  <SCORE.INTER.CONST>
1

>  <SCORE.INTER.POLAR>
0

>  <SCORE.INTER.ROT>
8

>  <SCORE.INTER.SOLV>
11.2806

>  <SCORE.INTER.VDW>
-19.5676

>  <SCORE.INTER.norm>
-0.396583

>  <SCORE.INTRA>
-2.0835

>  <SCORE.INTRA.DIHEDRAL>
-1.85228

>  <SCORE.INTRA.DIHEDRAL.0>
7.88077

>  <SCORE.INTRA.POLAR>
0

>  <SCORE.INTRA.POLAR.0>
0

>  <SCORE.INTRA.REPUL>
0

>  <SCORE.INTRA.REPUL.0>
0

>  <SCORE.INTRA.SOLV>
-0.130704

>  <SCORE.INTRA.SOLV.lig_0>
-63.2542

>  <SCORE.INTRA.VDW>
-1.09201

>  <SCORE.INTRA.VDW.0>
-3.15072

>  <SCORE.INTRA.norm>
-0.0801345

>  <SCORE.RESTR>
0

>  <SCORE.RESTR.CAVITY>
0

>  <SCORE.RESTR.norm>
0

>  <SCORE.SYSTEM>
0

>  <SCORE.SYSTEM.CONST>
0

>  <SCORE.SYSTEM.DIHEDRAL>
0

>  <SCORE.SYSTEM.SOLV>
0

>  <SCORE.SYSTEM.norm>
0

>  <SCORE.heavy>
26

>  <SCORE.norm>
-0.476717

>  <RMSD>
8.529

$$$$
ligand
 OpenBabel11021811473D
libRbt.so/2013.1/901 2013/11/27
 26 27  0  0  0  0  0  0  0  0999 V2000
   -4.1640  -10.0201   16.9809 C   0  0  0  0  0  0  0  0  0  0  0  0
   -3.2355   -8.7967   21.3052 C   0  0  0  0  0  0  0  0  0  0  0  0
   -4.2589   -8.0951   20.6767 C   0  0  0  0  0  0  0  0  0  0  0  0
   -4.4454   -8.0603   19.1579 C   0  0  0  0  0  0  0  0  0  0  0  0
   -5.4679   -9.8024   17.7544 C   0  0  1  0  0  0  0  0  0  0  0  0
   -4.0493   -8.0965   24.9630 C   0  0  0  0  0  0  0  0  0  0  0  0
   -4.1121   -8.0904   23.4349 C   0  0  0  0  0  0  0  0  0  0  0  0
   -5.1684   -7.4114   21.4772 C   0  0  0  0  0  0  0  0  0  0  0  0
   -6.7497   -8.8242   19.3616 C   0  0  0  0  0  0  0  0  0  0  0  0
   -6.6184  -10.5332   17.4827 C   0  0  2  0  0  0  0  0  0  0  0  0
   -6.8850  -11.6417   16.4612 C   0  0  0  0  0  0  0  0  0  0  0  0
   -5.8991  -12.8068   16.5749 C   0  0  0  0  0  0  0  0  0  0  0  0
   -3.1539   -8.8003   22.6991 N   0  0  0  0  0  0  0  0  0  0  0  0
   -5.5710   -8.9103   18.7434 N   0  0  0  0  0  0  0  0  0  0  0  0
   -5.0820   -7.4220   22.7944 N   0  0  0  0  0  0  0  0  0  0  0  0
   -2.4054   -9.4162   20.6396 O   0  0  0  0  0  0  0  0  0  0  0  0
   -3.6606  -14.6665   15.5120 O   0  5  0  0  0  0  0  0  0  0  0  0
   -5.2971  -17.7272   18.5954 O   0  0  0  0  0  0  0  0  0  0  0  0
   -6.0590  -13.7433   15.5049 O   0  0  0  0  0  0  0  0  0  0  0  0
   -5.4687  -15.8816   16.8325 O   0  0  0  0  0  0  0  0  0  0  0  0
   -4.9396  -18.3046   16.0992 O   0  5  0  0  0  0  0  0  0  0  0  0
   -5.5349  -15.9335   14.2616 O   0  0  0  0  0  0  0  0  0  0  0  0
   -3.1949  -16.9175   17.3722 O   0  0  0  0  0  0  0  0  0  0  0  0
   -7.8427   -9.9210   18.5595 S   0  0  0  0  0  0  0  0  0  0  0  0
   -5.2069  -15.1085   15.4470 P   0  0  2  0  0  0  0  0  0  0  0  0
   -4.7453  -17.2812   17.1506 P   0  0  2  0  0  0  0  0  0  0  0  0
  2 16  2  0  0  0  0
  2  3  1  0  0  0  0
  2 13  1  0  0  0  0
  3  8  2  0  0  0  0
  3  4  1  0  0  0  0
  4 14  1  0  0  0  0
  5  1  1  1  0  0  0
  5 14  1  0  0  0  0
  5 10  1  0  0  0  0
  6  7  1  0  0  0  0
  7 13  1  0  0  0  0
  7 15  2  0  0  0  0
  8 15  1  0  0  0  0
  9 14  1  0  0  0  0
  9 24  1  0  0  0  0
 10 24  1  0  0  0  0
 10 11  1  6  0  0  0
 11 12  1  0  0  0  0
 12 19  1  0  0  0  0
 17 25  1  0  0  0  0
 19 25  1  0  0  0  0
 20 26  1  0  0  0  0
 21 26  1  0  0  0  0
 22 25  2  0  0  0  0
 23 26  2  0  0  0  0
 25 20  1  1  0  0  0
 26 18  1  1  0  0  0
M  CHG  2  17  -1  21  -1
M  END
>  <CHROM.1>
104.96380113,54.62275206,-172.45832317,-131.04026280,-175.93355961,-66.37731003
-55.82841919,-178.64877407,-5.07056249,-12.14134768,18.37866378,1.50136741
-0.98897191,0.52092677

>  <Name>
ligand

>  <RI>
0

>  <Rbt.Current_Directory>
/home/itssahil/PROJECTS/Mol_Feturizer/New_Systems/rnas/3D2X

>  <Rbt.Executable>
rbdock ($Id: //depot/dev/client3/rdock/2013.1/src/exe/rbdock.cxx#4 $)

>  <Rbt.Library>
libRbt.so (2013.1, Build901 2013/11/27)

>  <Rbt.Parameter_File>
/export/apps/rDock/src/rDock_2013.1_src/data/scripts/dock_solv.prm

>  <Rbt.Receptor>
prm/pocket_docking_7.prm

>  <SCORE>
-14.8204

>  <SCORE.INTER>
-13.7478

>  <SCORE.INTER.CONST>
1

>  <SCORE.INTER.POLAR>
0

>  <SCORE.INTER.ROT>
8

>  <SCORE.INTER.SOLV>
9.8752

>  <SCORE.INTER.VDW>
-21.3903

>  <SCORE.INTER.norm>
-0.528763

>  <SCORE.INTRA>
-1.07256

>  <SCORE.INTRA.DIHEDRAL>
-2.93317

>  <SCORE.INTRA.DIHEDRAL.0>
7.88077

>  <SCORE.INTRA.POLAR>
0

>  <SCORE.INTRA.POLAR.0>
0

>  <SCORE.INTRA.REPUL>
0

>  <SCORE.INTRA.REPUL.0>
0

>  <SCORE.INTRA.SOLV>
0.42404

>  <SCORE.INTRA.SOLV.lig_0>
-63.2542

>  <SCORE.INTRA.VDW>
0.182001

>  <SCORE.INTRA.VDW.0>
-3.15072

>  <SCORE.INTRA.norm>
-0.0412524

>  <SCORE.RESTR>
0

>  <SCORE.RESTR.CAVITY>
0

>  <SCORE.RESTR.norm>
0

>  <SCORE.SYSTEM>
0

>  <SCORE.SYSTEM.CONST>
0

>  <SCORE.SYSTEM.DIHEDRAL>
0

>  <SCORE.SYSTEM.SOLV>
0

>  <SCORE.SYSTEM.norm>
0

>  <SCORE.heavy>
26

>  <SCORE.norm>
-0.570016

>  <RMSD>
8.591

$$$$
ligand
 OpenBabel11021811473D
libRbt.so/2013.1/901 2013/11/27
 26 27  0  0  0  0  0  0  0  0999 V2000
   -4.1565   -9.9299   19.8190 C   0  0  0  0  0  0  0  0  0  0  0  0
   -3.7844  -12.1078   15.9100 C   0  0  0  0  0  0  0  0  0  0  0  0
   -4.8783  -11.3519   16.3182 C   0  0  0  0  0  0  0  0  0  0  0  0
   -4.7534   -9.9579   16.9377 C   0  0  0  0  0  0  0  0  0  0  0  0
   -5.5612   -9.7144   19.2482 C   0  0  1  0  0  0  0  0  0  0  0  0
   -5.5428  -15.1889   14.5145 C   0  0  0  0  0  0  0  0  0  0  0  0
   -5.2992  -13.8272   15.1669 C   0  0  0  0  0  0  0  0  0  0  0  0
   -6.1483  -11.8876   16.1294 C   0  0  0  0  0  0  0  0  0  0  0  0
   -7.0663   -9.5032   17.5531 C   0  0  0  0  0  0  0  0  0  0  0  0
   -6.6614   -9.4779   20.0637 C   0  0  2  0  0  0  0  0  0  0  0  0
   -6.7764   -9.3676   21.5862 C   0  0  0  0  0  0  0  0  0  0  0  0
   -7.1534  -10.6926   22.2530 C   0  0  0  0  0  0  0  0  0  0  0  0
   -3.9878  -13.3600   15.3266 N   0  0  0  0  0  0  0  0  0  0  0  0
   -5.8079   -9.7258   17.9352 N   0  0  0  0  0  0  0  0  0  0  0  0
   -6.3290  -13.0725   15.5762 N   0  0  0  0  0  0  0  0  0  0  0  0
   -2.6404  -11.6771   16.0572 O   0  0  0  0  0  0  0  0  0  0  0  0
   -5.3635  -14.1384   21.6320 O   0  5  0  0  0  0  0  0  0  0  0  0
   -3.8182  -14.5225   24.0018 O   0  0  0  0  0  0  0  0  0  0  0  0
   -6.2383  -11.7380   21.9105 O   0  0  0  0  0  0  0  0  0  0  0  0
   -6.0817  -13.3325   23.9394 O   0  0  0  0  0  0  0  0  0  0  0  0
   -3.9033  -11.9403   23.8701 O   0  5  0  0  0  0  0  0  0  0  0  0
   -7.8656  -13.7185   22.1268 O   0  0  0  0  0  0  0  0  0  0  0  0
   -4.6074  -13.1531   26.0199 O   0  0  0  0  0  0  0  0  0  0  0  0
   -8.0313   -9.3433   18.9966 S   0  0  0  0  0  0  0  0  0  0  0  0
   -6.4817  -13.2579   22.3836 P   0  0  2  0  0  0  0  0  0  0  0  0
   -4.5563  -13.1525   24.4129 P   0  0  2  0  0  0  0  0  0  0  0  0
  2 16  2  0  0  0  0
  2  3  1  0  0  0  0
  2 13  1  0  0  0  0
  3  8  2  0  0  0  0
  3  4  1  0  0  0  0
  4 14  1  0  0  0  0
  5  1  1  6  0  0  0
  5 14  1  0  0  0  0
  5 10  1  0  0  0  0
  6  7  1  0  0  0  0
  7 13  1  0  0  0  0
  7 15  2  0  0  0  0
  8 15  1  0  0  0  0
  9 14  1  0  0  0  0
  9 24  1  0  0  0  0
 10 24  1  0  0  0  0
 10 11  1  1  0  0  0
 11 12  1  0  0  0  0
 12 19  1  0  0  0  0
 17 25  1  0  0  0  0
 19 25  1  0  0  0  0
 20 26  1  0  0  0  0
 21 26  1  0  0  0  0
 22 25  2  0  0  0  0
 23 26  2  0  0  0  0
 25 20  1  1  0  0  0
 26 18  1  6  0  0  0
M  CHG  2  17  -1  21  -1
M  END
>  <CHROM.1>
-146.67911637,-93.96350651,55.61128664,106.80689181,-174.83996515,44.47293494
172.26634469,-73.82951034,-5.60288380,-11.95841101,20.05968375,1.55055932
1.09009664,-1.41945025

>  <Name>
ligand

>  <RI>
0

>  <Rbt.Current_Directory>
/home/itssahil/PROJECTS/Mol_Feturizer/New_Systems/rnas/3D2X

>  <Rbt.Executable>
rbdock ($Id: //depot/dev/client3/rdock/2013.1/src/exe/rbdock.cxx#4 $)

>  <Rbt.Library>
libRbt.so (2013.1, Build901 2013/11/27)

>  <Rbt.Parameter_File>
/export/apps/rDock/src/rDock_2013.1_src/data/scripts/dock_solv.prm

>  <Rbt.Receptor>
prm/pocket_docking_6.prm

>  <SCORE>
-17.8884

>  <SCORE.INTER>
-15.419

>  <SCORE.INTER.CONST>
1

>  <SCORE.INTER.POLAR>
0

>  <SCORE.INTER.ROT>
8

>  <SCORE.INTER.SOLV>
10.1167

>  <SCORE.INTER.VDW>
-22.5849

>  <SCORE.INTER.norm>
-0.593037

>  <SCORE.INTRA>
-2.46945

>  <SCORE.INTRA.DIHEDRAL>
-2.21326

>  <SCORE.INTRA.DIHEDRAL.0>
7.88077

>  <SCORE.INTRA.POLAR>
0

>  <SCORE.INTRA.POLAR.0>
0

>  <SCORE.INTRA.REPUL>
0

>  <SCORE.INTRA.REPUL.0>
0

>  <SCORE.INTRA.SOLV>
-1.12729

>  <SCORE.INTRA.SOLV.lig_0>
-63.2542

>  <SCORE.INTRA.VDW>
-0.799179

>  <SCORE.INTRA.VDW.0>
-3.15072

>  <SCORE.INTRA.norm>
-0.094979

>  <SCORE.RESTR>
0

>  <SCORE.RESTR.CAVITY>
0

>  <SCORE.RESTR.norm>
0

>  <SCORE.SYSTEM>
0

>  <SCORE.SYSTEM.CONST>
0

>  <SCORE.SYSTEM.DIHEDRAL>
0

>  <SCORE.SYSTEM.SOLV>
0

>  <SCORE.SYSTEM.norm>
0

>  <SCORE.heavy>
26

>  <SCORE.norm>
-0.688016

>  <RMSD>
8.595

$$$$
ligand
 OpenBabel11021811473D
libRbt.so/2013.1/901 2013/11/27
 26 27  0  0  0  0  0  0  0  0999 V2000
   -7.5162  -12.1966   16.6023 C   0  0  0  0  0  0  0  0  0  0  0  0
   -7.3085   -9.6666   19.6114 C   0  0  0  0  0  0  0  0  0  0  0  0
   -6.2612   -9.9258   18.7335 C   0  0  0  0  0  0  0  0  0  0  0  0
   -6.3116   -9.5890   17.2413 C   0  0  0  0  0  0  0  0  0  0  0  0
   -6.1121  -11.7844   16.1503 C   0  0  1  0  0  0  0  0  0  0  0  0
   -5.7923  -10.8844   22.8902 C   0  0  0  0  0  0  0  0  0  0  0  0
   -5.9696  -10.5510   21.4081 C   0  0  0  0  0  0  0  0  0  0  0  0
   -5.1039  -10.4997   19.2500 C   0  0  0  0  0  0  0  0  0  0  0  0
   -4.3651  -10.3346   15.9804 C   0  0  0  0  0  0  0  0  0  0  0  0
   -5.3057  -12.6222   15.3891 C   0  0  2  0  0  0  0  0  0  0  0  0
   -5.5574  -14.0281   14.8382 C   0  0  0  0  0  0  0  0  0  0  0  0
   -4.3985  -14.9905   15.1083 C   0  0  0  0  0  0  0  0  0  0  0  0
   -7.1696   -9.9790   20.9653 N   0  0  0  0  0  0  0  0  0  0  0  0
   -5.5875  -10.5923   16.4476 N   0  0  0  0  0  0  0  0  0  0  0  0
   -4.9833  -10.7904   20.5320 N   0  0  0  0  0  0  0  0  0  0  0  0
   -8.3535   -9.1608   19.2016 O   0  0  0  0  0  0  0  0  0  0  0  0
   -2.3608  -17.0811   15.4054 O   0  5  0  0  0  0  0  0  0  0  0  0
   -5.1866  -19.9734   17.3637 O   0  0  0  0  0  0  0  0  0  0  0  0
   -4.3886  -16.0820   14.1830 O   0  0  0  0  0  0  0  0  0  0  0  0
   -4.6111  -18.2665   15.5474 O   0  0  0  0  0  0  0  0  0  0  0  0
   -4.2122  -20.7838   15.1086 O   0  5  0  0  0  0  0  0  0  0  0  0
   -3.3279  -18.2600   13.3181 O   0  0  0  0  0  0  0  0  0  0  0  0
   -2.7375  -19.5010   16.7723 O   0  0  0  0  0  0  0  0  0  0  0  0
   -3.8065  -11.7667   15.1572 S   0  0  0  0  0  0  0  0  0  0  0  0
   -3.6531  -17.4720   14.5292 P   0  0  2  0  0  0  0  0  0  0  0  0
   -4.1945  -19.7077   16.1245 P   0  0  2  0  0  0  0  0  0  0  0  0
  2 16  2  0  0  0  0
  2  3  1  0  0  0  0
  2 13  1  0  0  0  0
  3  8  2  0  0  0  0
  3  4  1  0  0  0  0
  4 14  1  0  0  0  0
  5  1  1  6  0  0  0
  5 14  1  0  0  0  0
  5 10  1  0  0  0  0
  6  7  1  0  0  0  0
  7 13  1  0  0  0  0
  7 15  2  0  0  0  0
  8 15  1  0  0  0  0
  9 14  1  0  0  0  0
  9 24  1  0  0  0  0
 10 24  1  0  0  0  0
 10 11  1  1  0  0  0
 11 12  1  0  0  0  0
 12 19  1  0  0  0  0
 17 25  1  0  0  0  0
 19 25  1  0  0  0  0
 20 26  1  0  0  0  0
 21 26  1  0  0  0  0
 22 25  2  0  0  0  0
 23 26  2  0  0  0  0
 25 20  1  1  0  0  0
 26 18  1  1  0  0  0
M  CHG  2  17  -1  21  -1
M  END
>  <CHROM.1>
-145.32870871,-132.10536757,-157.05694692,78.33177597,-157.75763922,-67.53802170
-34.58953066,165.49945238,-4.97382737,-14.24813008,16.78207013,-2.62867327
-1.28023594,2.52066918

>  <Name>
ligand

>  <RI>
0

>  <Rbt.Current_Directory>
/home/itssahil/PROJECTS/Mol_Feturizer/New_Systems/rnas/3D2X

>  <Rbt.Executable>
rbdock ($Id: //depot/dev/client3/rdock/2013.1/src/exe/rbdock.cxx#4 $)

>  <Rbt.Library>
libRbt.so (2013.1, Build901 2013/11/27)

>  <Rbt.Parameter_File>
/export/apps/rDock/src/rDock_2013.1_src/data/scripts/dock_solv.prm

>  <Rbt.Receptor>
prm/pocket_docking_8.prm

>  <SCORE>
-13.1383

>  <SCORE.INTER>
-14.3559

>  <SCORE.INTER.CONST>
1

>  <SCORE.INTER.POLAR>
0

>  <SCORE.INTER.ROT>
8

>  <SCORE.INTER.SOLV>
13.7062

>  <SCORE.INTER.VDW>
-23.0727

>  <SCORE.INTER.norm>
-0.55215

>  <SCORE.INTRA>
1.21763

>  <SCORE.INTRA.DIHEDRAL>
2.04556

>  <SCORE.INTRA.DIHEDRAL.0>
7.88077

>  <SCORE.INTRA.POLAR>
0

>  <SCORE.INTRA.POLAR.0>
0

>  <SCORE.INTRA.REPUL>
0

>  <SCORE.INTRA.REPUL.0>
0

>  <SCORE.INTRA.SOLV>
0.5089

>  <SCORE.INTRA.SOLV.lig_0>
-63.2542

>  <SCORE.INTRA.VDW>
-0.0595995

>  <SCORE.INTRA.VDW.0>
-3.15072

>  <SCORE.INTRA.norm>
0.0468319

>  <SCORE.RESTR>
0

>  <SCORE.RESTR.CAVITY>
0

>  <SCORE.RESTR.norm>
0

>  <SCORE.SYSTEM>
0

>  <SCORE.SYSTEM.CONST>
0

>  <SCORE.SYSTEM.DIHEDRAL>
0

>  <SCORE.SYSTEM.SOLV>
0

>  <SCORE.SYSTEM.norm>
0

>  <SCORE.heavy>
26

>  <SCORE.norm>
-0.505318

>  <RMSD>
8.596

$$$$
ligand
 OpenBabel11021811473D
libRbt.so/2013.1/901 2013/11/27
 26 27  0  0  0  0  0  0  0  0999 V2000
    0.1267  -12.0732   19.3525 C   0  0  0  0  0  0  0  0  0  0  0  0
   -2.5858  -10.0805   21.7348 C   0  0  0  0  0  0  0  0  0  0  0  0
   -1.3336   -9.8999   21.1568 C   0  0  0  0  0  0  0  0  0  0  0  0
   -0.0363  -10.4195   21.7810 C   0  0  0  0  0  0  0  0  0  0  0  0
    0.0323  -12.6584   20.7647 C   0  0  1  0  0  0  0  0  0  0  0  0
   -4.8102   -8.4226   19.1203 C   0  0  0  0  0  0  0  0  0  0  0  0
   -3.5740   -8.9413   19.8563 C   0  0  0  0  0  0  0  0  0  0  0  0
   -1.2678   -9.2321   19.9382 C   0  0  0  0  0  0  0  0  0  0  0  0
   -0.0906  -12.5087   23.0331 C   0  0  0  0  0  0  0  0  0  0  0  0
    0.0274  -14.0285   20.9974 C   0  0  2  0  0  0  0  0  0  0  0  0
    0.1137  -15.2109   20.0290 C   0  0  0  0  0  0  0  0  0  0  0  0
   -1.1085  -15.3231   19.1147 C   0  0  0  0  0  0  0  0  0  0  0  0
   -3.7238   -9.5996   21.0841 N   0  0  0  0  0  0  0  0  0  0  0  0
   -0.0352  -11.8878   21.8539 N   0  0  0  0  0  0  0  0  0  0  0  0
   -2.3504   -8.7820   19.3316 N   0  0  0  0  0  0  0  0  0  0  0  0
   -2.6952  -10.6642   22.8133 O   0  0  0  0  0  0  0  0  0  0  0  0
   -3.6539  -14.4849   17.7730 O   0  5  0  0  0  0  0  0  0  0  0  0
   -5.0000  -18.9779   17.6728 O   0  0  0  0  0  0  0  0  0  0  0  0
   -2.3320  -15.2221   19.8499 O   0  0  0  0  0  0  0  0  0  0  0  0
   -3.8944  -16.8750   18.6209 O   0  0  0  0  0  0  0  0  0  0  0  0
   -6.4632  -17.1409   18.7576 O   0  5  0  0  0  0  0  0  0  0  0  0
   -4.8847  -14.9423   19.9996 O   0  0  0  0  0  0  0  0  0  0  0  0
   -5.3146  -16.7197   16.5011 O   0  0  0  0  0  0  0  0  0  0  0  0
   -0.1397  -14.2234   22.7200 S   0  0  0  0  0  0  0  0  0  0  0  0
   -3.7633  -15.3532   19.1238 P   0  0  2  0  0  0  0  0  0  0  0  0
   -5.2527  -17.4127   17.9507 P   0  0  2  0  0  0  0  0  0  0  0  0
  2 16  2  0  0  0  0
  2  3  1  0  0  0  0
  2 13  1  0  0  0  0
  3  8  2  0  0  0  0
  3  4  1  0  0  0  0
  4 14  1  0  0  0  0
  5  1  1  1  0  0  0
  5 14  1  0  0  0  0
  5 10  1  0  0  0  0
  6  7  1  0  0  0  0
  7 13  1  0  0  0  0
  7 15  2  0  0  0  0
  8 15  1  0  0  0  0
  9 14  1  0  0  0  0
  9 24  1  0  0  0  0
 10 24  1  0  0  0  0
 10 11  1  6  0  0  0
 11 12  1  0  0  0  0
 12 19  1  0  0  0  0
 17 25  1  0  0  0  0
 19 25  1  0  0  0  0
 20 26  1  0  0  0  0
 21 26  1  0  0  0  0
 22 25  2  0  0  0  0
 23 26  2  0  0  0  0
 25 20  1  6  0  0  0
 26 18  1  6  0  0  0
M  CHG  2  17  -1  21  -1
M  END
>  <CHROM.1>
63.54191954,-66.24549947,-48.02214578,68.65473265,-178.16728221,-72.95763595
-43.53226277,-176.87091003,-2.63554425,-13.57969416,19.95253783,-1.05746649
0.56276000,-3.00127864

>  <Name>
ligand

>  <RI>
0

>  <Rbt.Current_Directory>
/home/itssahil/PROJECTS/Mol_Feturizer/New_Systems/rnas/3D2X

>  <Rbt.Executable>
rbdock ($Id: //depot/dev/client3/rdock/2013.1/src/exe/rbdock.cxx#4 $)

>  <Rbt.Library>
libRbt.so (2013.1, Build901 2013/11/27)

>  <Rbt.Parameter_File>
/export/apps/rDock/src/rDock_2013.1_src/data/scripts/dock_solv.prm

>  <Rbt.Receptor>
prm/pocket_docking_5.prm

>  <SCORE>
-12.206

>  <SCORE.INTER>
-10.4781

>  <SCORE.INTER.CONST>
1

>  <SCORE.INTER.POLAR>
0

>  <SCORE.INTER.ROT>
8

>  <SCORE.INTER.SOLV>
12.5674

>  <SCORE.INTER.VDW>
-20.1079

>  <SCORE.INTER.norm>
-0.403005

>  <SCORE.INTRA>
-1.7279

>  <SCORE.INTRA.DIHEDRAL>
-2.2771

>  <SCORE.INTRA.DIHEDRAL.0>
7.88077

>  <SCORE.INTRA.POLAR>
0

>  <SCORE.INTRA.POLAR.0>
0

>  <SCORE.INTRA.REPUL>
0

>  <SCORE.INTRA.REPUL.0>
0

>  <SCORE.INTRA.SOLV>
0.424736

>  <SCORE.INTRA.SOLV.lig_0>
-63.2542

>  <SCORE.INTRA.VDW>
-0.801719

>  <SCORE.INTRA.VDW.0>
-3.15072

>  <SCORE.INTRA.norm>
-0.0664577

>  <SCORE.RESTR>
0

>  <SCORE.RESTR.CAVITY>
0

>  <SCORE.RESTR.norm>
0

>  <SCORE.SYSTEM>
0

>  <SCORE.SYSTEM.CONST>
0

>  <SCORE.SYSTEM.DIHEDRAL>
0

>  <SCORE.SYSTEM.SOLV>
0

>  <SCORE.SYSTEM.norm>
0

>  <SCORE.heavy>
26

>  <SCORE.norm>
-0.469462

>  <RMSD>
8.623

$$$$
ligand
 OpenBabel11021811473D
libRbt.so/2013.1/901 2013/11/27
 26 27  0  0  0  0  0  0  0  0999 V2000
   -2.5780  -14.5290   19.1477 C   0  0  0  0  0  0  0  0  0  0  0  0
   -1.3502  -18.7452   16.4111 C   0  0  0  0  0  0  0  0  0  0  0  0
   -2.1915  -17.6937   16.7595 C   0  0  0  0  0  0  0  0  0  0  0  0
   -1.7098  -16.2504   16.9246 C   0  0  0  0  0  0  0  0  0  0  0  0
   -1.2665  -15.3200   19.1580 C   0  0  1  0  0  0  0  0  0  0  0  0
   -3.8474  -21.6219   16.2647 C   0  0  0  0  0  0  0  0  0  0  0  0
   -3.2495  -20.2265   16.4507 C   0  0  0  0  0  0  0  0  0  0  0  0
   -3.5421  -17.9723   16.9433 C   0  0  0  0  0  0  0  0  0  0  0  0
    0.2567  -16.7598   18.2693 C   0  0  0  0  0  0  0  0  0  0  0  0
   -0.3916  -15.2850   20.2372 C   0  0  2  0  0  0  0  0  0  0  0  0
   -0.4760  -14.5432   21.5736 C   0  0  0  0  0  0  0  0  0  0  0  0
   -0.1655  -13.0499   21.4471 C   0  0  0  0  0  0  0  0  0  0  0  0
   -1.8766  -20.0288   16.2523 N   0  0  0  0  0  0  0  0  0  0  0  0
   -0.8952  -16.1001   18.1390 N   0  0  0  0  0  0  0  0  0  0  0  0
   -4.0290  -19.1897   16.7900 N   0  0  0  0  0  0  0  0  0  0  0  0
   -0.1471  -18.5489   16.2388 O   0  0  0  0  0  0  0  0  0  0  0  0
    0.7122  -10.5368   24.2830 O   0  5  0  0  0  0  0  0  0  0  0  0
    1.1118   -8.5633   22.6317 O   0  0  0  0  0  0  0  0  0  0  0  0
    0.3252  -12.5042   22.6756 O   0  0  0  0  0  0  0  0  0  0  0  0
   -0.8052  -10.2163   22.2621 O   0  0  0  0  0  0  0  0  0  0  0  0
    1.2122  -10.2158   20.6438 O   0  5  0  0  0  0  0  0  0  0  0  0
   -1.5882  -11.7129   24.2021 O   0  0  0  0  0  0  0  0  0  0  0  0
   -0.4677   -8.2752   20.6334 O   0  0  0  0  0  0  0  0  0  0  0  0
    0.9643  -16.2823   19.7898 S   0  0  0  0  0  0  0  0  0  0  0  0
   -0.4173  -11.2766   23.4071 P   0  0  2  0  0  0  0  0  0  0  0  0
    0.3284   -9.3806   21.4875 P   0  0  2  0  0  0  0  0  0  0  0  0
  2 16  2  0  0  0  0
  2  3  1  0  0  0  0
  2 13  1  0  0  0  0
  3  8  2  0  0  0  0
  3  4  1  0  0  0  0
  4 14  1  0  0  0  0
  5  1  1  1  0  0  0
  5 14  1  0  0  0  0
  5 10  1  0  0  0  0
  6  7  1  0  0  0  0
  7 13  1  0  0  0  0
  7 15  2  0  0  0  0
  8 15  1  0  0  0  0
  9 14  1  0  0  0  0
  9 24  1  0  0  0  0
 10 24  1  0  0  0  0
 10 11  1  6  0  0  0
 11 12  1  0  0  0  0
 12 19  1  0  0  0  0
 17 25  1  0  0  0  0
 19 25  1  0  0  0  0
 20 26  1  0  0  0  0
 21 26  1  0  0  0  0
 22 25  2  0  0  0  0
 23 26  2  0  0  0  0
 25 20  1  6  0  0  0
 26 18  1  1  0  0  0
M  CHG  2  17  -1  21  -1
M  END
>  <CHROM.1>
-71.39182390,-76.09732276,-154.32519638,-116.59148930,-121.94554710,43.35531906
-154.47495194,-59.01756325,-0.78994106,-14.30020715,19.95074512,-2.47177742
1.29056174,1.45516419

>  <Name>
ligand

>  <RI>
0

>  <Rbt.Current_Directory>
/home/itssahil/PROJECTS/Mol_Feturizer/New_Systems/rnas/3D2X

>  <Rbt.Executable>
rbdock ($Id: //depot/dev/client3/rdock/2013.1/src/exe/rbdock.cxx#4 $)

>  <Rbt.Library>
libRbt.so (2013.1, Build901 2013/11/27)

>  <Rbt.Parameter_File>
/export/apps/rDock/src/rDock_2013.1_src/data/scripts/dock_solv.prm

>  <Rbt.Receptor>
prm/blind_docking_80.prm

>  <SCORE>
-5.29484

>  <SCORE.INTER>
-10.1617

>  <SCORE.INTER.CONST>
1

>  <SCORE.INTER.POLAR>
0

>  <SCORE.INTER.ROT>
8

>  <SCORE.INTER.SOLV>
18.8312

>  <SCORE.INTER.VDW>
-21.9849

>  <SCORE.INTER.norm>
-0.390836

>  <SCORE.INTRA>
2.98156

>  <SCORE.INTRA.DIHEDRAL>
7.08889

>  <SCORE.INTRA.DIHEDRAL.0>
7.88077

>  <SCORE.INTRA.POLAR>
0

>  <SCORE.INTRA.POLAR.0>
0

>  <SCORE.INTRA.REPUL>
0

>  <SCORE.INTRA.REPUL.0>
0

>  <SCORE.INTRA.SOLV>
-0.676875

>  <SCORE.INTRA.SOLV.lig_0>
-63.2542

>  <SCORE.INTRA.VDW>
-0.224448

>  <SCORE.INTRA.VDW.0>
-3.15072

>  <SCORE.INTRA.norm>
0.114675

>  <SCORE.RESTR>
1.88533

>  <SCORE.RESTR.CAVITY>
1.88533

>  <SCORE.RESTR.norm>
0.0725128

>  <SCORE.SYSTEM>
0

>  <SCORE.SYSTEM.CONST>
0

>  <SCORE.SYSTEM.DIHEDRAL>
0

>  <SCORE.SYSTEM.SOLV>
0

>  <SCORE.SYSTEM.norm>
0

>  <SCORE.heavy>
26

>  <SCORE.norm>
-0.203648

>  <RMSD>
8.645

$$$$
ligand
 OpenBabel11021811473D
libRbt.so/2013.1/901 2013/11/27
 26 27  0  0  0  0  0  0  0  0999 V2000
   -7.1345  -12.0095   16.7291 C   0  0  0  0  0  0  0  0  0  0  0  0
   -2.3928  -12.8227   16.5682 C   0  0  0  0  0  0  0  0  0  0  0  0
   -3.6731  -13.0499   16.0744 C   0  0  0  0  0  0  0  0  0  0  0  0
   -4.5145  -11.9699   15.3901 C   0  0  0  0  0  0  0  0  0  0  0  0
   -6.0889  -10.9139   16.9574 C   0  0  1  0  0  0  0  0  0  0  0  0
   -1.5087  -16.3019   17.8514 C   0  0  0  0  0  0  0  0  0  0  0  0
   -2.2794  -15.1364   17.2295 C   0  0  0  0  0  0  0  0  0  0  0  0
   -4.1994  -14.3323   16.1919 C   0  0  0  0  0  0  0  0  0  0  0  0
   -4.0629   -9.9261   16.6366 C   0  0  0  0  0  0  0  0  0  0  0  0
   -6.3066   -9.8560   17.8319 C   0  0  2  0  0  0  0  0  0  0  0  0
   -7.5059   -9.5210   18.7224 C   0  0  0  0  0  0  0  0  0  0  0  0
   -7.1437   -9.4484   20.2076 C   0  0  0  0  0  0  0  0  0  0  0  0
   -1.6808  -13.8718   17.1533 N   0  0  0  0  0  0  0  0  0  0  0  0
   -4.9030  -10.9195   16.3423 N   0  0  0  0  0  0  0  0  0  0  0  0
   -3.5171  -15.3169   16.7464 N   0  0  0  0  0  0  0  0  0  0  0  0
   -1.8843  -11.7042   16.4887 O   0  0  0  0  0  0  0  0  0  0  0  0
   -6.1720  -12.5102   22.4784 O   0  5  0  0  0  0  0  0  0  0  0  0
   -4.2153  -11.9417   24.3044 O   0  0  0  0  0  0  0  0  0  0  0  0
   -6.7648  -10.7279   20.7243 O   0  0  0  0  0  0  0  0  0  0  0  0
   -4.8910  -10.3084   22.4554 O   0  0  0  0  0  0  0  0  0  0  0  0
   -2.7430   -9.8690   23.8269 O   0  5  0  0  0  0  0  0  0  0  0  0
   -7.3544  -10.3264   23.1958 O   0  0  0  0  0  0  0  0  0  0  0  0
   -5.0564   -9.5958   24.9047 O   0  0  0  0  0  0  0  0  0  0  0  0
   -4.8881   -8.8504   17.7333 S   0  0  0  0  0  0  0  0  0  0  0  0
   -6.3645  -10.9257   22.2715 P   0  0  2  0  0  0  0  0  0  0  0  0
   -4.1255  -10.3956   23.8660 P   0  0  2  0  0  0  0  0  0  0  0  0
  2 16  2  0  0  0  0
  2  3  1  0  0  0  0
  2 13  1  0  0  0  0
  3  8  2  0  0  0  0
  3  4  1  0  0  0  0
  4 14  1  0  0  0  0
  5  1  1  1  0  0  0
  5 14  1  0  0  0  0
  5 10  1  0  0  0  0
  6  7  1  0  0  0  0
  7 13  1  0  0  0  0
  7 15  2  0  0  0  0
  8 15  1  0  0  0  0
  9 14  1  0  0  0  0
  9 24  1  0  0  0  0
 10 24  1  0  0  0  0
 10 11  1  6  0  0  0
 11 12  1  0  0  0  0
 12 19  1  0  0  0  0
 17 25  1  0  0  0  0
 19 25  1  0  0  0  0
 20 26  1  0  0  0  0
 21 26  1  0  0  0  0
 22 25  2  0  0  0  0
 23 26  2  0  0  0  0
 25 20  1  1  0  0  0
 26 18  1  1  0  0  0
M  CHG  2  17  -1  21  -1
M  END
>  <CHROM.1>
-67.26394995,120.63106388,-66.76617239,-96.72664292,-178.80891807,-64.70777009
173.76500321,50.52068253,-4.74836526,-11.39951437,19.62710619,1.20386844
0.82397112,-1.66380002

>  <Name>
ligand

>  <RI>
0

>  <Rbt.Current_Directory>
/home/itssahil/PROJECTS/Mol_Feturizer/New_Systems/rnas/3D2X

>  <Rbt.Executable>
rbdock ($Id: //depot/dev/client3/rdock/2013.1/src/exe/rbdock.cxx#4 $)

>  <Rbt.Library>
libRbt.so (2013.1, Build901 2013/11/27)

>  <Rbt.Parameter_File>
/export/apps/rDock/src/rDock_2013.1_src/data/scripts/dock_solv.prm

>  <Rbt.Receptor>
prm/pocket_docking_6.prm

>  <SCORE>
-14.261

>  <SCORE.INTER>
-11.8415

>  <SCORE.INTER.CONST>
1

>  <SCORE.INTER.POLAR>
0

>  <SCORE.INTER.ROT>
8

>  <SCORE.INTER.SOLV>
5.56442

>  <SCORE.INTER.VDW>
-18.6825

>  <SCORE.INTER.norm>
-0.455441

>  <SCORE.INTRA>
-2.41952

>  <SCORE.INTRA.DIHEDRAL>
-2.26537

>  <SCORE.INTRA.DIHEDRAL.0>
7.88077

>  <SCORE.INTRA.POLAR>
0

>  <SCORE.INTRA.POLAR.0>
0

>  <SCORE.INTRA.REPUL>
0

>  <SCORE.INTRA.REPUL.0>
0

>  <SCORE.INTRA.SOLV>
-1.01297

>  <SCORE.INTRA.SOLV.lig_0>
-63.2542

>  <SCORE.INTRA.VDW>
-0.780356

>  <SCORE.INTRA.VDW.0>
-3.15072

>  <SCORE.INTRA.norm>
-0.0930586

>  <SCORE.RESTR>
0

>  <SCORE.RESTR.CAVITY>
0

>  <SCORE.RESTR.norm>
0

>  <SCORE.SYSTEM>
0

>  <SCORE.SYSTEM.CONST>
0

>  <SCORE.SYSTEM.DIHEDRAL>
0

>  <SCORE.SYSTEM.SOLV>
0

>  <SCORE.SYSTEM.norm>
0

>  <SCORE.heavy>
26

>  <SCORE.norm>
-0.5485

>  <RMSD>
8.679

$$$$
ligand
 OpenBabel11021811473D
libRbt.so/2013.1/901 2013/11/27
 26 27  0  0  0  0  0  0  0  0999 V2000
   -3.9269   -9.9074   19.4538 C   0  0  0  0  0  0  0  0  0  0  0  0
   -4.4662  -11.7433   14.6177 C   0  0  0  0  0  0  0  0  0  0  0  0
   -4.8319  -11.4411   15.9252 C   0  0  0  0  0  0  0  0  0  0  0  0
   -4.5549  -10.0879   16.5846 C   0  0  0  0  0  0  0  0  0  0  0  0
   -5.3295   -9.6785   18.8830 C   0  0  1  0  0  0  0  0  0  0  0  0
   -5.8363  -15.2872   14.3080 C   0  0  0  0  0  0  0  0  0  0  0  0
   -5.4656  -13.9191   14.8824 C   0  0  0  0  0  0  0  0  0  0  0  0
   -5.5035  -12.4156   16.6565 C   0  0  0  0  0  0  0  0  0  0  0  0
   -6.8444   -9.5180   17.1911 C   0  0  0  0  0  0  0  0  0  0  0  0
   -6.4124   -9.3558   19.6921 C   0  0  2  0  0  0  0  0  0  0  0  0
   -6.5075   -9.1504   21.2061 C   0  0  0  0  0  0  0  0  0  0  0  0
   -7.0791  -10.3669   21.9380 C   0  0  0  0  0  0  0  0  0  0  0  0
   -4.7830  -12.9934   14.0822 N   0  0  0  0  0  0  0  0  0  0  0  0
   -5.5904   -9.7602   17.5753 N   0  0  0  0  0  0  0  0  0  0  0  0
   -5.7983  -13.5941   16.1400 N   0  0  0  0  0  0  0  0  0  0  0  0
   -3.8692  -10.9141   13.9308 O   0  0  0  0  0  0  0  0  0  0  0  0
   -8.2032  -13.0207   22.6636 O   0  5  0  0  0  0  0  0  0  0  0  0
   -8.6168  -14.8094   20.5761 O   0  0  0  0  0  0  0  0  0  0  0  0
   -6.3629  -11.5636   21.6173 O   0  0  0  0  0  0  0  0  0  0  0  0
   -6.2915  -14.1391   21.4050 O   0  0  0  0  0  0  0  0  0  0  0  0
   -7.1852  -13.1672   19.1812 O   0  5  0  0  0  0  0  0  0  0  0  0
   -5.8227  -13.0155   23.6710 O   0  0  0  0  0  0  0  0  0  0  0  0
   -6.5250  -15.6418   19.3503 O   0  0  0  0  0  0  0  0  0  0  0  0
   -7.7882   -9.2386   18.6306 S   0  0  0  0  0  0  0  0  0  0  0  0
   -6.6142  -12.9358   22.4218 P   0  0  2  0  0  0  0  0  0  0  0  0
   -7.1596  -14.3511   20.0690 P   0  0  2  0  0  0  0  0  0  0  0  0
  2 16  2  0  0  0  0
  2  3  1  0  0  0  0
  2 13  1  0  0  0  0
  3  8  2  0  0  0  0
  3  4  1  0  0  0  0
  4 14  1  0  0  0  0
  5  1  1  6  0  0  0
  5 14  1  0  0  0  0
  5 10  1  0  0  0  0
  6  7  1  0  0  0  0
  7 13  1  0  0  0  0
  7 15  2  0  0  0  0
  8 15  1  0  0  0  0
  9 14  1  0  0  0  0
  9 24  1  0  0  0  0
 10 24  1  0  0  0  0
 10 11  1  1  0  0  0
 11 12  1  0  0  0  0
 12 19  1  0  0  0  0
 17 25  1  0  0  0  0
 19 25  1  0  0  0  0
 20 26  1  0  0  0  0
 21 26  1  0  0  0  0
 22 25  2  0  0  0  0
 23 26  2  0  0  0  0
 25 20  1  6  0  0  0
 26 18  1  1  0  0  0
M  CHG  2  17  -1  21  -1
M  END
>  <CHROM.1>
149.16838344,-100.73599806,53.46114575,113.83506005,170.41160010,48.77526263
40.13751839,-68.38553361,-6.22665095,-12.09408345,18.89826670,-0.29972005
1.27935226,0.41511692

>  <Name>
ligand

>  <RI>
0

>  <Rbt.Current_Directory>
/home/itssahil/PROJECTS/Mol_Feturizer/New_Systems/rnas/3D2X

>  <Rbt.Executable>
rbdock ($Id: //depot/dev/client3/rdock/2013.1/src/exe/rbdock.cxx#4 $)

>  <Rbt.Library>
libRbt.so (2013.1, Build901 2013/11/27)

>  <Rbt.Parameter_File>
/export/apps/rDock/src/rDock_2013.1_src/data/scripts/dock_solv.prm

>  <Rbt.Receptor>
prm/pocket_docking_7.prm

>  <SCORE>
-21.068

>  <SCORE.INTER>
-18.4328

>  <SCORE.INTER.CONST>
1

>  <SCORE.INTER.POLAR>
0

>  <SCORE.INTER.ROT>
8

>  <SCORE.INTER.SOLV>
12.8138

>  <SCORE.INTER.VDW>
-25.4931

>  <SCORE.INTER.norm>
-0.708954

>  <SCORE.INTRA>
-2.63519

>  <SCORE.INTRA.DIHEDRAL>
-1.25055

>  <SCORE.INTRA.DIHEDRAL.0>
7.88077

>  <SCORE.INTRA.POLAR>
0

>  <SCORE.INTRA.POLAR.0>
0

>  <SCORE.INTRA.REPUL>
0

>  <SCORE.INTRA.REPUL.0>
0

>  <SCORE.INTRA.SOLV>
-0.566666

>  <SCORE.INTRA.SOLV.lig_0>
-63.2542

>  <SCORE.INTRA.VDW>
-1.72658

>  <SCORE.INTRA.VDW.0>
-3.15072

>  <SCORE.INTRA.norm>
-0.101353

>  <SCORE.RESTR>
0

>  <SCORE.RESTR.CAVITY>
0

>  <SCORE.RESTR.norm>
0

>  <SCORE.SYSTEM>
0

>  <SCORE.SYSTEM.CONST>
0

>  <SCORE.SYSTEM.DIHEDRAL>
0

>  <SCORE.SYSTEM.SOLV>
0

>  <SCORE.SYSTEM.norm>
0

>  <SCORE.heavy>
26

>  <SCORE.norm>
-0.810307

>  <RMSD>
8.716

$$$$
ligand
 OpenBabel11021811473D
libRbt.so/2013.1/901 2013/11/27
 26 27  0  0  0  0  0  0  0  0999 V2000
   -7.1171   -9.3760   20.7658 C   0  0  0  0  0  0  0  0  0  0  0  0
   -7.0275  -11.9324   16.9690 C   0  0  0  0  0  0  0  0  0  0  0  0
   -6.5012  -10.6454   16.9335 C   0  0  0  0  0  0  0  0  0  0  0  0
   -6.9993   -9.5081   17.8285 C   0  0  0  0  0  0  0  0  0  0  0  0
   -5.9323   -8.8556   19.9466 C   0  0  1  0  0  0  0  0  0  0  0  0
   -4.8293  -13.6603   14.3777 C   0  0  0  0  0  0  0  0  0  0  0  0
   -5.4368  -12.5874   15.2826 C   0  0  0  0  0  0  0  0  0  0  0  0
   -5.4538  -10.3930   16.0533 C   0  0  0  0  0  0  0  0  0  0  0  0
   -4.8041   -8.4669   18.0077 C   0  0  0  0  0  0  0  0  0  0  0  0
   -4.8138   -8.2876   20.5446 C   0  0  2  0  0  0  0  0  0  0  0  0
   -4.4749   -8.0524   22.0188 C   0  0  0  0  0  0  0  0  0  0  0  0
   -4.2111   -6.5799   22.3421 C   0  0  0  0  0  0  0  0  0  0  0  0
   -6.4952  -12.9205   16.1383 N   0  0  0  0  0  0  0  0  0  0  0  0
   -5.8981   -8.9312   18.6132 N   0  0  0  0  0  0  0  0  0  0  0  0
   -4.9580  -11.3350   15.2727 N   0  0  0  0  0  0  0  0  0  0  0  0
   -7.9560  -12.2045   17.7305 O   0  0  0  0  0  0  0  0  0  0  0  0
   -1.4654   -8.1412   21.6119 O   0  5  0  0  0  0  0  0  0  0  0  0
   -0.5022   -7.3258   19.1829 O   0  0  0  0  0  0  0  0  0  0  0  0
   -3.0247   -6.1004   21.7016 O   0  0  0  0  0  0  0  0  0  0  0  0
   -0.4961   -5.8140   21.2463 O   0  0  0  0  0  0  0  0  0  0  0  0
   -1.8102   -5.0944   19.1383 O   0  5  0  0  0  0  0  0  0  0  0  0
   -1.3198   -6.4831   23.5895 O   0  0  0  0  0  0  0  0  0  0  0  0
    0.7566   -5.0932   19.1378 O   0  0  0  0  0  0  0  0  0  0  0  0
   -3.7637   -7.8061   19.2412 S   0  0  0  0  0  0  0  0  0  0  0  0
   -1.5645   -6.6225   22.1355 P   0  0  2  0  0  0  0  0  0  0  0  0
   -0.6033   -5.7867   19.6428 P   0  0  2  0  0  0  0  0  0  0  0  0
  2 16  2  0  0  0  0
  2  3  1  0  0  0  0
  2 13  1  0  0  0  0
  3  8  2  0  0  0  0
  3  4  1  0  0  0  0
  4 14  1  0  0  0  0
  5  1  1  1  0  0  0
  5 14  1  0  0  0  0
  5 10  1  0  0  0  0
  6  7  1  0  0  0  0
  7 13  1  0  0  0  0
  7 15  2  0  0  0  0
  8 15  1  0  0  0  0
  9 14  1  0  0  0  0
  9 24  1  0  0  0  0
 10 24  1  0  0  0  0
 10 11  1  6  0  0  0
 11 12  1  0  0  0  0
 12 19  1  0  0  0  0
 17 25  1  0  0  0  0
 19 25  1  0  0  0  0
 20 26  1  0  0  0  0
 21 26  1  0  0  0  0
 22 25  2  0  0  0  0
 23 26  2  0  0  0  0
 25 20  1  6  0  0  0
 26 18  1  6  0  0  0
M  CHG  2  17  -1  21  -1
M  END
>  <CHROM.1>
123.93231880,-121.90108050,-66.55181455,-124.05449778,-68.32923951,58.31275828
71.31056829,-59.63777032,-3.72067148,-8.42186751,19.30236030,2.27330015,-0.48791837
-2.07071895

>  <Name>
ligand

>  <RI>
0

>  <Rbt.Current_Directory>
/home/itssahil/PROJECTS/Mol_Feturizer/New_Systems/rnas/3D2X

>  <Rbt.Executable>
rbdock ($Id: //depot/dev/client3/rdock/2013.1/src/exe/rbdock.cxx#4 $)

>  <Rbt.Library>
libRbt.so (2013.1, Build901 2013/11/27)

>  <Rbt.Parameter_File>
/export/apps/rDock/src/rDock_2013.1_src/data/scripts/dock_solv.prm

>  <Rbt.Receptor>
prm/pocket_docking_8.prm

>  <SCORE>
-16.0504

>  <SCORE.INTER>
-13.8256

>  <SCORE.INTER.CONST>
1

>  <SCORE.INTER.POLAR>
0

>  <SCORE.INTER.ROT>
8

>  <SCORE.INTER.SOLV>
9.85994

>  <SCORE.INTER.VDW>
-21.4371

>  <SCORE.INTER.norm>
-0.531755

>  <SCORE.INTRA>
-2.22477

>  <SCORE.INTRA.DIHEDRAL>
-2.01898

>  <SCORE.INTRA.DIHEDRAL.0>
7.88077

>  <SCORE.INTRA.POLAR>
0

>  <SCORE.INTRA.POLAR.0>
0

>  <SCORE.INTRA.REPUL>
0

>  <SCORE.INTRA.REPUL.0>
0

>  <SCORE.INTRA.SOLV>
0.239274

>  <SCORE.INTRA.SOLV.lig_0>
-63.2542

>  <SCORE.INTRA.VDW>
-1.33492

>  <SCORE.INTRA.VDW.0>
-3.15072

>  <SCORE.INTRA.norm>
-0.0855682

>  <SCORE.RESTR>
0

>  <SCORE.RESTR.CAVITY>
0

>  <SCORE.RESTR.norm>
0

>  <SCORE.SYSTEM>
0

>  <SCORE.SYSTEM.CONST>
0

>  <SCORE.SYSTEM.DIHEDRAL>
0

>  <SCORE.SYSTEM.SOLV>
0

>  <SCORE.SYSTEM.norm>
0

>  <SCORE.heavy>
26

>  <SCORE.norm>
-0.617323

>  <RMSD>
8.754

$$$$
ligand
 OpenBabel11021811473D
libRbt.so/2013.1/901 2013/11/27
 26 27  0  0  0  0  0  0  0  0999 V2000
   -7.4613   -9.4606   18.5882 C   0  0  0  0  0  0  0  0  0  0  0  0
   -4.6445  -11.8454   14.6676 C   0  0  0  0  0  0  0  0  0  0  0  0
   -5.7112  -11.7333   15.5532 C   0  0  0  0  0  0  0  0  0  0  0  0
   -6.2245  -10.3936   16.0864 C   0  0  0  0  0  0  0  0  0  0  0  0
   -5.9475   -9.4923   18.3582 C   0  0  1  0  0  0  0  0  0  0  0  0
   -4.5609  -15.6206   14.1451 C   0  0  0  0  0  0  0  0  0  0  0  0
   -4.9589  -14.2337   14.6522 C   0  0  0  0  0  0  0  0  0  0  0  0
   -6.3533  -12.9013   15.9522 C   0  0  0  0  0  0  0  0  0  0  0  0
   -4.0762   -9.9298   17.1374 C   0  0  0  0  0  0  0  0  0  0  0  0
   -5.0438   -9.0864   19.3329 C   0  0  2  0  0  0  0  0  0  0  0  0
   -5.2687   -8.5611   20.7531 C   0  0  0  0  0  0  0  0  0  0  0  0
   -4.8896   -9.5782   21.8319 C   0  0  0  0  0  0  0  0  0  0  0  0
   -4.2577  -13.1054   14.2065 N   0  0  0  0  0  0  0  0  0  0  0  0
   -5.4077   -9.9255   17.2155 N   0  0  0  0  0  0  0  0  0  0  0  0
   -5.9794  -14.0874   15.5095 N   0  0  0  0  0  0  0  0  0  0  0  0
   -4.0437  -10.8406   14.2865 O   0  0  0  0  0  0  0  0  0  0  0  0
   -2.8773   -9.5014   24.3074 O   0  5  0  0  0  0  0  0  0  0  0  0
   -4.0359  -12.9240   21.2685 O   0  0  0  0  0  0  0  0  0  0  0  0
   -3.4846   -9.8497   21.8347 O   0  0  0  0  0  0  0  0  0  0  0  0
   -3.6971  -11.7860   23.5343 O   0  0  0  0  0  0  0  0  0  0  0  0
   -2.2712  -13.8532   22.9161 O   0  5  0  0  0  0  0  0  0  0  0  0
   -1.3744  -10.9636   22.7958 O   0  0  0  0  0  0  0  0  0  0  0  0
   -4.7753  -14.1011   23.4223 O   0  0  0  0  0  0  0  0  0  0  0  0
   -3.4627   -9.2489   18.6209 S   0  0  0  0  0  0  0  0  0  0  0  0
   -2.7656  -10.5518   23.0930 P   0  0  2  0  0  0  0  0  0  0  0  0
   -3.5970  -13.2076   22.7909 P   0  0  2  0  0  0  0  0  0  0  0  0
  2 16  2  0  0  0  0
  2  3  1  0  0  0  0
  2 13  1  0  0  0  0
  3  8  2  0  0  0  0
  3  4  1  0  0  0  0
  4 14  1  0  0  0  0
  5  1  1  1  0  0  0
  5 14  1  0  0  0  0
  5 10  1  0  0  0  0
  6  7  1  0  0  0  0
  7 13  1  0  0  0  0
  7 15  2  0  0  0  0
  8 15  1  0  0  0  0
  9 14  1  0  0  0  0
  9 24  1  0  0  0  0
 10 24  1  0  0  0  0
 10 11  1  6  0  0  0
 11 12  1  0  0  0  0
 12 19  1  0  0  0  0
 17 25  1  0  0  0  0
 19 25  1  0  0  0  0
 20 26  1  0  0  0  0
 21 26  1  0  0  0  0
 22 25  2  0  0  0  0
 23 26  2  0  0  0  0
 25 20  1  1  0  0  0
 26 18  1  6  0  0  0
M  CHG  2  17  -1  21  -1
M  END
>  <CHROM.1>
-81.94928745,107.23424387,65.70535395,-131.74057815,163.05633931,-164.78772660
-65.98425875,-63.12748956,-4.29252987,-11.37955375,19.43968729,2.55198957
1.28510746,-2.65448305

>  <Name>
ligand

>  <RI>
0

>  <Rbt.Current_Directory>
/home/itssahil/PROJECTS/Mol_Feturizer/New_Systems/rnas/3D2X

>  <Rbt.Executable>
rbdock ($Id: //depot/dev/client3/rdock/2013.1/src/exe/rbdock.cxx#4 $)

>  <Rbt.Library>
libRbt.so (2013.1, Build901 2013/11/27)

>  <Rbt.Parameter_File>
/export/apps/rDock/src/rDock_2013.1_src/data/scripts/dock_solv.prm

>  <Rbt.Receptor>
prm/pocket_docking_8.prm

>  <SCORE>
-15.3525

>  <SCORE.INTER>
-12.9624

>  <SCORE.INTER.CONST>
1

>  <SCORE.INTER.POLAR>
0

>  <SCORE.INTER.ROT>
8

>  <SCORE.INTER.SOLV>
9.6114

>  <SCORE.INTER.VDW>
-20.7787

>  <SCORE.INTER.norm>
-0.498552

>  <SCORE.INTRA>
-2.39019

>  <SCORE.INTRA.DIHEDRAL>
-0.463995

>  <SCORE.INTRA.DIHEDRAL.0>
7.88077

>  <SCORE.INTRA.POLAR>
0

>  <SCORE.INTRA.POLAR.0>
0

>  <SCORE.INTRA.REPUL>
0

>  <SCORE.INTRA.REPUL.0>
0

>  <SCORE.INTRA.SOLV>
-2.34448

>  <SCORE.INTRA.SOLV.lig_0>
-63.2542

>  <SCORE.INTRA.VDW>
-0.985947

>  <SCORE.INTRA.VDW.0>
-3.15072

>  <SCORE.INTRA.norm>
-0.0919302

>  <SCORE.RESTR>
0

>  <SCORE.RESTR.CAVITY>
0

>  <SCORE.RESTR.norm>
0

>  <SCORE.SYSTEM>
0

>  <SCORE.SYSTEM.CONST>
0

>  <SCORE.SYSTEM.DIHEDRAL>
0

>  <SCORE.SYSTEM.SOLV>
0

>  <SCORE.SYSTEM.norm>
0

>  <SCORE.heavy>
26

>  <SCORE.norm>
-0.590483

>  <RMSD>
8.791

$$$$
ligand
 OpenBabel11021811473D
libRbt.so/2013.1/901 2013/11/27
 26 27  0  0  0  0  0  0  0  0999 V2000
   -3.7714   -9.7630   19.2822 C   0  0  0  0  0  0  0  0  0  0  0  0
   -5.4454  -12.6578   16.7092 C   0  0  0  0  0  0  0  0  0  0  0  0
   -4.9555  -11.6135   15.9320 C   0  0  0  0  0  0  0  0  0  0  0  0
   -4.6025  -10.2365   16.4994 C   0  0  0  0  0  0  0  0  0  0  0  0
   -5.2159   -9.6091   18.7973 C   0  0  1  0  0  0  0  0  0  0  0  0
   -5.7577  -15.4012   14.0808 C   0  0  0  0  0  0  0  0  0  0  0  0
   -5.4844  -14.0504   14.7439 C   0  0  0  0  0  0  0  0  0  0  0  0
   -4.7576  -11.8476   14.5749 C   0  0  0  0  0  0  0  0  0  0  0  0
   -6.8526   -9.6364   17.2149 C   0  0  0  0  0  0  0  0  0  0  0  0
   -6.2432   -9.2203   19.6487 C   0  0  2  0  0  0  0  0  0  0  0  0
   -6.2320   -8.8659   21.1379 C   0  0  0  0  0  0  0  0  0  0  0  0
   -6.0251  -10.0854   22.0393 C   0  0  0  0  0  0  0  0  0  0  0  0
   -5.7151  -13.8933   16.1171 N   0  0  0  0  0  0  0  0  0  0  0  0
   -5.5695   -9.8240   17.5270 N   0  0  0  0  0  0  0  0  0  0  0  0
   -5.0155  -13.0199   14.0257 N   0  0  0  0  0  0  0  0  0  0  0  0
   -5.6384  -12.4991   17.9148 O   0  0  0  0  0  0  0  0  0  0  0  0
   -7.3137  -12.1603   24.1616 O   0  5  0  0  0  0  0  0  0  0  0  0
   -9.9443  -15.2660   21.9842 O   0  0  0  0  0  0  0  0  0  0  0  0
   -7.0523  -11.0638   21.8521 O   0  0  0  0  0  0  0  0  0  0  0  0
   -8.2927  -13.3169   22.1138 O   0  0  0  0  0  0  0  0  0  0  0  0
   -7.4012  -15.7388   21.9452 O   0  5  0  0  0  0  0  0  0  0  0  0
   -5.7387  -13.2068   22.3992 O   0  0  0  0  0  0  0  0  0  0  0  0
   -8.5340  -14.9135   24.0956 O   0  0  0  0  0  0  0  0  0  0  0  0
   -7.6945   -9.2261   18.6859 S   0  0  0  0  0  0  0  0  0  0  0  0
   -7.0124  -12.4822   22.6136 P   0  0  2  0  0  0  0  0  0  0  0  0
   -8.4684  -14.8698   22.4896 P   0  0  2  0  0  0  0  0  0  0  0  0
  2 16  2  0  0  0  0
  2  3  1  0  0  0  0
  2 13  1  0  0  0  0
  3  8  2  0  0  0  0
  3  4  1  0  0  0  0
  4 14  1  0  0  0  0
  5  1  1  6  0  0  0
  5 14  1  0  0  0  0
  5 10  1  0  0  0  0
  6  7  1  0  0  0  0
  7 13  1  0  0  0  0
  7 15  2  0  0  0  0
  8 15  1  0  0  0  0
  9 14  1  0  0  0  0
  9 24  1  0  0  0  0
 10 24  1  0  0  0  0
 10 11  1  1  0  0  0
 11 12  1  0  0  0  0
 12 19  1  0  0  0  0
 17 25  1  0  0  0  0
 19 25  1  0  0  0  0
 20 26  1  0  0  0  0
 21 26  1  0  0  0  0
 22 25  2  0  0  0  0
 23 26  2  0  0  0  0
 25 20  1  6  0  0  0
 26 18  1  6  0  0  0
M  CHG  2  17  -1  21  -1
M  END
>  <CHROM.1>
-38.57589507,-71.79624241,-59.42268783,117.63942643,176.00922957,-77.24064204
70.67415321,172.43812961,-6.56928493,-12.18410648,19.60398842,-0.40240865
1.20128334,0.67410777

>  <Name>
ligand

>  <RI>
0

>  <Rbt.Current_Directory>
/home/itssahil/PROJECTS/Mol_Feturizer/New_Systems/rnas/3D2X

>  <Rbt.Executable>
rbdock ($Id: //depot/dev/client3/rdock/2013.1/src/exe/rbdock.cxx#4 $)

>  <Rbt.Library>
libRbt.so (2013.1, Build901 2013/11/27)

>  <Rbt.Parameter_File>
/export/apps/rDock/src/rDock_2013.1_src/data/scripts/dock_solv.prm

>  <Rbt.Receptor>
prm/pocket_docking_8.prm

>  <SCORE>
-20.394

>  <SCORE.INTER>
-18.3289

>  <SCORE.INTER.CONST>
1

>  <SCORE.INTER.POLAR>
0

>  <SCORE.INTER.ROT>
8

>  <SCORE.INTER.SOLV>
9.38467

>  <SCORE.INTER.VDW>
-24.2808

>  <SCORE.INTER.norm>
-0.704957

>  <SCORE.INTRA>
-2.06508

>  <SCORE.INTRA.DIHEDRAL>
-2.85326

>  <SCORE.INTRA.DIHEDRAL.0>
7.88077

>  <SCORE.INTRA.POLAR>
0

>  <SCORE.INTRA.POLAR.0>
0

>  <SCORE.INTRA.REPUL>
0

>  <SCORE.INTRA.REPUL.0>
0

>  <SCORE.INTRA.SOLV>
0.972668

>  <SCORE.INTRA.SOLV.lig_0>
-63.2542

>  <SCORE.INTRA.VDW>
-1.12479

>  <SCORE.INTRA.VDW.0>
-3.15072

>  <SCORE.INTRA.norm>
-0.0794263

>  <SCORE.RESTR>
0

>  <SCORE.RESTR.CAVITY>
0

>  <SCORE.RESTR.norm>
0

>  <SCORE.SYSTEM>
0

>  <SCORE.SYSTEM.CONST>
0

>  <SCORE.SYSTEM.DIHEDRAL>
0

>  <SCORE.SYSTEM.SOLV>
0

>  <SCORE.SYSTEM.norm>
0

>  <SCORE.heavy>
26

>  <SCORE.norm>
-0.784383

>  <RMSD>
8.805

$$$$
ligand
 OpenBabel11021811473D
libRbt.so/2013.1/901 2013/11/27
 26 27  0  0  0  0  0  0  0  0999 V2000
   -4.8099   -9.2175   17.5173 C   0  0  0  0  0  0  0  0  0  0  0  0
   -2.1200  -12.1622   17.2950 C   0  0  0  0  0  0  0  0  0  0  0  0
   -3.0943  -12.4704   16.3514 C   0  0  0  0  0  0  0  0  0  0  0  0
   -4.0300  -11.4267   15.7367 C   0  0  0  0  0  0  0  0  0  0  0  0
   -5.7052  -10.4277   17.2354 C   0  0  1  0  0  0  0  0  0  0  0  0
   -0.5430  -15.5929   17.8204 C   0  0  0  0  0  0  0  0  0  0  0  0
   -1.4567  -14.4780   17.3091 C   0  0  0  0  0  0  0  0  0  0  0  0
   -3.2024  -13.7930   15.9334 C   0  0  0  0  0  0  0  0  0  0  0  0
   -6.2043  -12.4084   16.2299 C   0  0  0  0  0  0  0  0  0  0  0  0
   -6.9674  -10.5603   17.8016 C   0  0  2  0  0  0  0  0  0  0  0  0
   -7.7428   -9.6428   18.7505 C   0  0  0  0  0  0  0  0  0  0  0  0
   -7.0327   -9.4336   20.0900 C   0  0  0  0  0  0  0  0  0  0  0  0
   -1.2873  -13.1707   17.7842 N   0  0  0  0  0  0  0  0  0  0  0  0
   -5.3324  -11.4168   16.4184 N   0  0  0  0  0  0  0  0  0  0  0  0
   -2.4094  -14.7384   16.4023 N   0  0  0  0  0  0  0  0  0  0  0  0
   -1.9864  -11.0062   17.6970 O   0  0  0  0  0  0  0  0  0  0  0  0
   -7.0676   -9.9528   23.2452 O   0  5  0  0  0  0  0  0  0  0  0  0
   -3.9928  -12.3116   24.1099 O   0  0  0  0  0  0  0  0  0  0  0  0
   -6.8410  -10.6684   20.7873 O   0  0  0  0  0  0  0  0  0  0  0  0
   -6.1253  -12.2555   22.6983 O   0  0  0  0  0  0  0  0  0  0  0  0
   -6.2908  -12.0669   25.2724 O   0  5  0  0  0  0  0  0  0  0  0  0
   -4.7285  -10.1624   22.1651 O   0  0  0  0  0  0  0  0  0  0  0  0
   -5.6260  -14.2865   24.1681 O   0  0  0  0  0  0  0  0  0  0  0  0
   -7.5870  -12.0894   17.2435 S   0  0  0  0  0  0  0  0  0  0  0  0
   -6.0988  -10.7219   22.2154 P   0  0  2  0  0  0  0  0  0  0  0  0
   -5.5592  -12.6803   24.1415 P   0  0  2  0  0  0  0  0  0  0  0  0
  2 16  2  0  0  0  0
  2  3  1  0  0  0  0
  2 13  1  0  0  0  0
  3  8  2  0  0  0  0
  3  4  1  0  0  0  0
  4 14  1  0  0  0  0
  5  1  1  6  0  0  0
  5 14  1  0  0  0  0
  5 10  1  0  0  0  0
  6  7  1  0  0  0  0
  7 13  1  0  0  0  0
  7 15  2  0  0  0  0
  8 15  1  0  0  0  0
  9 14  1  0  0  0  0
  9 24  1  0  0  0  0
 10 24  1  0  0  0  0
 10 11  1  1  0  0  0
 11 12  1  0  0  0  0
 12 19  1  0  0  0  0
 17 25  1  0  0  0  0
 19 25  1  0  0  0  0
 20 26  1  0  0  0  0
 21 26  1  0  0  0  0
 22 25  2  0  0  0  0
 23 26  2  0  0  0  0
 25 20  1  1  0  0  0
 26 18  1  1  0  0  0
M  CHG  2  17  -1  21  -1
M  END
>  <CHROM.1>
-97.87191223,-61.39117859,-60.02674308,107.51880673,179.19306035,-63.70725831
66.69243197,-62.85699630,-5.00390378,-11.85962062,19.73989233,1.10660678
0.63869580,-1.42995645

>  <Name>
ligand

>  <RI>
0

>  <Rbt.Current_Directory>
/home/itssahil/PROJECTS/Mol_Feturizer/New_Systems/rnas/3D2X

>  <Rbt.Executable>
rbdock ($Id: //depot/dev/client3/rdock/2013.1/src/exe/rbdock.cxx#4 $)

>  <Rbt.Library>
libRbt.so (2013.1, Build901 2013/11/27)

>  <Rbt.Parameter_File>
/export/apps/rDock/src/rDock_2013.1_src/data/scripts/dock_solv.prm

>  <Rbt.Receptor>
prm/pocket_docking_5.prm

>  <SCORE>
-14.3614

>  <SCORE.INTER>
-11.4729

>  <SCORE.INTER.CONST>
1

>  <SCORE.INTER.POLAR>
0

>  <SCORE.INTER.ROT>
8

>  <SCORE.INTER.SOLV>
5.75102

>  <SCORE.INTER.VDW>
-18.499

>  <SCORE.INTER.norm>
-0.441266

>  <SCORE.INTRA>
-2.88844

>  <SCORE.INTRA.DIHEDRAL>
-3.19361

>  <SCORE.INTRA.DIHEDRAL.0>
7.88077

>  <SCORE.INTRA.POLAR>
0

>  <SCORE.INTRA.POLAR.0>
0

>  <SCORE.INTRA.REPUL>
0

>  <SCORE.INTRA.REPUL.0>
0

>  <SCORE.INTRA.SOLV>
-0.987774

>  <SCORE.INTRA.SOLV.lig_0>
-63.2542

>  <SCORE.INTRA.VDW>
-0.797752

>  <SCORE.INTRA.VDW.0>
-3.15072

>  <SCORE.INTRA.norm>
-0.111094

>  <SCORE.RESTR>
0

>  <SCORE.RESTR.CAVITY>
0

>  <SCORE.RESTR.norm>
0

>  <SCORE.SYSTEM>
0

>  <SCORE.SYSTEM.CONST>
0

>  <SCORE.SYSTEM.DIHEDRAL>
0

>  <SCORE.SYSTEM.SOLV>
0

>  <SCORE.SYSTEM.norm>
0

>  <SCORE.heavy>
26

>  <SCORE.norm>
-0.55236

>  <RMSD>
8.814

$$$$
ligand
 OpenBabel11021811473D
libRbt.so/2013.1/901 2013/11/27
 26 27  0  0  0  0  0  0  0  0999 V2000
   -7.4529  -12.2737   16.6073 C   0  0  0  0  0  0  0  0  0  0  0  0
   -3.6114  -15.2831   14.8628 C   0  0  0  0  0  0  0  0  0  0  0  0
   -4.1932  -14.2755   15.6251 C   0  0  0  0  0  0  0  0  0  0  0  0
   -5.1481  -13.2284   15.0468 C   0  0  0  0  0  0  0  0  0  0  0  0
   -6.1222  -11.5200   16.5242 C   0  0  1  0  0  0  0  0  0  0  0  0
   -1.6354  -17.1378   17.5439 C   0  0  0  0  0  0  0  0  0  0  0  0
   -2.5370  -16.1140   16.8524 C   0  0  0  0  0  0  0  0  0  0  0  0
   -3.9055  -14.2382   16.9857 C   0  0  0  0  0  0  0  0  0  0  0  0
   -3.9701  -11.2465   15.8337 C   0  0  0  0  0  0  0  0  0  0  0  0
   -5.9079  -10.3234   17.1977 C   0  0  2  0  0  0  0  0  0  0  0  0
   -6.8245   -9.5110   18.1161 C   0  0  0  0  0  0  0  0  0  0  0  0
   -6.8168  -10.0132   19.5618 C   0  0  0  0  0  0  0  0  0  0  0  0
   -2.7732  -16.2171   15.4751 N   0  0  0  0  0  0  0  0  0  0  0  0
   -5.0868  -11.9756   15.8135 N   0  0  0  0  0  0  0  0  0  0  0  0
   -3.1119  -15.1268   17.5542 N   0  0  0  0  0  0  0  0  0  0  0  0
   -3.8345  -15.3570   13.6543 O   0  0  0  0  0  0  0  0  0  0  0  0
   -4.6684   -7.8090   19.1869 O   0  5  0  0  0  0  0  0  0  0  0  0
   -5.8960   -5.5551   23.5558 O   0  0  0  0  0  0  0  0  0  0  0  0
   -6.5647   -8.9537   20.4900 O   0  0  0  0  0  0  0  0  0  0  0  0
   -5.2728   -6.9612   21.5119 O   0  0  0  0  0  0  0  0  0  0  0  0
   -6.1419   -8.1286   23.6497 O   0  5  0  0  0  0  0  0  0  0  0  0
   -4.1293   -9.2519   21.2628 O   0  0  0  0  0  0  0  0  0  0  0  0
   -3.8136   -7.0490   23.6089 O   0  0  0  0  0  0  0  0  0  0  0  0
   -4.2955   -9.8168   16.7776 S   0  0  0  0  0  0  0  0  0  0  0  0
   -5.0977   -8.3105   20.6548 P   0  0  2  0  0  0  0  0  0  0  0  0
   -5.3437   -7.0018   23.1171 P   0  0  2  0  0  0  0  0  0  0  0  0
  2 16  2  0  0  0  0
  2  3  1  0  0  0  0
  2 13  1  0  0  0  0
  3  8  2  0  0  0  0
  3  4  1  0  0  0  0
  4 14  1  0  0  0  0
  5  1  1  1  0  0  0
  5 14  1  0  0  0  0
  5 10  1  0  0  0  0
  6  7  1  0  0  0  0
  7 13  1  0  0  0  0
  7 15  2  0  0  0  0
  8 15  1  0  0  0  0
  9 14  1  0  0  0  0
  9 24  1  0  0  0  0
 10 24  1  0  0  0  0
 10 11  1  6  0  0  0
 11 12  1  0  0  0  0
 12 19  1  0  0  0  0
 17 25  1  0  0  0  0
 19 25  1  0  0  0  0
 20 26  1  0  0  0  0
 21 26  1  0  0  0  0
 22 25  2  0  0  0  0
 23 26  2  0  0  0  0
 25 20  1  1  0  0  0
 26 18  1  1  0  0  0
M  CHG  2  17  -1  21  -1
M  END
>  <CHROM.1>
-151.94253712,83.46221110,128.47744879,-114.20748942,-73.60645024,-164.78968414
56.11470590,-165.65342074,-4.81479078,-10.75411222,18.72523475,1.29094392
0.92444613,-2.19474662

>  <Name>
ligand

>  <RI>
0

>  <Rbt.Current_Directory>
/home/itssahil/PROJECTS/Mol_Feturizer/New_Systems/rnas/3D2X

>  <Rbt.Executable>
rbdock ($Id: //depot/dev/client3/rdock/2013.1/src/exe/rbdock.cxx#4 $)

>  <Rbt.Library>
libRbt.so (2013.1, Build901 2013/11/27)

>  <Rbt.Parameter_File>
/export/apps/rDock/src/rDock_2013.1_src/data/scripts/dock_solv.prm

>  <Rbt.Receptor>
prm/pocket_docking_8.prm

>  <SCORE>
-9.83642

>  <SCORE.INTER>
-11.8439

>  <SCORE.INTER.CONST>
1

>  <SCORE.INTER.POLAR>
0

>  <SCORE.INTER.ROT>
8

>  <SCORE.INTER.SOLV>
9.64194

>  <SCORE.INTER.VDW>
-20.0432

>  <SCORE.INTER.norm>
-0.455534

>  <SCORE.INTRA>
2.00748

>  <SCORE.INTRA.DIHEDRAL>
4.25362

>  <SCORE.INTRA.DIHEDRAL.0>
7.88077

>  <SCORE.INTRA.POLAR>
0

>  <SCORE.INTRA.POLAR.0>
0

>  <SCORE.INTRA.REPUL>
0

>  <SCORE.INTRA.REPUL.0>
0

>  <SCORE.INTRA.SOLV>
0.920002

>  <SCORE.INTRA.SOLV.lig_0>
-63.2542

>  <SCORE.INTRA.VDW>
-0.579332

>  <SCORE.INTRA.VDW.0>
-3.15072

>  <SCORE.INTRA.norm>
0.0772107

>  <SCORE.RESTR>
0

>  <SCORE.RESTR.CAVITY>
0

>  <SCORE.RESTR.norm>
0

>  <SCORE.SYSTEM>
0

>  <SCORE.SYSTEM.CONST>
0

>  <SCORE.SYSTEM.DIHEDRAL>
0

>  <SCORE.SYSTEM.SOLV>
0

>  <SCORE.SYSTEM.norm>
0

>  <SCORE.heavy>
26

>  <SCORE.norm>
-0.378324

>  <RMSD>
8.824

$$$$
ligand
 OpenBabel11021811473D
libRbt.so/2013.1/901 2013/11/27
 26 27  0  0  0  0  0  0  0  0999 V2000
   -4.2745  -10.7780   19.6340 C   0  0  0  0  0  0  0  0  0  0  0  0
   -6.1158  -11.9983   16.2375 C   0  0  0  0  0  0  0  0  0  0  0  0
   -4.9879  -11.1850   16.2709 C   0  0  0  0  0  0  0  0  0  0  0  0
   -4.9623   -9.8096   16.9418 C   0  0  0  0  0  0  0  0  0  0  0  0
   -5.6392  -10.1815   19.2771 C   0  0  1  0  0  0  0  0  0  0  0  0
   -4.7311  -15.0423   14.4073 C   0  0  0  0  0  0  0  0  0  0  0  0
   -4.8319  -13.6641   15.0628 C   0  0  0  0  0  0  0  0  0  0  0  0
   -3.8214  -11.6629   15.6822 C   0  0  0  0  0  0  0  0  0  0  0  0
   -7.1405   -9.2212   17.8605 C   0  0  0  0  0  0  0  0  0  0  0  0
   -6.6546  -10.0466   20.2164 C   0  0  2  0  0  0  0  0  0  0  0  0
   -6.6985  -10.4028   21.7045 C   0  0  0  0  0  0  0  0  0  0  0  0
   -6.0316  -11.7446   22.0162 C   0  0  0  0  0  0  0  0  0  0  0  0
   -6.0459  -13.2533   15.6293 N   0  0  0  0  0  0  0  0  0  0  0  0
   -5.9275   -9.7428   18.0486 N   0  0  0  0  0  0  0  0  0  0  0  0
   -3.7665  -12.8514   15.1103 N   0  0  0  0  0  0  0  0  0  0  0  0
   -7.1720  -11.6189   16.7438 O   0  0  0  0  0  0  0  0  0  0  0  0
   -4.1116  -12.3914   25.0284 O   0  5  0  0  0  0  0  0  0  0  0  0
   -5.9773  -16.2715   23.8034 O   0  0  0  0  0  0  0  0  0  0  0  0
   -6.0813  -12.0497   23.4134 O   0  0  0  0  0  0  0  0  0  0  0  0
   -6.0502  -14.0438   25.0584 O   0  0  0  0  0  0  0  0  0  0  0  0
   -7.8460  -15.8415   25.5399 O   0  5  0  0  0  0  0  0  0  0  0  0
   -4.4551  -14.0078   23.0407 O   0  0  0  0  0  0  0  0  0  0  0  0
   -7.8345  -14.5758   23.3069 O   0  0  0  0  0  0  0  0  0  0  0  0
   -8.0153   -9.3757   19.3610 S   0  0  0  0  0  0  0  0  0  0  0  0
   -5.1320  -13.1768   24.0628 P   0  0  2  0  0  0  0  0  0  0  0  0
   -6.9836  -15.2292   24.5045 P   0  0  2  0  0  0  0  0  0  0  0  0
  2 16  2  0  0  0  0
  2  3  1  0  0  0  0
  2 13  1  0  0  0  0
  3  8  2  0  0  0  0
  3  4  1  0  0  0  0
  4 14  1  0  0  0  0
  5  1  1  1  0  0  0
  5 14  1  0  0  0  0
  5 10  1  0  0  0  0
  6  7  1  0  0  0  0
  7 13  1  0  0  0  0
  7 15  2  0  0  0  0
  8 15  1  0  0  0  0
  9 14  1  0  0  0  0
  9 24  1  0  0  0  0
 10 24  1  0  0  0  0
 10 11  1  6  0  0  0
 11 12  1  0  0  0  0
 12 19  1  0  0  0  0
 17 25  1  0  0  0  0
 19 25  1  0  0  0  0
 20 26  1  0  0  0  0
 21 26  1  0  0  0  0
 22 25  2  0  0  0  0
 23 26  2  0  0  0  0
 25 20  1  1  0  0  0
 26 18  1  6  0  0  0
M  CHG  2  17  -1  21  -1
M  END
>  <CHROM.1>
28.42362124,-41.49198755,179.72830567,84.08083368,-163.41501115,-165.99117229
112.70527043,59.91856330,-5.94743937,-12.44046963,20.45109328,1.24087466
1.30375328,-0.93349164

>  <Name>
ligand

>  <RI>
0

>  <Rbt.Current_Directory>
/home/itssahil/PROJECTS/Mol_Feturizer/New_Systems/rnas/3D2X

>  <Rbt.Executable>
rbdock ($Id: //depot/dev/client3/rdock/2013.1/src/exe/rbdock.cxx#4 $)

>  <Rbt.Library>
libRbt.so (2013.1, Build901 2013/11/27)

>  <Rbt.Parameter_File>
/export/apps/rDock/src/rDock_2013.1_src/data/scripts/dock_solv.prm

>  <Rbt.Receptor>
prm/pocket_docking_5.prm

>  <SCORE>
-11.9157

>  <SCORE.INTER>
-12.8008

>  <SCORE.INTER.CONST>
1

>  <SCORE.INTER.POLAR>
0

>  <SCORE.INTER.ROT>
8

>  <SCORE.INTER.SOLV>
8.96852

>  <SCORE.INTER.VDW>
-20.4567

>  <SCORE.INTER.norm>
-0.492338

>  <SCORE.INTRA>
0.874948

>  <SCORE.INTRA.DIHEDRAL>
0.917331

>  <SCORE.INTRA.DIHEDRAL.0>
7.88077

>  <SCORE.INTRA.POLAR>
0

>  <SCORE.INTRA.POLAR.0>
0

>  <SCORE.INTRA.REPUL>
0

>  <SCORE.INTRA.REPUL.0>
0

>  <SCORE.INTRA.SOLV>
-0.583385

>  <SCORE.INTRA.SOLV.lig_0>
-63.2542

>  <SCORE.INTRA.VDW>
0.707975

>  <SCORE.INTRA.VDW.0>
-3.15072

>  <SCORE.INTRA.norm>
0.0336519

>  <SCORE.RESTR>
0.010125

>  <SCORE.RESTR.CAVITY>
0.010125

>  <SCORE.RESTR.norm>
0.000389422

>  <SCORE.SYSTEM>
0

>  <SCORE.SYSTEM.CONST>
0

>  <SCORE.SYSTEM.DIHEDRAL>
0

>  <SCORE.SYSTEM.SOLV>
0

>  <SCORE.SYSTEM.norm>
0

>  <SCORE.heavy>
26

>  <SCORE.norm>
-0.458296

>  <RMSD>
8.837

$$$$
ligand
 OpenBabel11021811473D
libRbt.so/2013.1/901 2013/11/27
 26 27  0  0  0  0  0  0  0  0999 V2000
   -4.3667   -9.6655   20.0191 C   0  0  0  0  0  0  0  0  0  0  0  0
   -3.5997  -11.6262   16.2122 C   0  0  0  0  0  0  0  0  0  0  0  0
   -4.7625  -10.8860   16.3987 C   0  0  0  0  0  0  0  0  0  0  0  0
   -4.7920   -9.5313   17.1105 C   0  0  0  0  0  0  0  0  0  0  0  0
   -5.7489   -9.5176   19.3764 C   0  0  1  0  0  0  0  0  0  0  0  0
   -4.9700  -14.6063   14.2695 C   0  0  0  0  0  0  0  0  0  0  0  0
   -4.8916  -13.2868   15.0389 C   0  0  0  0  0  0  0  0  0  0  0  0
   -5.9511  -11.3991   15.8895 C   0  0  0  0  0  0  0  0  0  0  0  0
   -7.1657   -9.3007   17.6076 C   0  0  0  0  0  0  0  0  0  0  0  0
   -6.9099   -9.4255   20.1348 C   0  0  2  0  0  0  0  0  0  0  0  0
   -7.1211   -9.4345   21.6509 C   0  0  0  0  0  0  0  0  0  0  0  0
   -7.1730  -10.8472   22.2373 C   0  0  0  0  0  0  0  0  0  0  0  0
   -3.6556  -12.8408   15.5255 N   0  0  0  0  0  0  0  0  0  0  0  0
   -5.9177   -9.4532   18.0527 N   0  0  0  0  0  0  0  0  0  0  0  0
   -5.9922  -12.5483   15.2413 N   0  0  0  0  0  0  0  0  0  0  0  0
   -2.5234  -11.2145   16.6458 O   0  0  0  0  0  0  0  0  0  0  0  0
   -5.7324  -13.0231   24.0074 O   0  5  0  0  0  0  0  0  0  0  0  0
   -6.2985  -16.3071   22.0351 O   0  0  0  0  0  0  0  0  0  0  0  0
   -6.0191  -11.6134   21.8779 O   0  0  0  0  0  0  0  0  0  0  0  0
   -7.1850  -13.9089   22.1115 O   0  0  0  0  0  0  0  0  0  0  0  0
   -7.4562  -15.4384   24.1792 O   0  5  0  0  0  0  0  0  0  0  0  0
   -4.6358  -13.7805   21.7926 O   0  0  0  0  0  0  0  0  0  0  0  0
   -8.8242  -15.8695   22.0505 O   0  0  0  0  0  0  0  0  0  0  0  0
   -8.2223   -9.3197   18.9948 S   0  0  0  0  0  0  0  0  0  0  0  0
   -5.8134  -13.1217   22.4030 P   0  0  2  0  0  0  0  0  0  0  0  0
   -7.4362  -15.3832   22.7004 P   0  0  2  0  0  0  0  0  0  0  0  0
  2 16  2  0  0  0  0
  2  3  1  0  0  0  0
  2 13  1  0  0  0  0
  3  8  2  0  0  0  0
  3  4  1  0  0  0  0
  4 14  1  0  0  0  0
  5  1  1  1  0  0  0
  5 14  1  0  0  0  0
  5 10  1  0  0  0  0
  6  7  1  0  0  0  0
  7 13  1  0  0  0  0
  7 15  2  0  0  0  0
  8 15  1  0  0  0  0
  9 14  1  0  0  0  0
  9 24  1  0  0  0  0
 10 24  1  0  0  0  0
 10 11  1  6  0  0  0
 11 12  1  0  0  0  0
 12 19  1  0  0  0  0
 17 25  1  0  0  0  0
 19 25  1  0  0  0  0
 20 26  1  0  0  0  0
 21 26  1  0  0  0  0
 22 25  2  0  0  0  0
 23 26  2  0  0  0  0
 25 20  1  6  0  0  0
 26 18  1  6  0  0  0
M  CHG  2  17  -1  21  -1
M  END
>  <CHROM.1>
-135.56154032,-83.47296376,54.12435471,106.43017114,178.33287594,-58.57788999
-61.93027307,-62.33980182,-6.06224146,-12.22458900,19.76266775,0.73824936
1.21590582,-0.31721244

>  <Name>
ligand

>  <RI>
0

>  <Rbt.Current_Directory>
/home/itssahil/PROJECTS/Mol_Feturizer/New_Systems/rnas/3D2X

>  <Rbt.Executable>
rbdock ($Id: //depot/dev/client3/rdock/2013.1/src/exe/rbdock.cxx#4 $)

>  <Rbt.Library>
libRbt.so (2013.1, Build901 2013/11/27)

>  <Rbt.Parameter_File>
/export/apps/rDock/src/rDock_2013.1_src/data/scripts/dock_solv.prm

>  <Rbt.Receptor>
prm/pocket_docking_6.prm

>  <SCORE>
-17.1125

>  <SCORE.INTER>
-14.5077

>  <SCORE.INTER.CONST>
1

>  <SCORE.INTER.POLAR>
0

>  <SCORE.INTER.ROT>
8

>  <SCORE.INTER.SOLV>
6.69373

>  <SCORE.INTER.VDW>
-20.8364

>  <SCORE.INTER.norm>
-0.557988

>  <SCORE.INTRA>
-2.60476

>  <SCORE.INTRA.DIHEDRAL>
-2.88197

>  <SCORE.INTRA.DIHEDRAL.0>
7.88077

>  <SCORE.INTRA.POLAR>
0

>  <SCORE.INTRA.POLAR.0>
0

>  <SCORE.INTRA.REPUL>
0

>  <SCORE.INTRA.REPUL.0>
0

>  <SCORE.INTRA.SOLV>
-1.13837

>  <SCORE.INTRA.SOLV.lig_0>
-63.2542

>  <SCORE.INTRA.VDW>
-0.594587

>  <SCORE.INTRA.VDW.0>
-3.15072

>  <SCORE.INTRA.norm>
-0.100183

>  <SCORE.RESTR>
0

>  <SCORE.RESTR.CAVITY>
0

>  <SCORE.RESTR.norm>
0

>  <SCORE.SYSTEM>
0

>  <SCORE.SYSTEM.CONST>
0

>  <SCORE.SYSTEM.DIHEDRAL>
0

>  <SCORE.SYSTEM.SOLV>
0

>  <SCORE.SYSTEM.norm>
0

>  <SCORE.heavy>
26

>  <SCORE.norm>
-0.658171

>  <RMSD>
8.856

$$$$
ligand
 OpenBabel11021811473D
libRbt.so/2013.1/901 2013/11/27
 26 27  0  0  0  0  0  0  0  0999 V2000
   -7.3310  -10.0466   18.7154 C   0  0  0  0  0  0  0  0  0  0  0  0
   -2.6316   -9.8593   18.1551 C   0  0  0  0  0  0  0  0  0  0  0  0
   -3.8590   -9.8076   17.5027 C   0  0  0  0  0  0  0  0  0  0  0  0
   -4.8956   -8.7084   17.7471 C   0  0  0  0  0  0  0  0  0  0  0  0
   -6.3902   -9.2499   19.6242 C   0  0  1  0  0  0  0  0  0  0  0  0
   -1.1062  -12.9542   16.5342 C   0  0  0  0  0  0  0  0  0  0  0  0
   -2.0876  -11.8371   16.8918 C   0  0  0  0  0  0  0  0  0  0  0  0
   -4.1417  -10.7961   16.5655 C   0  0  0  0  0  0  0  0  0  0  0  0
   -4.5304   -8.0084   20.0518 C   0  0  0  0  0  0  0  0  0  0  0  0
   -6.6216   -9.1123   20.9876 C   0  0  2  0  0  0  0  0  0  0  0  0
   -7.7434   -9.6580   21.8748 C   0  0  0  0  0  0  0  0  0  0  0  0
   -7.3107  -10.8678   22.7064 C   0  0  0  0  0  0  0  0  0  0  0  0
   -1.7297  -10.8814   17.8521 N   0  0  0  0  0  0  0  0  0  0  0  0
   -5.2863   -8.6550   19.1633 N   0  0  0  0  0  0  0  0  0  0  0  0
   -3.2813  -11.7576   16.2865 N   0  0  0  0  0  0  0  0  0  0  0  0
   -2.3360   -9.0078   18.9938 O   0  0  0  0  0  0  0  0  0  0  0  0
   -7.8826  -13.9739   23.2016 O   0  5  0  0  0  0  0  0  0  0  0  0
   -8.7230  -14.8652   20.7517 O   0  0  0  0  0  0  0  0  0  0  0  0
   -6.9489  -11.9780   21.8791 O   0  0  0  0  0  0  0  0  0  0  0  0
   -6.2642  -14.3980   21.2806 O   0  0  0  0  0  0  0  0  0  0  0  0
   -7.3438  -13.3399   19.1822 O   0  5  0  0  0  0  0  0  0  0  0  0
   -5.3970  -13.3065   23.4424 O   0  0  0  0  0  0  0  0  0  0  0  0
   -6.8783  -15.8623   19.2773 O   0  0  0  0  0  0  0  0  0  0  0  0
   -5.3391   -8.1019   21.5938 S   0  0  0  0  0  0  0  0  0  0  0  0
   -6.5452  -13.4026   22.5120 P   0  0  2  0  0  0  0  0  0  0  0  0
   -7.3072  -14.5275   20.0645 P   0  0  2  0  0  0  0  0  0  0  0  0
  2 16  2  0  0  0  0
  2  3  1  0  0  0  0
  2 13  1  0  0  0  0
  3  8  2  0  0  0  0
  3  4  1  0  0  0  0
  4 14  1  0  0  0  0
  5  1  1  1  0  0  0
  5 14  1  0  0  0  0
  5 10  1  0  0  0  0
  6  7  1  0  0  0  0
  7 13  1  0  0  0  0
  7 15  2  0  0  0  0
  8 15  1  0  0  0  0
  9 14  1  0  0  0  0
  9 24  1  0  0  0  0
 10 24  1  0  0  0  0
 10 11  1  6  0  0  0
 11 12  1  0  0  0  0
 12 19  1  0  0  0  0
 17 25  1  0  0  0  0
 19 25  1  0  0  0  0
 20 26  1  0  0  0  0
 21 26  1  0  0  0  0
 22 25  2  0  0  0  0
 23 26  2  0  0  0  0
 25 20  1  6  0  0  0
 26 18  1  1  0  0  0
M  CHG  2  17  -1  21  -1
M  END
>  <CHROM.1>
-57.94566587,102.65338368,-63.01389286,-97.44579769,-176.11994404,63.13738577
66.59618451,-53.85065670,-5.57520024,-11.54431915,20.00877955,0.42139919
0.84801283,0.27255850

>  <Name>
ligand

>  <RI>
0

>  <Rbt.Current_Directory>
/home/itssahil/PROJECTS/Mol_Feturizer/New_Systems/rnas/3D2X

>  <Rbt.Executable>
rbdock ($Id: //depot/dev/client3/rdock/2013.1/src/exe/rbdock.cxx#4 $)

>  <Rbt.Library>
libRbt.so (2013.1, Build901 2013/11/27)

>  <Rbt.Parameter_File>
/export/apps/rDock/src/rDock_2013.1_src/data/scripts/dock_solv.prm

>  <Rbt.Receptor>
prm/pocket_docking_5.prm

>  <SCORE>
-15.1627

>  <SCORE.INTER>
-12.5382

>  <SCORE.INTER.CONST>
1

>  <SCORE.INTER.POLAR>
0

>  <SCORE.INTER.ROT>
8

>  <SCORE.INTER.SOLV>
13.23

>  <SCORE.INTER.VDW>
-21.7022

>  <SCORE.INTER.norm>
-0.48224

>  <SCORE.INTRA>
-2.6245

>  <SCORE.INTRA.DIHEDRAL>
-2.37639

>  <SCORE.INTRA.DIHEDRAL.0>
7.88077

>  <SCORE.INTRA.POLAR>
0

>  <SCORE.INTRA.POLAR.0>
0

>  <SCORE.INTRA.REPUL>
0

>  <SCORE.INTRA.REPUL.0>
0

>  <SCORE.INTRA.SOLV>
-1.03101

>  <SCORE.INTRA.SOLV.lig_0>
-63.2542

>  <SCORE.INTRA.VDW>
-0.9208

>  <SCORE.INTRA.VDW.0>
-3.15072

>  <SCORE.INTRA.norm>
-0.100942

>  <SCORE.RESTR>
0

>  <SCORE.RESTR.CAVITY>
0

>  <SCORE.RESTR.norm>
0

>  <SCORE.SYSTEM>
0

>  <SCORE.SYSTEM.CONST>
0

>  <SCORE.SYSTEM.DIHEDRAL>
0

>  <SCORE.SYSTEM.SOLV>
0

>  <SCORE.SYSTEM.norm>
0

>  <SCORE.heavy>
26

>  <SCORE.norm>
-0.583183

>  <RMSD>
8.900

$$$$
ligand
 OpenBabel11021811473D
libRbt.so/2013.1/901 2013/11/27
 26 27  0  0  0  0  0  0  0  0999 V2000
   -4.9360   -9.4327   17.3161 C   0  0  0  0  0  0  0  0  0  0  0  0
   -3.3368  -13.4521   15.6929 C   0  0  0  0  0  0  0  0  0  0  0  0
   -4.4792  -12.9646   15.0669 C   0  0  0  0  0  0  0  0  0  0  0  0
   -5.0027  -11.5398   15.2631 C   0  0  0  0  0  0  0  0  0  0  0  0
   -5.9897  -10.5437   17.2840 C   0  0  1  0  0  0  0  0  0  0  0  0
   -3.1912  -16.9742   14.2418 C   0  0  0  0  0  0  0  0  0  0  0  0
   -3.6516  -15.5484   14.5486 C   0  0  0  0  0  0  0  0  0  0  0  0
   -5.1622  -13.8141   14.2025 C   0  0  0  0  0  0  0  0  0  0  0  0
   -6.9834  -12.3905   16.3980 C   0  0  0  0  0  0  0  0  0  0  0  0
   -7.0048  -10.6262   18.2295 C   0  0  2  0  0  0  0  0  0  0  0  0
   -7.3332   -9.7340   19.4294 C   0  0  0  0  0  0  0  0  0  0  0  0
   -6.4578  -10.0298   20.6494 C   0  0  0  0  0  0  0  0  0  0  0  0
   -2.9108  -14.7569   15.4363 N   0  0  0  0  0  0  0  0  0  0  0  0
   -6.0038  -11.4873   16.3383 N   0  0  0  0  0  0  0  0  0  0  0  0
   -4.7501  -15.0459   13.9668 N   0  0  0  0  0  0  0  0  0  0  0  0
   -2.6990  -12.7387   16.4676 O   0  0  0  0  0  0  0  0  0  0  0  0
   -4.1032  -11.4889   21.9245 O   0  5  0  0  0  0  0  0  0  0  0  0
   -8.5384  -10.7419   23.2395 O   0  0  0  0  0  0  0  0  0  0  0  0
   -6.5049  -11.4129   21.0134 O   0  0  0  0  0  0  0  0  0  0  0  0
   -6.0464  -11.2283   23.5509 O   0  0  0  0  0  0  0  0  0  0  0  0
   -7.7981  -12.9083   24.4440 O   0  5  0  0  0  0  0  0  0  0  0  0
   -5.7105  -13.4709   22.3366 O   0  0  0  0  0  0  0  0  0  0  0  0
   -7.4871  -10.6250   25.5745 O   0  0  0  0  0  0  0  0  0  0  0  0
   -7.9210  -12.0522   17.8289 S   0  0  0  0  0  0  0  0  0  0  0  0
   -5.6025  -11.9991   22.2113 P   0  0  2  0  0  0  0  0  0  0  0  0
   -7.4896  -11.4795   24.2125 P   0  0  2  0  0  0  0  0  0  0  0  0
  2 16  2  0  0  0  0
  2  3  1  0  0  0  0
  2 13  1  0  0  0  0
  3  8  2  0  0  0  0
  3  4  1  0  0  0  0
  4 14  1  0  0  0  0
  5  1  1  6  0  0  0
  5 14  1  0  0  0  0
  5 10  1  0  0  0  0
  6  7  1  0  0  0  0
  7 13  1  0  0  0  0
  7 15  2  0  0  0  0
  8 15  1  0  0  0  0
  9 14  1  0  0  0  0
  9 24  1  0  0  0  0
 10 24  1  0  0  0  0
 10 11  1  1  0  0  0
 11 12  1  0  0  0  0
 12 19  1  0  0  0  0
 17 25  1  0  0  0  0
 19 25  1  0  0  0  0
 20 26  1  0  0  0  0
 21 26  1  0  0  0  0
 22 25  2  0  0  0  0
 23 26  2  0  0  0  0
 25 20  1  1  0  0  0
 26 18  1  6  0  0  0
M  CHG  2  17  -1  21  -1
M  END
>  <CHROM.1>
-93.29921391,-80.13381288,-54.12700754,134.46263840,176.32397165,-178.64635236
-50.12220759,-73.07551002,-5.85015562,-12.17109203,19.26461198,1.04118755
0.94605435,-1.41327230

>  <Name>
ligand

>  <RI>
0

>  <Rbt.Current_Directory>
/home/itssahil/PROJECTS/Mol_Feturizer/New_Systems/rnas/3D2X

>  <Rbt.Executable>
rbdock ($Id: //depot/dev/client3/rdock/2013.1/src/exe/rbdock.cxx#4 $)

>  <Rbt.Library>
libRbt.so (2013.1, Build901 2013/11/27)

>  <Rbt.Parameter_File>
/export/apps/rDock/src/rDock_2013.1_src/data/scripts/dock_solv.prm

>  <Rbt.Receptor>
prm/pocket_docking_8.prm

>  <SCORE>
-18.8147

>  <SCORE.INTER>
-15.2104

>  <SCORE.INTER.CONST>
1

>  <SCORE.INTER.POLAR>
0

>  <SCORE.INTER.ROT>
8

>  <SCORE.INTER.SOLV>
7.41236

>  <SCORE.INTER.VDW>
-21.5444

>  <SCORE.INTER.norm>
-0.585014

>  <SCORE.INTRA>
-3.60429

>  <SCORE.INTRA.DIHEDRAL>
-2.72478

>  <SCORE.INTRA.DIHEDRAL.0>
7.88077

>  <SCORE.INTRA.POLAR>
0

>  <SCORE.INTRA.POLAR.0>
0

>  <SCORE.INTRA.REPUL>
0

>  <SCORE.INTRA.REPUL.0>
0

>  <SCORE.INTRA.SOLV>
-2.42369

>  <SCORE.INTRA.SOLV.lig_0>
-63.2542

>  <SCORE.INTRA.VDW>
-1.03006

>  <SCORE.INTRA.VDW.0>
-3.15072

>  <SCORE.INTRA.norm>
-0.138627

>  <SCORE.RESTR>
0

>  <SCORE.RESTR.CAVITY>
0

>  <SCORE.RESTR.norm>
0

>  <SCORE.SYSTEM>
0

>  <SCORE.SYSTEM.CONST>
0

>  <SCORE.SYSTEM.DIHEDRAL>
0

>  <SCORE.SYSTEM.SOLV>
0

>  <SCORE.SYSTEM.norm>
0

>  <SCORE.heavy>
26

>  <SCORE.norm>
-0.723641

>  <RMSD>
8.914

$$$$
ligand
 OpenBabel11021811473D
libRbt.so/2013.1/901 2013/11/27
 26 27  0  0  0  0  0  0  0  0999 V2000
   -3.9792  -10.4669   19.6769 C   0  0  0  0  0  0  0  0  0  0  0  0
   -5.5660  -11.6339   15.4757 C   0  0  0  0  0  0  0  0  0  0  0  0
   -4.4706  -11.1216   16.1630 C   0  0  0  0  0  0  0  0  0  0  0  0
   -4.4790   -9.7611   16.8642 C   0  0  0  0  0  0  0  0  0  0  0  0
   -5.3447  -10.0128   19.1528 C   0  0  1  0  0  0  0  0  0  0  0  0
   -4.1884  -15.0164   14.3832 C   0  0  0  0  0  0  0  0  0  0  0  0
   -4.2912  -13.6232   15.0056 C   0  0  0  0  0  0  0  0  0  0  0  0
   -3.3204  -11.9012   16.2312 C   0  0  0  0  0  0  0  0  0  0  0  0
   -6.7725   -9.2871   17.5348 C   0  0  0  0  0  0  0  0  0  0  0  0
   -6.4519   -9.8923   19.9840 C   0  0  2  0  0  0  0  0  0  0  0  0
   -6.6100  -10.1393   21.4865 C   0  0  0  0  0  0  0  0  0  0  0  0
   -6.4138  -11.6070   21.8732 C   0  0  0  0  0  0  0  0  0  0  0  0
   -5.4843  -12.8979   14.8879 N   0  0  0  0  0  0  0  0  0  0  0  0
   -5.5471   -9.6918   17.8718 N   0  0  0  0  0  0  0  0  0  0  0  0
   -3.2545  -13.0953   15.6722 N   0  0  0  0  0  0  0  0  0  0  0  0
   -6.6059  -10.9810   15.3866 O   0  0  0  0  0  0  0  0  0  0  0  0
   -7.5863  -14.4341   22.7132 O   0  5  0  0  0  0  0  0  0  0  0  0
   -9.9016  -16.4652   19.3943 O   0  0  0  0  0  0  0  0  0  0  0  0
   -7.2325  -12.4771   21.0855 O   0  0  0  0  0  0  0  0  0  0  0  0
   -8.2718  -14.7009   20.2743 O   0  0  0  0  0  0  0  0  0  0  0  0
   -7.4012  -17.0630   19.6821 O   0  5  0  0  0  0  0  0  0  0  0  0
   -5.7737  -14.5855   20.8766 O   0  0  0  0  0  0  0  0  0  0  0  0
   -8.8931  -16.7015   21.7391 O   0  0  0  0  0  0  0  0  0  0  0  0
   -7.7717   -9.4010   18.9594 S   0  0  0  0  0  0  0  0  0  0  0  0
   -7.1240  -14.0787   21.2130 P   0  0  2  0  0  0  0  0  0  0  0  0
   -8.5362  -16.2856   20.2276 P   0  0  2  0  0  0  0  0  0  0  0  0
  2 16  2  0  0  0  0
  2  3  1  0  0  0  0
  2 13  1  0  0  0  0
  3  8  2  0  0  0  0
  3  4  1  0  0  0  0
  4 14  1  0  0  0  0
  5  1  1  1  0  0  0
  5 14  1  0  0  0  0
  5 10  1  0  0  0  0
  6  7  1  0  0  0  0
  7 13  1  0  0  0  0
  7 15  2  0  0  0  0
  8 15  1  0  0  0  0
  9 14  1  0  0  0  0
  9 24  1  0  0  0  0
 10 24  1  0  0  0  0
 10 11  1  6  0  0  0
 11 12  1  0  0  0  0
 12 19  1  0  0  0  0
 17 25  1  0  0  0  0
 19 25  1  0  0  0  0
 20 26  1  0  0  0  0
 21 26  1  0  0  0  0
 22 25  2  0  0  0  0
 23 26  2  0  0  0  0
 25 20  1  6  0  0  0
 26 18  1  6  0  0  0
M  CHG  2  17  -1  21  -1
M  END
>  <CHROM.1>
57.92707163,-65.42149118,-51.92741241,92.33103759,174.93765836,-63.57745271
64.13359577,170.31685521,-6.48245056,-12.79189299,18.89550241,0.33671325
1.08292132,0.41357182

>  <Name>
ligand

>  <RI>
0

>  <Rbt.Current_Directory>
/home/itssahil/PROJECTS/Mol_Feturizer/New_Systems/rnas/3D2X

>  <Rbt.Executable>
rbdock ($Id: //depot/dev/client3/rdock/2013.1/src/exe/rbdock.cxx#4 $)

>  <Rbt.Library>
libRbt.so (2013.1, Build901 2013/11/27)

>  <Rbt.Parameter_File>
/export/apps/rDock/src/rDock_2013.1_src/data/scripts/dock_solv.prm

>  <Rbt.Receptor>
prm/pocket_docking_6.prm

>  <SCORE>
-19.8029

>  <SCORE.INTER>
-18.0058

>  <SCORE.INTER.CONST>
1

>  <SCORE.INTER.POLAR>
0

>  <SCORE.INTER.ROT>
8

>  <SCORE.INTER.SOLV>
13.3042

>  <SCORE.INTER.VDW>
-25.3719

>  <SCORE.INTER.norm>
-0.692532

>  <SCORE.INTRA>
-1.79709

>  <SCORE.INTRA.DIHEDRAL>
-2.83558

>  <SCORE.INTRA.DIHEDRAL.0>
7.88077

>  <SCORE.INTRA.POLAR>
0

>  <SCORE.INTRA.POLAR.0>
0

>  <SCORE.INTRA.REPUL>
0

>  <SCORE.INTRA.REPUL.0>
0

>  <SCORE.INTRA.SOLV>
0.904919

>  <SCORE.INTRA.SOLV.lig_0>
-63.2542

>  <SCORE.INTRA.VDW>
-0.83176

>  <SCORE.INTRA.VDW.0>
-3.15072

>  <SCORE.INTRA.norm>
-0.0691188

>  <SCORE.RESTR>
0

>  <SCORE.RESTR.CAVITY>
0

>  <SCORE.RESTR.norm>
0

>  <SCORE.SYSTEM>
0

>  <SCORE.SYSTEM.CONST>
0

>  <SCORE.SYSTEM.DIHEDRAL>
0

>  <SCORE.SYSTEM.SOLV>
0

>  <SCORE.SYSTEM.norm>
0

>  <SCORE.heavy>
26

>  <SCORE.norm>
-0.761651

>  <RMSD>
8.972

$$$$
ligand
 OpenBabel11021811473D
libRbt.so/2013.1/901 2013/11/27
 26 27  0  0  0  0  0  0  0  0999 V2000
   -3.8879  -10.2034   19.4297 C   0  0  0  0  0  0  0  0  0  0  0  0
   -4.4961  -11.7979   14.5483 C   0  0  0  0  0  0  0  0  0  0  0  0
   -4.8209  -11.5216   15.8722 C   0  0  0  0  0  0  0  0  0  0  0  0
   -4.5096  -10.1869   16.5536 C   0  0  0  0  0  0  0  0  0  0  0  0
   -5.2718   -9.8619   18.8696 C   0  0  1  0  0  0  0  0  0  0  0  0
   -5.9153  -15.3187   14.1986 C   0  0  0  0  0  0  0  0  0  0  0  0
   -5.5126  -13.9682   14.7927 C   0  0  0  0  0  0  0  0  0  0  0  0
   -5.4826  -12.5051   16.6005 C   0  0  0  0  0  0  0  0  0  0  0  0
   -6.7656   -9.5195   17.1860 C   0  0  0  0  0  0  0  0  0  0  0  0
   -6.3386   -9.5225   19.6930 C   0  0  2  0  0  0  0  0  0  0  0  0
   -6.4299   -9.3966   21.2160 C   0  0  0  0  0  0  0  0  0  0  0  0
   -6.2778  -10.7390   21.9352 C   0  0  0  0  0  0  0  0  0  0  0  0
   -4.8424  -13.0320   13.9942 N   0  0  0  0  0  0  0  0  0  0  0  0
   -5.5298   -9.8553   17.5588 N   0  0  0  0  0  0  0  0  0  0  0  0
   -5.8056  -13.6682   16.0663 N   0  0  0  0  0  0  0  0  0  0  0  0
   -3.9093  -10.9599   13.8633 O   0  0  0  0  0  0  0  0  0  0  0  0
   -7.8106  -13.1068   23.4089 O   0  5  0  0  0  0  0  0  0  0  0  0
   -8.5462  -15.8243   22.9078 O   0  0  0  0  0  0  0  0  0  0  0  0
   -7.0965  -11.7531   21.3444 O   0  0  0  0  0  0  0  0  0  0  0  0
   -8.2424  -14.0559   21.0846 O   0  0  0  0  0  0  0  0  0  0  0  0
   -9.6534  -16.1673   20.5950 O   0  5  0  0  0  0  0  0  0  0  0  0
   -5.8271  -13.9051   21.9563 O   0  0  0  0  0  0  0  0  0  0  0  0
   -7.1047  -16.3329   20.8501 O   0  0  0  0  0  0  0  0  0  0  0  0
   -7.6995   -9.2666   18.6368 S   0  0  0  0  0  0  0  0  0  0  0  0
   -7.1531  -13.2456   21.9464 P   0  0  2  0  0  0  0  0  0  0  0  0
   -8.4751  -15.6300   21.3116 P   0  0  2  0  0  0  0  0  0  0  0  0
  2 16  2  0  0  0  0
  2  3  1  0  0  0  0
  2 13  1  0  0  0  0
  3  8  2  0  0  0  0
  3  4  1  0  0  0  0
  4 14  1  0  0  0  0
  5  1  1  6  0  0  0
  5 14  1  0  0  0  0
  5 10  1  0  0  0  0
  6  7  1  0  0  0  0
  7 13  1  0  0  0  0
  7 15  2  0  0  0  0
  8 15  1  0  0  0  0
  9 14  1  0  0  0  0
  9 24  1  0  0  0  0
 10 24  1  0  0  0  0
 10 11  1  1  0  0  0
 11 12  1  0  0  0  0
 12 19  1  0  0  0  0
 17 25  1  0  0  0  0
 19 25  1  0  0  0  0
 20 26  1  0  0  0  0
 21 26  1  0  0  0  0
 22 25  2  0  0  0  0
 23 26  2  0  0  0  0
 25 20  1  6  0  0  0
 26 18  1  1  0  0  0
M  CHG  2  17  -1  21  -1
M  END
>  <CHROM.1>
147.84405794,-67.40678123,-47.37745352,110.73806250,-178.03452411,-73.61177155
65.05473954,45.67879544,-6.52490678,-12.49587163,19.07322594,-0.17990725
1.17854972,0.63382857

>  <Name>
ligand

>  <RI>
0

>  <Rbt.Current_Directory>
/home/itssahil/PROJECTS/Mol_Feturizer/New_Systems/rnas/3D2X

>  <Rbt.Executable>
rbdock ($Id: //depot/dev/client3/rdock/2013.1/src/exe/rbdock.cxx#4 $)

>  <Rbt.Library>
libRbt.so (2013.1, Build901 2013/11/27)

>  <Rbt.Parameter_File>
/export/apps/rDock/src/rDock_2013.1_src/data/scripts/dock_solv.prm

>  <Rbt.Receptor>
prm/pocket_docking_6.prm

>  <SCORE>
-19.8822

>  <SCORE.INTER>
-17.5943

>  <SCORE.INTER.CONST>
1

>  <SCORE.INTER.POLAR>
0

>  <SCORE.INTER.ROT>
8

>  <SCORE.INTER.SOLV>
15.6076

>  <SCORE.INTER.VDW>
-25.8654

>  <SCORE.INTER.norm>
-0.676704

>  <SCORE.INTRA>
-2.28792

>  <SCORE.INTRA.DIHEDRAL>
-2.30498

>  <SCORE.INTRA.DIHEDRAL.0>
7.88077

>  <SCORE.INTRA.POLAR>
0

>  <SCORE.INTRA.POLAR.0>
0

>  <SCORE.INTRA.REPUL>
0

>  <SCORE.INTRA.REPUL.0>
0

>  <SCORE.INTRA.SOLV>
-1.1072

>  <SCORE.INTRA.SOLV.lig_0>
-63.2542

>  <SCORE.INTRA.VDW>
-0.581828

>  <SCORE.INTRA.VDW.0>
-3.15072

>  <SCORE.INTRA.norm>
-0.087997

>  <SCORE.RESTR>
0

>  <SCORE.RESTR.CAVITY>
0

>  <SCORE.RESTR.norm>
0

>  <SCORE.SYSTEM>
0

>  <SCORE.SYSTEM.CONST>
0

>  <SCORE.SYSTEM.DIHEDRAL>
0

>  <SCORE.SYSTEM.SOLV>
0

>  <SCORE.SYSTEM.norm>
0

>  <SCORE.heavy>
26

>  <SCORE.norm>
-0.764701

>  <RMSD>
9.002

$$$$
ligand
 OpenBabel11021811473D
libRbt.so/2013.1/901 2013/11/27
 26 27  0  0  0  0  0  0  0  0999 V2000
   -3.8348   -9.6136   19.4144 C   0  0  0  0  0  0  0  0  0  0  0  0
   -4.4401  -11.7495   14.5931 C   0  0  0  0  0  0  0  0  0  0  0  0
   -4.7740  -11.4600   15.9120 C   0  0  0  0  0  0  0  0  0  0  0  0
   -4.4610  -10.1211   16.5843 C   0  0  0  0  0  0  0  0  0  0  0  0
   -5.2502   -9.5247   18.8363 C   0  0  1  0  0  0  0  0  0  0  0  0
   -5.8750  -15.2659   14.2626 C   0  0  0  0  0  0  0  0  0  0  0  0
   -5.4699  -13.9123   14.8483 C   0  0  0  0  0  0  0  0  0  0  0  0
   -5.4465  -12.4337   16.6435 C   0  0  0  0  0  0  0  0  0  0  0  0
   -6.7777   -9.6242   17.1510 C   0  0  0  0  0  0  0  0  0  0  0  0
   -6.3472   -9.1837   19.6185 C   0  0  2  0  0  0  0  0  0  0  0  0
   -6.4489   -8.8310   21.1047 C   0  0  0  0  0  0  0  0  0  0  0  0
   -6.9977   -9.9799   21.9539 C   0  0  0  0  0  0  0  0  0  0  0  0
   -4.7885  -12.9865   14.0470 N   0  0  0  0  0  0  0  0  0  0  0  0
   -5.5104   -9.7540   17.5461 N   0  0  0  0  0  0  0  0  0  0  0  0
   -5.7713  -13.5998   16.1168 N   0  0  0  0  0  0  0  0  0  0  0  0
   -3.8435  -10.9205   13.9057 O   0  0  0  0  0  0  0  0  0  0  0  0
   -5.5151  -13.6105   22.1066 O   0  5  0  0  0  0  0  0  0  0  0  0
   -8.3609  -11.1183   24.5531 O   0  0  0  0  0  0  0  0  0  0  0  0
   -6.1413  -11.1256   21.9131 O   0  0  0  0  0  0  0  0  0  0  0  0
   -6.1235  -12.3102   24.2109 O   0  0  0  0  0  0  0  0  0  0  0  0
   -6.8197  -11.5552   26.5845 O   0  5  0  0  0  0  0  0  0  0  0  0
   -7.9568  -12.8541   22.4905 O   0  0  0  0  0  0  0  0  0  0  0  0
   -6.1624   -9.8246   24.8065 O   0  0  0  0  0  0  0  0  0  0  0  0
   -7.7311   -9.2542   18.5634 S   0  0  0  0  0  0  0  0  0  0  0  0
   -6.5309  -12.4946   22.6663 P   0  0  2  0  0  0  0  0  0  0  0  0
   -6.8668  -11.2306   25.1413 P   0  0  2  0  0  0  0  0  0  0  0  0
  2 16  2  0  0  0  0
  2  3  1  0  0  0  0
  2 13  1  0  0  0  0
  3  8  2  0  0  0  0
  3  4  1  0  0  0  0
  4 14  1  0  0  0  0
  5  1  1  6  0  0  0
  5 14  1  0  0  0  0
  5 10  1  0  0  0  0
  6  7  1  0  0  0  0
  7 13  1  0  0  0  0
  7 15  2  0  0  0  0
  8 15  1  0  0  0  0
  9 14  1  0  0  0  0
  9 24  1  0  0  0  0
 10 24  1  0  0  0  0
 10 11  1  1  0  0  0
 11 12  1  0  0  0  0
 12 19  1  0  0  0  0
 17 25  1  0  0  0  0
 19 25  1  0  0  0  0
 20 26  1  0  0  0  0
 21 26  1  0  0  0  0
 22 25  2  0  0  0  0
 23 26  2  0  0  0  0
 25 20  1  1  0  0  0
 26 18  1  6  0  0  0
M  CHG  2  17  -1  21  -1
M  END
>  <CHROM.1>
145.95739739,-102.95022433,62.40079447,122.33157762,-176.97079179,177.70169706
167.18190144,30.10799987,-6.09715954,-11.30042500,19.96114706,0.01726197
1.38220325,-0.09310189

>  <Name>
ligand

>  <RI>
0

>  <Rbt.Current_Directory>
/home/itssahil/PROJECTS/Mol_Feturizer/New_Systems/rnas/3D2X

>  <Rbt.Executable>
rbdock ($Id: //depot/dev/client3/rdock/2013.1/src/exe/rbdock.cxx#4 $)

>  <Rbt.Library>
libRbt.so (2013.1, Build901 2013/11/27)

>  <Rbt.Parameter_File>
/export/apps/rDock/src/rDock_2013.1_src/data/scripts/dock_solv.prm

>  <Rbt.Receptor>
prm/pocket_docking_8.prm

>  <SCORE>
-17.6515

>  <SCORE.INTER>
-15.7169

>  <SCORE.INTER.CONST>
1

>  <SCORE.INTER.POLAR>
0

>  <SCORE.INTER.ROT>
8

>  <SCORE.INTER.SOLV>
10.125

>  <SCORE.INTER.VDW>
-22.7863

>  <SCORE.INTER.norm>
-0.604496

>  <SCORE.INTRA>
-1.9346

>  <SCORE.INTRA.DIHEDRAL>
-1.3592

>  <SCORE.INTRA.DIHEDRAL.0>
7.88077

>  <SCORE.INTRA.POLAR>
0

>  <SCORE.INTRA.POLAR.0>
0

>  <SCORE.INTRA.REPUL>
0

>  <SCORE.INTRA.REPUL.0>
0

>  <SCORE.INTRA.SOLV>
-1.3108

>  <SCORE.INTRA.SOLV.lig_0>
-63.2542

>  <SCORE.INTRA.VDW>
-0.5996

>  <SCORE.INTRA.VDW.0>
-3.15072

>  <SCORE.INTRA.norm>
-0.0744077

>  <SCORE.RESTR>
0

>  <SCORE.RESTR.CAVITY>
0

>  <SCORE.RESTR.norm>
0

>  <SCORE.SYSTEM>
0

>  <SCORE.SYSTEM.CONST>
0

>  <SCORE.SYSTEM.DIHEDRAL>
0

>  <SCORE.SYSTEM.SOLV>
0

>  <SCORE.SYSTEM.norm>
0

>  <SCORE.heavy>
26

>  <SCORE.norm>
-0.678904

>  <RMSD>
9.036

$$$$
ligand
 OpenBabel11021811473D
libRbt.so/2013.1/901 2013/11/27
 26 27  0  0  0  0  0  0  0  0999 V2000
   -3.9547   -9.4890   19.8531 C   0  0  0  0  0  0  0  0  0  0  0  0
   -3.7536  -11.9125   16.1306 C   0  0  0  0  0  0  0  0  0  0  0  0
   -4.8608  -11.1178   16.4086 C   0  0  0  0  0  0  0  0  0  0  0  0
   -4.7601   -9.7238   17.0326 C   0  0  0  0  0  0  0  0  0  0  0  0
   -5.4132   -9.4459   19.3876 C   0  0  1  0  0  0  0  0  0  0  0  0
   -5.4450  -14.9450   14.5570 C   0  0  0  0  0  0  0  0  0  0  0  0
   -5.2313  -13.5869   15.2273 C   0  0  0  0  0  0  0  0  0  0  0  0
   -6.1185  -11.6128   16.0790 C   0  0  0  0  0  0  0  0  0  0  0  0
   -7.0551   -9.4743   17.8108 C   0  0  0  0  0  0  0  0  0  0  0  0
   -6.4677   -9.2805   20.2776 C   0  0  2  0  0  0  0  0  0  0  0  0
   -6.4790   -9.1051   21.7983 C   0  0  0  0  0  0  0  0  0  0  0  0
   -7.6991   -9.7466   22.4633 C   0  0  0  0  0  0  0  0  0  0  0  0
   -3.9316  -13.1619   15.5330 N   0  0  0  0  0  0  0  0  0  0  0  0
   -5.7552   -9.5489   18.1003 N   0  0  0  0  0  0  0  0  0  0  0  0
   -6.2750  -12.7954   15.5137 N   0  0  0  0  0  0  0  0  0  0  0  0
   -2.6199  -11.5186   16.4051 O   0  0  0  0  0  0  0  0  0  0  0  0
   -5.2214  -11.3577   23.4111 O   0  5  0  0  0  0  0  0  0  0  0  0
   -7.3407  -11.4165   27.5656 O   0  0  0  0  0  0  0  0  0  0  0  0
   -7.6076  -11.1746   22.4745 O   0  0  0  0  0  0  0  0  0  0  0  0
   -7.2006  -11.4582   25.0117 O   0  0  0  0  0  0  0  0  0  0  0  0
   -5.9972  -13.2875   26.3880 O   0  5  0  0  0  0  0  0  0  0  0  0
   -6.7757  -13.4231   23.4069 O   0  0  0  0  0  0  0  0  0  0  0  0
   -5.1289  -10.8721   26.3897 O   0  0  0  0  0  0  0  0  0  0  0  0
   -7.9204   -9.3395   19.3187 S   0  0  0  0  0  0  0  0  0  0  0  0
   -6.7096  -11.9517   23.5621 P   0  0  2  0  0  0  0  0  0  0  0  0
   -6.3945  -11.8626   26.3422 P   0  0  2  0  0  0  0  0  0  0  0  0
  2 16  2  0  0  0  0
  2  3  1  0  0  0  0
  2 13  1  0  0  0  0
  3  8  2  0  0  0  0
  3  4  1  0  0  0  0
  4 14  1  0  0  0  0
  5  1  1  6  0  0  0
  5 14  1  0  0  0  0
  5 10  1  0  0  0  0
  6  7  1  0  0  0  0
  7 13  1  0  0  0  0
  7 15  2  0  0  0  0
  8 15  1  0  0  0  0
  9 14  1  0  0  0  0
  9 24  1  0  0  0  0
 10 24  1  0  0  0  0
 10 11  1  1  0  0  0
 11 12  1  0  0  0  0
 12 19  1  0  0  0  0
 17 25  1  0  0  0  0
 19 25  1  0  0  0  0
 20 26  1  0  0  0  0
 21 26  1  0  0  0  0
 22 25  2  0  0  0  0
 23 26  2  0  0  0  0
 25 20  1  1  0  0  0
 26 18  1  1  0  0  0
M  CHG  2  17  -1  21  -1
M  END
>  <CHROM.1>
-135.31707612,-146.19165836,72.90804051,111.36951888,79.63439873,-59.22244168
-56.45259220,-169.82545934,-6.00552034,-11.26149108,20.80788545,1.11043710
1.20688372,-1.15599574

>  <Name>
ligand

>  <RI>
0

>  <Rbt.Current_Directory>
/home/itssahil/PROJECTS/Mol_Feturizer/New_Systems/rnas/3D2X

>  <Rbt.Executable>
rbdock ($Id: //depot/dev/client3/rdock/2013.1/src/exe/rbdock.cxx#4 $)

>  <Rbt.Library>
libRbt.so (2013.1, Build901 2013/11/27)

>  <Rbt.Parameter_File>
/export/apps/rDock/src/rDock_2013.1_src/data/scripts/dock_solv.prm

>  <Rbt.Receptor>
prm/pocket_docking_7.prm

>  <SCORE>
-14.903

>  <SCORE.INTER>
-15.4137

>  <SCORE.INTER.CONST>
1

>  <SCORE.INTER.POLAR>
0

>  <SCORE.INTER.ROT>
8

>  <SCORE.INTER.SOLV>
6.32463

>  <SCORE.INTER.VDW>
-21.3174

>  <SCORE.INTER.norm>
-0.592835

>  <SCORE.INTRA>
0.510692

>  <SCORE.INTRA.DIHEDRAL>
-0.15061

>  <SCORE.INTRA.DIHEDRAL.0>
7.88077

>  <SCORE.INTRA.POLAR>
0

>  <SCORE.INTRA.POLAR.0>
0

>  <SCORE.INTRA.REPUL>
0

>  <SCORE.INTRA.REPUL.0>
0

>  <SCORE.INTRA.SOLV>
1.48577

>  <SCORE.INTRA.SOLV.lig_0>
-63.2542

>  <SCORE.INTRA.VDW>
-0.156889

>  <SCORE.INTRA.VDW.0>
-3.15072

>  <SCORE.INTRA.norm>
0.019642

>  <SCORE.RESTR>
0

>  <SCORE.RESTR.CAVITY>
0

>  <SCORE.RESTR.norm>
0

>  <SCORE.SYSTEM>
0

>  <SCORE.SYSTEM.CONST>
0

>  <SCORE.SYSTEM.DIHEDRAL>
0

>  <SCORE.SYSTEM.SOLV>
0

>  <SCORE.SYSTEM.norm>
0

>  <SCORE.heavy>
26

>  <SCORE.norm>
-0.573193

>  <RMSD>
9.048

$$$$
ligand
 OpenBabel11021811473D
libRbt.so/2013.1/901 2013/11/27
 26 27  0  0  0  0  0  0  0  0999 V2000
   -1.6312  -17.0560   17.6232 C   0  0  0  0  0  0  0  0  0  0  0  0
   -5.6391  -19.5357   15.5292 C   0  0  0  0  0  0  0  0  0  0  0  0
   -5.4996  -19.0878   16.8387 C   0  0  0  0  0  0  0  0  0  0  0  0
   -4.2693  -18.3287   17.3414 C   0  0  0  0  0  0  0  0  0  0  0  0
   -1.8240  -18.4940   17.1326 C   0  0  1  0  0  0  0  0  0  0  0  0
   -9.1127  -21.0982   15.6891 C   0  0  0  0  0  0  0  0  0  0  0  0
   -7.8181  -20.3925   16.0957 C   0  0  0  0  0  0  0  0  0  0  0  0
   -6.5457  -19.3259   17.7244 C   0  0  0  0  0  0  0  0  0  0  0  0
   -3.0761  -20.3201   16.6026 C   0  0  0  0  0  0  0  0  0  0  0  0
   -0.7505  -19.3085   16.7927 C   0  0  2  0  0  0  0  0  0  0  0  0
    0.7569  -19.0427   16.8149 C   0  0  0  0  0  0  0  0  0  0  0  0
    1.4397  -19.5870   18.0719 C   0  0  0  0  0  0  0  0  0  0  0  0
   -6.8080  -20.1958   15.1448 N   0  0  0  0  0  0  0  0  0  0  0  0
   -3.0318  -19.0533   17.0178 N   0  0  0  0  0  0  0  0  0  0  0  0
   -7.6466  -19.9505   17.3499 N   0  0  0  0  0  0  0  0  0  0  0  0
   -4.7401  -19.3500   14.7087 O   0  0  0  0  0  0  0  0  0  0  0  0
    4.0183  -18.4427   18.4435 O   0  5  0  0  0  0  0  0  0  0  0  0
    1.8937  -15.8110   21.7732 O   0  0  0  0  0  0  0  0  0  0  0  0
    1.5370  -18.5920   19.0957 O   0  0  0  0  0  0  0  0  0  0  0  0
    2.8808  -16.4195   19.4931 O   0  0  0  0  0  0  0  0  0  0  0  0
    1.6002  -14.1907   19.7780 O   0  5  0  0  0  0  0  0  0  0  0  0
    3.3329  -18.5010   20.9352 O   0  0  0  0  0  0  0  0  0  0  0  0
    0.3462  -16.4298   19.8255 O   0  0  0  0  0  0  0  0  0  0  0  0
   -1.4405  -20.8143   16.2543 S   0  0  0  0  0  0  0  0  0  0  0  0
    2.9624  -18.0229   19.5833 P   0  0  2  0  0  0  0  0  0  0  0  0
    1.6802  -15.6098   20.1906 P   0  0  2  0  0  0  0  0  0  0  0  0
  2 16  2  0  0  0  0
  2  3  1  0  0  0  0
  2 13  1  0  0  0  0
  3  8  2  0  0  0  0
  3  4  1  0  0  0  0
  4 14  1  0  0  0  0
  5  1  1  1  0  0  0
  5 14  1  0  0  0  0
  5 10  1  0  0  0  0
  6  7  1  0  0  0  0
  7 13  1  0  0  0  0
  7 15  2  0  0  0  0
  8 15  1  0  0  0  0
  9 14  1  0  0  0  0
  9 24  1  0  0  0  0
 10 24  1  0  0  0  0
 10 11  1  6  0  0  0
 11 12  1  0  0  0  0
 12 19  1  0  0  0  0
 17 25  1  0  0  0  0
 19 25  1  0  0  0  0
 20 26  1  0  0  0  0
 21 26  1  0  0  0  0
 22 25  2  0  0  0  0
 23 26  2  0  0  0  0
 25 20  1  1  0  0  0
 26 18  1  1  0  0  0
M  CHG  2  17  -1  21  -1
M  END
>  <CHROM.1>
-52.05451762,98.00450809,-93.59915932,167.72009895,-114.16767390,164.34378731
16.38435156,66.98062725,-1.28063283,-18.44994610,17.95750271,2.65741545,0.13667307
-2.50844631

>  <Name>
ligand

>  <RI>
0

>  <Rbt.Current_Directory>
/home/itssahil/PROJECTS/Mol_Feturizer/New_Systems/rnas/3D2X

>  <Rbt.Executable>
rbdock ($Id: //depot/dev/client3/rdock/2013.1/src/exe/rbdock.cxx#4 $)

>  <Rbt.Library>
libRbt.so (2013.1, Build901 2013/11/27)

>  <Rbt.Parameter_File>
/export/apps/rDock/src/rDock_2013.1_src/data/scripts/dock_solv.prm

>  <Rbt.Receptor>
prm/blind_docking_100.prm

>  <SCORE>
-10.5038

>  <SCORE.INTER>
-16.5414

>  <SCORE.INTER.CONST>
1

>  <SCORE.INTER.POLAR>
0

>  <SCORE.INTER.ROT>
8

>  <SCORE.INTER.SOLV>
25.1494

>  <SCORE.INTER.VDW>
-28.3441

>  <SCORE.INTER.norm>
-0.636208

>  <SCORE.INTRA>
6.0374

>  <SCORE.INTRA.DIHEDRAL>
10.0548

>  <SCORE.INTRA.DIHEDRAL.0>
7.88077

>  <SCORE.INTRA.POLAR>
0

>  <SCORE.INTRA.POLAR.0>
0

>  <SCORE.INTRA.REPUL>
0

>  <SCORE.INTRA.REPUL.0>
0

>  <SCORE.INTRA.SOLV>
0.520086

>  <SCORE.INTRA.SOLV.lig_0>
-63.2542

>  <SCORE.INTRA.VDW>
0.749974

>  <SCORE.INTRA.VDW.0>
-3.15072

>  <SCORE.INTRA.norm>
0.232208

>  <SCORE.RESTR>
0.000216802

>  <SCORE.RESTR.CAVITY>
0.000216802

>  <SCORE.RESTR.norm>
8.33855e-06

>  <SCORE.SYSTEM>
0

>  <SCORE.SYSTEM.CONST>
0

>  <SCORE.SYSTEM.DIHEDRAL>
0

>  <SCORE.SYSTEM.SOLV>
0

>  <SCORE.SYSTEM.norm>
0

>  <SCORE.heavy>
26

>  <SCORE.norm>
-0.403992

>  <RMSD>
9.054

$$$$
ligand
 OpenBabel11021811473D
libRbt.so/2013.1/901 2013/11/27
 26 27  0  0  0  0  0  0  0  0999 V2000
   -5.7872  -12.9759   19.6468 C   0  0  0  0  0  0  0  0  0  0  0  0
   -4.6554  -13.1459   16.1998 C   0  0  0  0  0  0  0  0  0  0  0  0
   -5.0814  -11.9952   16.8550 C   0  0  0  0  0  0  0  0  0  0  0  0
   -6.5544  -11.6755   17.1211 C   0  0  0  0  0  0  0  0  0  0  0  0
   -6.3873  -11.5687   19.5728 C   0  0  1  0  0  0  0  0  0  0  0  0
   -0.8751  -12.6760   16.3449 C   0  0  0  0  0  0  0  0  0  0  0  0
   -2.3757  -12.4334   16.5137 C   0  0  0  0  0  0  0  0  0  0  0  0
   -4.1123  -11.1060   17.3083 C   0  0  0  0  0  0  0  0  0  0  0  0
   -7.2153   -9.7574   18.4698 C   0  0  0  0  0  0  0  0  0  0  0  0
   -6.6032  -10.7973   20.7085 C   0  0  2  0  0  0  0  0  0  0  0  0
   -6.3293  -11.0887   22.1861 C   0  0  0  0  0  0  0  0  0  0  0  0
   -7.2106  -12.2075   22.7464 C   0  0  0  0  0  0  0  0  0  0  0  0
   -3.2894  -13.3757   16.0233 N   0  0  0  0  0  0  0  0  0  0  0  0
   -6.7231  -10.9958   18.4136 N   0  0  0  0  0  0  0  0  0  0  0  0
   -2.8235  -11.3337   17.1364 N   0  0  0  0  0  0  0  0  0  0  0  0
   -5.4752  -13.9624   15.7791 O   0  0  0  0  0  0  0  0  0  0  0  0
   -4.2662  -12.5753   23.6202 O   0  5  0  0  0  0  0  0  0  0  0  0
   -7.3120  -12.9525   27.1471 O   0  0  0  0  0  0  0  0  0  0  0  0
   -6.7982  -12.6006   24.0590 O   0  0  0  0  0  0  0  0  0  0  0  0
   -5.1328  -13.3785   25.8770 O   0  0  0  0  0  0  0  0  0  0  0  0
   -6.6287  -15.3763   26.5550 O   0  5  0  0  0  0  0  0  0  0  0  0
   -5.5318  -14.8230   23.7863 O   0  0  0  0  0  0  0  0  0  0  0  0
   -5.3274  -14.0598   28.3331 O   0  0  0  0  0  0  0  0  0  0  0  0
   -7.3322   -9.3164   20.1528 S   0  0  0  0  0  0  0  0  0  0  0  0
   -5.4433  -13.4369   24.3002 P   0  0  2  0  0  0  0  0  0  0  0  0
   -6.1385  -14.0354   26.9450 P   0  0  2  0  0  0  0  0  0  0  0  0
  2 16  2  0  0  0  0
  2  3  1  0  0  0  0
  2 13  1  0  0  0  0
  3  8  2  0  0  0  0
  3  4  1  0  0  0  0
  4 14  1  0  0  0  0
  5  1  1  6  0  0  0
  5 14  1  0  0  0  0
  5 10  1  0  0  0  0
  6  7  1  0  0  0  0
  7 13  1  0  0  0  0
  7 15  2  0  0  0  0
  8 15  1  0  0  0  0
  9 14  1  0  0  0  0
  9 24  1  0  0  0  0
 10 24  1  0  0  0  0
 10 11  1  1  0  0  0
 11 12  1  0  0  0  0
 12 19  1  0  0  0  0
 17 25  1  0  0  0  0
 19 25  1  0  0  0  0
 20 26  1  0  0  0  0
 21 26  1  0  0  0  0
 22 25  2  0  0  0  0
 23 26  2  0  0  0  0
 25 20  1  1  0  0  0
 26 18  1  1  0  0  0
M  CHG  2  17  -1  21  -1
M  END
>  <CHROM.1>
144.42333541,-66.94609166,171.02110536,-61.70006285,-72.07218074,175.67066811
55.27166239,-80.96455036,-5.56029579,-12.49746146,21.41247800,-1.35070596
-0.71479036,1.90318041

>  <Name>
ligand

>  <RI>
0

>  <Rbt.Current_Directory>
/home/itssahil/PROJECTS/Mol_Feturizer/New_Systems/rnas/3D2X

>  <Rbt.Executable>
rbdock ($Id: //depot/dev/client3/rdock/2013.1/src/exe/rbdock.cxx#4 $)

>  <Rbt.Library>
libRbt.so (2013.1, Build901 2013/11/27)

>  <Rbt.Parameter_File>
/export/apps/rDock/src/rDock_2013.1_src/data/scripts/dock_solv.prm

>  <Rbt.Receptor>
prm/pocket_docking_6.prm

>  <SCORE>
-11.6366

>  <SCORE.INTER>
-10.529

>  <SCORE.INTER.CONST>
1

>  <SCORE.INTER.POLAR>
0

>  <SCORE.INTER.ROT>
8

>  <SCORE.INTER.SOLV>
10.7372

>  <SCORE.INTER.VDW>
-19.5318

>  <SCORE.INTER.norm>
-0.404962

>  <SCORE.INTRA>
-1.10758

>  <SCORE.INTRA.DIHEDRAL>
-1.68312

>  <SCORE.INTRA.DIHEDRAL.0>
7.88077

>  <SCORE.INTRA.POLAR>
0

>  <SCORE.INTRA.POLAR.0>
0

>  <SCORE.INTRA.REPUL>
0

>  <SCORE.INTRA.REPUL.0>
0

>  <SCORE.INTRA.SOLV>
-0.613394

>  <SCORE.INTRA.SOLV.lig_0>
-63.2542

>  <SCORE.INTRA.VDW>
0.0406789

>  <SCORE.INTRA.VDW.0>
-3.15072

>  <SCORE.INTRA.norm>
-0.0425992

>  <SCORE.RESTR>
0

>  <SCORE.RESTR.CAVITY>
0

>  <SCORE.RESTR.norm>
0

>  <SCORE.SYSTEM>
0

>  <SCORE.SYSTEM.CONST>
0

>  <SCORE.SYSTEM.DIHEDRAL>
0

>  <SCORE.SYSTEM.SOLV>
0

>  <SCORE.SYSTEM.norm>
0

>  <SCORE.heavy>
26

>  <SCORE.norm>
-0.447561

>  <RMSD>
9.083

$$$$
ligand
 OpenBabel11021811473D
libRbt.so/2013.1/901 2013/11/27
 26 27  0  0  0  0  0  0  0  0999 V2000
   -3.5169   -9.3459   18.9843 C   0  0  0  0  0  0  0  0  0  0  0  0
   -5.2946  -12.7517   16.6287 C   0  0  0  0  0  0  0  0  0  0  0  0
   -4.8257  -11.7209   15.8211 C   0  0  0  0  0  0  0  0  0  0  0  0
   -4.3972  -10.3555   16.3642 C   0  0  0  0  0  0  0  0  0  0  0  0
   -4.9851   -9.3959   18.5514 C   0  0  1  0  0  0  0  0  0  0  0  0
   -5.8547  -15.4810   14.0267 C   0  0  0  0  0  0  0  0  0  0  0  0
   -5.5003  -14.1396   14.6705 C   0  0  0  0  0  0  0  0  0  0  0  0
   -4.7223  -11.9585   14.4543 C   0  0  0  0  0  0  0  0  0  0  0  0
   -6.6659   -9.8276   17.0777 C   0  0  0  0  0  0  0  0  0  0  0  0
   -6.0132   -8.9522   19.3745 C   0  0  2  0  0  0  0  0  0  0  0  0
   -5.9827   -8.3483   20.7808 C   0  0  0  0  0  0  0  0  0  0  0  0
   -6.4058   -9.3416   21.8655 C   0  0  0  0  0  0  0  0  0  0  0  0
   -5.6375  -13.9780   16.0555 N   0  0  0  0  0  0  0  0  0  0  0  0
   -5.3613   -9.8535   17.3539 N   0  0  0  0  0  0  0  0  0  0  0  0
   -5.0489  -13.1220   13.9232 N   0  0  0  0  0  0  0  0  0  0  0  0
   -5.4050  -12.5893   17.8441 O   0  0  0  0  0  0  0  0  0  0  0  0
   -8.2102  -10.2099   24.2679 O   0  5  0  0  0  0  0  0  0  0  0  0
   -5.0976  -10.9909   26.9379 O   0  0  0  0  0  0  0  0  0  0  0  0
   -6.4170   -8.7377   23.1627 O   0  0  0  0  0  0  0  0  0  0  0  0
   -5.7577  -10.8687   24.4695 O   0  0  0  0  0  0  0  0  0  0  0  0
   -6.9628  -12.5388   26.0338 O   0  5  0  0  0  0  0  0  0  0  0  0
   -6.6136   -8.7943   25.7270 O   0  0  0  0  0  0  0  0  0  0  0  0
   -4.5174  -12.9213   25.3543 O   0  0  0  0  0  0  0  0  0  0  0  0
   -7.4902   -9.2416   18.4982 S   0  0  0  0  0  0  0  0  0  0  0  0
   -6.7391   -9.5949   24.4874 P   0  0  2  0  0  0  0  0  0  0  0  0
   -5.6786  -11.8721   25.7227 P   0  0  2  0  0  0  0  0  0  0  0  0
  2 16  2  0  0  0  0
  2  3  1  0  0  0  0
  2 13  1  0  0  0  0
  3  8  2  0  0  0  0
  3  4  1  0  0  0  0
  4 14  1  0  0  0  0
  5  1  1  6  0  0  0
  5 14  1  0  0  0  0
  5 10  1  0  0  0  0
  6  7  1  0  0  0  0
  7 13  1  0  0  0  0
  7 15  2  0  0  0  0
  8 15  1  0  0  0  0
  9 14  1  0  0  0  0
  9 24  1  0  0  0  0
 10 24  1  0  0  0  0
 10 11  1  1  0  0  0
 11 12  1  0  0  0  0
 12 19  1  0  0  0  0
 17 25  1  0  0  0  0
 19 25  1  0  0  0  0
 20 26  1  0  0  0  0
 21 26  1  0  0  0  0
 22 25  2  0  0  0  0
 23 26  2  0  0  0  0
 25 20  1  1  0  0  0
 26 18  1  1  0  0  0
M  CHG  2  17  -1  21  -1
M  END
>  <CHROM.1>
-44.42883915,-103.45150959,-177.80258485,130.30447667,-176.15860423,-74.73960369
-59.10880873,-64.30171149,-5.86808367,-10.93072399,20.55001381,1.12402576
1.38058299,-1.30087389

>  <Name>
ligand

>  <RI>
0

>  <Rbt.Current_Directory>
/home/itssahil/PROJECTS/Mol_Feturizer/New_Systems/rnas/3D2X

>  <Rbt.Executable>
rbdock ($Id: //depot/dev/client3/rdock/2013.1/src/exe/rbdock.cxx#4 $)

>  <Rbt.Library>
libRbt.so (2013.1, Build901 2013/11/27)

>  <Rbt.Parameter_File>
/export/apps/rDock/src/rDock_2013.1_src/data/scripts/dock_solv.prm

>  <Rbt.Receptor>
prm/pocket_docking_8.prm

>  <SCORE>
-18.2889

>  <SCORE.INTER>
-15.9472

>  <SCORE.INTER.CONST>
1

>  <SCORE.INTER.POLAR>
0

>  <SCORE.INTER.ROT>
8

>  <SCORE.INTER.SOLV>
8.73739

>  <SCORE.INTER.VDW>
-22.4773

>  <SCORE.INTER.norm>
-0.613355

>  <SCORE.INTRA>
-2.34171

>  <SCORE.INTRA.DIHEDRAL>
-2.56316

>  <SCORE.INTRA.DIHEDRAL.0>
7.88077

>  <SCORE.INTRA.POLAR>
0

>  <SCORE.INTRA.POLAR.0>
0

>  <SCORE.INTRA.REPUL>
0

>  <SCORE.INTRA.REPUL.0>
0

>  <SCORE.INTRA.SOLV>
-1.10254

>  <SCORE.INTRA.SOLV.lig_0>
-63.2542

>  <SCORE.INTRA.VDW>
-0.508864

>  <SCORE.INTRA.VDW.0>
-3.15072

>  <SCORE.INTRA.norm>
-0.0900659

>  <SCORE.RESTR>
0

>  <SCORE.RESTR.CAVITY>
0

>  <SCORE.RESTR.norm>
0

>  <SCORE.SYSTEM>
0

>  <SCORE.SYSTEM.CONST>
0

>  <SCORE.SYSTEM.DIHEDRAL>
0

>  <SCORE.SYSTEM.SOLV>
0

>  <SCORE.SYSTEM.norm>
0

>  <SCORE.heavy>
26

>  <SCORE.norm>
-0.703421

>  <RMSD>
9.102

$$$$
ligand
 OpenBabel11021811473D
libRbt.so/2013.1/901 2013/11/27
 26 27  0  0  0  0  0  0  0  0999 V2000
    0.3578  -14.2951   22.7588 C   0  0  0  0  0  0  0  0  0  0  0  0
    0.7123  -17.7817   18.6402 C   0  0  0  0  0  0  0  0  0  0  0  0
    0.2036  -16.6268   19.2251 C   0  0  0  0  0  0  0  0  0  0  0  0
    0.9290  -15.8533   20.3288 C   0  0  0  0  0  0  0  0  0  0  0  0
    0.3492  -13.6924   21.3508 C   0  0  1  0  0  0  0  0  0  0  0  0
   -2.0073  -18.5241   16.0741 C   0  0  0  0  0  0  0  0  0  0  0  0
   -1.2204  -17.8589   17.2043 C   0  0  0  0  0  0  0  0  0  0  0  0
   -1.0162  -16.1440   18.7622 C   0  0  0  0  0  0  0  0  0  0  0  0
    0.6035  -13.7810   19.0902 C   0  0  0  0  0  0  0  0  0  0  0  0
    0.0772  -12.3485   21.1245 C   0  0  2  0  0  0  0  0  0  0  0  0
   -0.2453  -11.2123   22.0985 C   0  0  0  0  0  0  0  0  0  0  0  0
   -1.2669  -10.2196   21.5390 C   0  0  0  0  0  0  0  0  0  0  0  0
   -0.0006  -18.4109   17.6176 N   0  0  0  0  0  0  0  0  0  0  0  0
    0.6173  -14.4183   20.2618 N   0  0  0  0  0  0  0  0  0  0  0  0
   -1.6815  -16.7467   17.7943 N   0  0  0  0  0  0  0  0  0  0  0  0
    1.7876  -18.2485   19.0167 O   0  0  0  0  0  0  0  0  0  0  0  0
    0.5694   -7.3891   19.5224 O   0  5  0  0  0  0  0  0  0  0  0  0
   -2.6482   -7.5152   20.7634 O   0  0  0  0  0  0  0  0  0  0  0  0
   -0.6976   -9.3890   20.5223 O   0  0  0  0  0  0  0  0  0  0  0  0
   -0.3685   -7.2165   21.8846 O   0  0  0  0  0  0  0  0  0  0  0  0
   -2.3279   -5.6601   22.5377 O   0  5  0  0  0  0  0  0  0  0  0  0
    1.6287   -8.7731   21.4314 O   0  0  0  0  0  0  0  0  0  0  0  0
   -1.2143   -5.4574   20.2340 O   0  0  0  0  0  0  0  0  0  0  0  0
    0.1312  -12.1307   19.3974 S   0  0  0  0  0  0  0  0  0  0  0  0
    0.3657   -8.2330   20.8777 P   0  0  2  0  0  0  0  0  0  0  0  0
   -1.6870   -6.4137   21.4369 P   0  0  2  0  0  0  0  0  0  0  0  0
  2 16  2  0  0  0  0
  2  3  1  0  0  0  0
  2 13  1  0  0  0  0
  3  8  2  0  0  0  0
  3  4  1  0  0  0  0
  4 14  1  0  0  0  0
  5  1  1  1  0  0  0
  5 14  1  0  0  0  0
  5 10  1  0  0  0  0
  6  7  1  0  0  0  0
  7 13  1  0  0  0  0
  7 15  2  0  0  0  0
  8 15  1  0  0  0  0
  9 14  1  0  0  0  0
  9 24  1  0  0  0  0
 10 24  1  0  0  0  0
 10 11  1  6  0  0  0
 11 12  1  0  0  0  0
 12 19  1  0  0  0  0
 17 25  1  0  0  0  0
 19 25  1  0  0  0  0
 20 26  1  0  0  0  0
 21 26  1  0  0  0  0
 22 25  2  0  0  0  0
 23 26  2  0  0  0  0
 25 20  1  1  0  0  0
 26 18  1  6  0  0  0
M  CHG  2  17  -1  21  -1
M  END
>  <CHROM.1>
149.42530823,-143.91699934,-73.04563578,136.82300673,-71.63584281,50.83107982
-170.94920225,47.47237420,-0.33418551,-11.82085160,20.16462046,-1.46043320
-0.80066073,0.34692789

>  <Name>
ligand

>  <RI>
0

>  <Rbt.Current_Directory>
/home/itssahil/PROJECTS/Mol_Feturizer/New_Systems/rnas/3D2X

>  <Rbt.Executable>
rbdock ($Id: //depot/dev/client3/rdock/2013.1/src/exe/rbdock.cxx#4 $)

>  <Rbt.Library>
libRbt.so (2013.1, Build901 2013/11/27)

>  <Rbt.Parameter_File>
/export/apps/rDock/src/rDock_2013.1_src/data/scripts/dock_solv.prm

>  <Rbt.Receptor>
prm/blind_docking_40.prm

>  <SCORE>
-10.528

>  <SCORE.INTER>
-10.1772

>  <SCORE.INTER.CONST>
1

>  <SCORE.INTER.POLAR>
0

>  <SCORE.INTER.ROT>
8

>  <SCORE.INTER.SOLV>
12.3826

>  <SCORE.INTER.VDW>
-19.8456

>  <SCORE.INTER.norm>
-0.39143

>  <SCORE.INTRA>
-0.961431

>  <SCORE.INTRA.DIHEDRAL>
-1.3271

>  <SCORE.INTRA.DIHEDRAL.0>
7.88077

>  <SCORE.INTRA.POLAR>
0

>  <SCORE.INTRA.POLAR.0>
0

>  <SCORE.INTRA.REPUL>
0

>  <SCORE.INTRA.REPUL.0>
0

>  <SCORE.INTRA.SOLV>
-0.852887

>  <SCORE.INTRA.SOLV.lig_0>
-63.2542

>  <SCORE.INTRA.VDW>
0.128563

>  <SCORE.INTRA.VDW.0>
-3.15072

>  <SCORE.INTRA.norm>
-0.0369781

>  <SCORE.RESTR>
0.61063

>  <SCORE.RESTR.CAVITY>
0.61063

>  <SCORE.RESTR.norm>
0.0234858

>  <SCORE.SYSTEM>
0

>  <SCORE.SYSTEM.CONST>
0

>  <SCORE.SYSTEM.DIHEDRAL>
0

>  <SCORE.SYSTEM.SOLV>
0

>  <SCORE.SYSTEM.norm>
0

>  <SCORE.heavy>
26

>  <SCORE.norm>
-0.404922

>  <RMSD>
9.105

$$$$
ligand
 OpenBabel11021811473D
libRbt.so/2013.1/901 2013/11/27
 26 27  0  0  0  0  0  0  0  0999 V2000
   -7.3081  -12.0439   18.5156 C   0  0  0  0  0  0  0  0  0  0  0  0
   -3.0449  -11.8728   18.0919 C   0  0  0  0  0  0  0  0  0  0  0  0
   -4.2507  -11.6616   17.4314 C   0  0  0  0  0  0  0  0  0  0  0  0
   -5.0561  -12.7835   16.7719 C   0  0  0  0  0  0  0  0  0  0  0  0
   -6.6015  -13.4010   18.5831 C   0  0  1  0  0  0  0  0  0  0  0  0
   -2.2668   -8.3348   19.2792 C   0  0  0  0  0  0  0  0  0  0  0  0
   -2.9634   -9.5223   18.6129 C   0  0  0  0  0  0  0  0  0  0  0  0
   -4.7547  -10.3655   17.3925 C   0  0  0  0  0  0  0  0  0  0  0  0
   -5.0617  -14.9372   17.9106 C   0  0  0  0  0  0  0  0  0  0  0  0
   -6.9886  -14.3914   19.4780 C   0  0  2  0  0  0  0  0  0  0  0  0
   -8.1050  -14.4167   20.5251 C   0  0  0  0  0  0  0  0  0  0  0  0
   -8.0047  -15.6128   21.4746 C   0  0  0  0  0  0  0  0  0  0  0  0
   -2.3875  -10.7972   18.6925 N   0  0  0  0  0  0  0  0  0  0  0  0
   -5.5841  -13.7172   17.7771 N   0  0  0  0  0  0  0  0  0  0  0  0
   -4.1250   -9.3560   17.9642 N   0  0  0  0  0  0  0  0  0  0  0  0
   -2.5577  -13.0019   18.1522 O   0  0  0  0  0  0  0  0  0  0  0  0
   -9.1674  -18.2232   22.5309 O   0  5  0  0  0  0  0  0  0  0  0  0
   -6.4805  -16.2087   26.3061 O   0  0  0  0  0  0  0  0  0  0  0  0
   -9.1046  -15.6580   22.3889 O   0  0  0  0  0  0  0  0  0  0  0  0
   -8.0030  -16.9004   24.3704 O   0  0  0  0  0  0  0  0  0  0  0  0
   -7.5586  -14.3915   24.8135 O   0  5  0  0  0  0  0  0  0  0  0  0
  -10.5656  -16.7982   24.1729 O   0  0  0  0  0  0  0  0  0  0  0  0
   -9.0021  -15.7653   26.4313 O   0  0  0  0  0  0  0  0  0  0  0  0
   -5.8890  -15.7193   19.2314 S   0  0  0  0  0  0  0  0  0  0  0  0
   -9.2962  -16.8843   23.4148 P   0  0  2  0  0  0  0  0  0  0  0  0
   -7.7424  -15.7230   25.4330 P   0  0  2  0  0  0  0  0  0  0  0  0
  2 16  2  0  0  0  0
  2  3  1  0  0  0  0
  2 13  1  0  0  0  0
  3  8  2  0  0  0  0
  3  4  1  0  0  0  0
  4 14  1  0  0  0  0
  5  1  1  6  0  0  0
  5 14  1  0  0  0  0
  5 10  1  0  0  0  0
  6  7  1  0  0  0  0
  7 13  1  0  0  0  0
  7 15  2  0  0  0  0
  8 15  1  0  0  0  0
  9 14  1  0  0  0  0
  9 24  1  0  0  0  0
 10 24  1  0  0  0  0
 10 11  1  1  0  0  0
 11 12  1  0  0  0  0
 12 19  1  0  0  0  0
 17 25  1  0  0  0  0
 19 25  1  0  0  0  0
 20 26  1  0  0  0  0
 21 26  1  0  0  0  0
 22 25  2  0  0  0  0
 23 26  2  0  0  0  0
 25 20  1  1  0  0  0
 26 18  1  1  0  0  0
M  CHG  2  17  -1  21  -1
M  END
>  <CHROM.1>
66.76112646,-169.00487151,-176.39145684,73.36360862,175.06627845,-179.83521283
-49.78586680,172.67261340,-6.49657820,-14.18469962,21.04124082,0.64278194
-0.89242013,-1.69617172

>  <Name>
ligand

>  <RI>
0

>  <Rbt.Current_Directory>
/home/itssahil/PROJECTS/Mol_Feturizer/New_Systems/rnas/3D2X

>  <Rbt.Executable>
rbdock ($Id: //depot/dev/client3/rdock/2013.1/src/exe/rbdock.cxx#4 $)

>  <Rbt.Library>
libRbt.so (2013.1, Build901 2013/11/27)

>  <Rbt.Parameter_File>
/export/apps/rDock/src/rDock_2013.1_src/data/scripts/dock_solv.prm

>  <Rbt.Receptor>
prm/pocket_docking_5.prm

>  <SCORE>
-8.48601

>  <SCORE.INTER>
-6.9403

>  <SCORE.INTER.CONST>
1

>  <SCORE.INTER.POLAR>
0

>  <SCORE.INTER.ROT>
8

>  <SCORE.INTER.SOLV>
17.8958

>  <SCORE.INTER.VDW>
-19.5255

>  <SCORE.INTER.norm>
-0.266935

>  <SCORE.INTRA>
-1.54571

>  <SCORE.INTRA.DIHEDRAL>
-2.92806

>  <SCORE.INTRA.DIHEDRAL.0>
7.88077

>  <SCORE.INTRA.POLAR>
0

>  <SCORE.INTRA.POLAR.0>
0

>  <SCORE.INTRA.REPUL>
0

>  <SCORE.INTRA.REPUL.0>
0

>  <SCORE.INTRA.SOLV>
0.0987015

>  <SCORE.INTRA.SOLV.lig_0>
-63.2542

>  <SCORE.INTRA.VDW>
-0.131028

>  <SCORE.INTRA.VDW.0>
-3.15072

>  <SCORE.INTRA.norm>
-0.0594503

>  <SCORE.RESTR>
0

>  <SCORE.RESTR.CAVITY>
0

>  <SCORE.RESTR.norm>
0

>  <SCORE.SYSTEM>
0

>  <SCORE.SYSTEM.CONST>
0

>  <SCORE.SYSTEM.DIHEDRAL>
0

>  <SCORE.SYSTEM.SOLV>
0

>  <SCORE.SYSTEM.norm>
0

>  <SCORE.heavy>
26

>  <SCORE.norm>
-0.326385

>  <RMSD>
9.124

$$$$
ligand
 OpenBabel11021811473D
libRbt.so/2013.1/901 2013/11/27
 26 27  0  0  0  0  0  0  0  0999 V2000
   -4.4541   -9.5576   20.2487 C   0  0  0  0  0  0  0  0  0  0  0  0
   -5.6908  -11.0718   15.6144 C   0  0  0  0  0  0  0  0  0  0  0  0
   -4.7089  -10.6891   16.5222 C   0  0  0  0  0  0  0  0  0  0  0  0
   -4.7689   -9.3892   17.3278 C   0  0  0  0  0  0  0  0  0  0  0  0
   -5.8149   -9.4571   19.5530 C   0  0  1  0  0  0  0  0  0  0  0  0
   -4.3233  -14.4459   14.4837 C   0  0  0  0  0  0  0  0  0  0  0  0
   -4.4605  -13.1008   15.1986 C   0  0  0  0  0  0  0  0  0  0  0  0
   -3.6321  -11.5478   16.7189 C   0  0  0  0  0  0  0  0  0  0  0  0
   -7.1683   -9.2686   17.7321 C   0  0  0  0  0  0  0  0  0  0  0  0
   -7.0079   -9.4281   20.2652 C   0  0  2  0  0  0  0  0  0  0  0  0
   -7.2787   -9.4734   21.7712 C   0  0  0  0  0  0  0  0  0  0  0  0
   -6.6279  -10.6763   22.4580 C   0  0  0  0  0  0  0  0  0  0  0  0
   -5.5736  -12.2896   14.9412 N   0  0  0  0  0  0  0  0  0  0  0  0
   -5.9335   -9.3759   18.2248 N   0  0  0  0  0  0  0  0  0  0  0  0
   -3.5318  -12.6971   16.0773 N   0  0  0  0  0  0  0  0  0  0  0  0
   -6.6623  -10.3451   15.4051 O   0  0  0  0  0  0  0  0  0  0  0  0
   -6.5842  -11.3978   26.3220 O   0  5  0  0  0  0  0  0  0  0  0  0
   -4.0614  -14.2111   24.6955 O   0  0  0  0  0  0  0  0  0  0  0  0
   -6.7854  -10.6250   23.8793 O   0  0  0  0  0  0  0  0  0  0  0  0
   -6.3571  -13.1099   24.4495 O   0  0  0  0  0  0  0  0  0  0  0  0
   -5.8246  -14.4962   26.5669 O   0  5  0  0  0  0  0  0  0  0  0  0
   -4.4986  -11.3655   24.7953 O   0  0  0  0  0  0  0  0  0  0  0  0
   -6.1433  -15.6527   24.2977 O   0  0  0  0  0  0  0  0  0  0  0  0
   -8.2773   -9.3576   19.0748 S   0  0  0  0  0  0  0  0  0  0  0  0
   -5.9589  -11.6053   24.8536 P   0  0  2  0  0  0  0  0  0  0  0  0
   -5.6090  -14.3709   25.1080 P   0  0  2  0  0  0  0  0  0  0  0  0
  2 16  2  0  0  0  0
  2  3  1  0  0  0  0
  2 13  1  0  0  0  0
  3  8  2  0  0  0  0
  3  4  1  0  0  0  0
  4 14  1  0  0  0  0
  5  1  1  1  0  0  0
  5 14  1  0  0  0  0
  5 10  1  0  0  0  0
  6  7  1  0  0  0  0
  7 13  1  0  0  0  0
  7 15  2  0  0  0  0
  8 15  1  0  0  0  0
  9 14  1  0  0  0  0
  9 24  1  0  0  0  0
 10 24  1  0  0  0  0
 10 11  1  6  0  0  0
 11 12  1  0  0  0  0
 12 19  1  0  0  0  0
 17 25  1  0  0  0  0
 19 25  1  0  0  0  0
 20 26  1  0  0  0  0
 21 26  1  0  0  0  0
 22 25  2  0  0  0  0
 23 26  2  0  0  0  0
 25 20  1  6  0  0  0
 26 18  1  6  0  0  0
M  CHG  2  17  -1  21  -1
M  END
>  <CHROM.1>
62.79946815,-54.21745994,174.31201624,110.46221960,-167.97979574,-74.41263782
-171.25327532,-60.79114419,-5.80870619,-11.60235898,20.80069475,1.47338071
1.10903056,-1.27681212

>  <Name>
ligand

>  <RI>
0

>  <Rbt.Current_Directory>
/home/itssahil/PROJECTS/Mol_Feturizer/New_Systems/rnas/3D2X

>  <Rbt.Executable>
rbdock ($Id: //depot/dev/client3/rdock/2013.1/src/exe/rbdock.cxx#4 $)

>  <Rbt.Library>
libRbt.so (2013.1, Build901 2013/11/27)

>  <Rbt.Parameter_File>
/export/apps/rDock/src/rDock_2013.1_src/data/scripts/dock_solv.prm

>  <Rbt.Receptor>
prm/pocket_docking_6.prm

>  <SCORE>
-16.3518

>  <SCORE.INTER>
-14.9428

>  <SCORE.INTER.CONST>
1

>  <SCORE.INTER.POLAR>
0

>  <SCORE.INTER.ROT>
8

>  <SCORE.INTER.SOLV>
9.38473

>  <SCORE.INTER.VDW>
-22.0234

>  <SCORE.INTER.norm>
-0.574723

>  <SCORE.INTRA>
-1.40901

>  <SCORE.INTRA.DIHEDRAL>
-2.19278

>  <SCORE.INTRA.DIHEDRAL.0>
7.88077

>  <SCORE.INTRA.POLAR>
0

>  <SCORE.INTRA.POLAR.0>
0

>  <SCORE.INTRA.REPUL>
0

>  <SCORE.INTRA.REPUL.0>
0

>  <SCORE.INTRA.SOLV>
-1.37278

>  <SCORE.INTRA.SOLV.lig_0>
-63.2542

>  <SCORE.INTRA.VDW>
0.373773

>  <SCORE.INTRA.VDW.0>
-3.15072

>  <SCORE.INTRA.norm>
-0.0541927

>  <SCORE.RESTR>
0

>  <SCORE.RESTR.CAVITY>
0

>  <SCORE.RESTR.norm>
0

>  <SCORE.SYSTEM>
0

>  <SCORE.SYSTEM.CONST>
0

>  <SCORE.SYSTEM.DIHEDRAL>
0

>  <SCORE.SYSTEM.SOLV>
0

>  <SCORE.SYSTEM.norm>
0

>  <SCORE.heavy>
26

>  <SCORE.norm>
-0.628916

>  <RMSD>
9.164

$$$$
ligand
 OpenBabel11021811473D
libRbt.so/2013.1/901 2013/11/27
 26 27  0  0  0  0  0  0  0  0999 V2000
   -5.0092   -9.2710   17.3587 C   0  0  0  0  0  0  0  0  0  0  0  0
   -3.5808  -13.5593   15.5943 C   0  0  0  0  0  0  0  0  0  0  0  0
   -3.7254  -12.1882   15.7783 C   0  0  0  0  0  0  0  0  0  0  0  0
   -4.9638  -11.4060   15.3341 C   0  0  0  0  0  0  0  0  0  0  0  0
   -6.0177  -10.4233   17.3275 C   0  0  1  0  0  0  0  0  0  0  0  0
   -0.1824  -14.1306   17.2245 C   0  0  0  0  0  0  0  0  0  0  0  0
   -1.4421  -13.4422   16.6969 C   0  0  0  0  0  0  0  0  0  0  0  0
   -2.6978  -11.5041   16.4197 C   0  0  0  0  0  0  0  0  0  0  0  0
   -6.9251  -12.3196   16.4536 C   0  0  0  0  0  0  0  0  0  0  0  0
   -7.0420  -10.5335   18.2603 C   0  0  2  0  0  0  0  0  0  0  0  0
   -7.4222   -9.6394   19.4432 C   0  0  0  0  0  0  0  0  0  0  0  0
   -6.8512  -10.1359   20.7735 C   0  0  0  0  0  0  0  0  0  0  0  0
   -2.4300  -14.2015   16.0560 N   0  0  0  0  0  0  0  0  0  0  0  0
   -5.9812  -11.3791   16.3948 N   0  0  0  0  0  0  0  0  0  0  0  0
   -1.6143  -12.1216   16.8526 N   0  0  0  0  0  0  0  0  0  0  0  0
   -4.4624  -14.2082   15.0309 O   0  0  0  0  0  0  0  0  0  0  0  0
   -7.9714  -11.2643   23.5115 O   0  5  0  0  0  0  0  0  0  0  0  0
   -3.4773  -11.0820   24.7295 O   0  0  0  0  0  0  0  0  0  0  0  0
   -7.3495   -9.3782   21.8804 O   0  0  0  0  0  0  0  0  0  0  0  0
   -5.6138  -10.3007   23.5596 O   0  0  0  0  0  0  0  0  0  0  0  0
   -5.4571  -10.1954   26.1390 O   0  5  0  0  0  0  0  0  0  0  0  0
   -7.5799   -8.8652   24.3906 O   0  0  0  0  0  0  0  0  0  0  0  0
   -5.6320  -12.4555   24.9348 O   0  0  0  0  0  0  0  0  0  0  0  0
   -7.8954  -11.9999   17.8668 S   0  0  0  0  0  0  0  0  0  0  0  0
   -7.1575   -9.8804   23.3984 P   0  0  2  0  0  0  0  0  0  0  0  0
   -5.0694  -10.9493   24.9258 P   0  0  2  0  0  0  0  0  0  0  0  0
  2 16  2  0  0  0  0
  2  3  1  0  0  0  0
  2 13  1  0  0  0  0
  3  8  2  0  0  0  0
  3  4  1  0  0  0  0
  4 14  1  0  0  0  0
  5  1  1  6  0  0  0
  5 14  1  0  0  0  0
  5 10  1  0  0  0  0
  6  7  1  0  0  0  0
  7 13  1  0  0  0  0
  7 15  2  0  0  0  0
  8 15  1  0  0  0  0
  9 14  1  0  0  0  0
  9 24  1  0  0  0  0
 10 24  1  0  0  0  0
 10 11  1  1  0  0  0
 11 12  1  0  0  0  0
 12 19  1  0  0  0  0
 17 25  1  0  0  0  0
 19 25  1  0  0  0  0
 20 26  1  0  0  0  0
 21 26  1  0  0  0  0
 22 25  2  0  0  0  0
 23 26  2  0  0  0  0
 25 20  1  1  0  0  0
 26 18  1  6  0  0  0
M  CHG  2  17  -1  21  -1
M  END
>  <CHROM.1>
89.09289094,-96.51215644,-173.05975248,89.44130945,166.91298254,-63.76498295
-63.32554414,-174.52992563,-5.37380171,-11.32585750,20.00164857,1.26189438
0.41768998,-1.71200553

>  <Name>
ligand

>  <RI>
0

>  <Rbt.Current_Directory>
/home/itssahil/PROJECTS/Mol_Feturizer/New_Systems/rnas/3D2X

>  <Rbt.Executable>
rbdock ($Id: //depot/dev/client3/rdock/2013.1/src/exe/rbdock.cxx#4 $)

>  <Rbt.Library>
libRbt.so (2013.1, Build901 2013/11/27)

>  <Rbt.Parameter_File>
/export/apps/rDock/src/rDock_2013.1_src/data/scripts/dock_solv.prm

>  <Rbt.Receptor>
prm/pocket_docking_6.prm

>  <SCORE>
-14.8222

>  <SCORE.INTER>
-13.591

>  <SCORE.INTER.CONST>
1

>  <SCORE.INTER.POLAR>
0

>  <SCORE.INTER.ROT>
8

>  <SCORE.INTER.SOLV>
8.27611

>  <SCORE.INTER.VDW>
-20.7527

>  <SCORE.INTER.norm>
-0.52273

>  <SCORE.INTRA>
-1.23123

>  <SCORE.INTRA.DIHEDRAL>
-1.70155

>  <SCORE.INTRA.DIHEDRAL.0>
7.88077

>  <SCORE.INTRA.POLAR>
0

>  <SCORE.INTRA.POLAR.0>
0

>  <SCORE.INTRA.REPUL>
0

>  <SCORE.INTRA.REPUL.0>
0

>  <SCORE.INTRA.SOLV>
0.461761

>  <SCORE.INTRA.SOLV.lig_0>
-63.2542

>  <SCORE.INTRA.VDW>
-0.611332

>  <SCORE.INTRA.VDW.0>
-3.15072

>  <SCORE.INTRA.norm>
-0.0473549

>  <SCORE.RESTR>
0

>  <SCORE.RESTR.CAVITY>
0

>  <SCORE.RESTR.norm>
0

>  <SCORE.SYSTEM>
0

>  <SCORE.SYSTEM.CONST>
0

>  <SCORE.SYSTEM.DIHEDRAL>
0

>  <SCORE.SYSTEM.SOLV>
0

>  <SCORE.SYSTEM.norm>
0

>  <SCORE.heavy>
26

>  <SCORE.norm>
-0.570084

>  <RMSD>
9.218

$$$$
ligand
 OpenBabel11021811473D
libRbt.so/2013.1/901 2013/11/27
 26 27  0  0  0  0  0  0  0  0999 V2000
   -4.6246   -9.3329   17.6901 C   0  0  0  0  0  0  0  0  0  0  0  0
   -4.4553  -13.5503   14.2891 C   0  0  0  0  0  0  0  0  0  0  0  0
   -3.7720  -12.9905   15.3635 C   0  0  0  0  0  0  0  0  0  0  0  0
   -4.0274  -11.5708   15.8751 C   0  0  0  0  0  0  0  0  0  0  0  0
   -5.5971  -10.4866   17.4277 C   0  0  1  0  0  0  0  0  0  0  0  0
   -2.9162  -17.0373   14.2197 C   0  0  0  0  0  0  0  0  0  0  0  0
   -3.2174  -15.5910   14.6154 C   0  0  0  0  0  0  0  0  0  0  0  0
   -2.8260  -13.7753   16.0152 C   0  0  0  0  0  0  0  0  0  0  0  0
   -6.2404  -12.4272   16.4262 C   0  0  0  0  0  0  0  0  0  0  0  0
   -6.8481  -10.5493   18.0298 C   0  0  2  0  0  0  0  0  0  0  0  0
   -7.5405   -9.5950   19.0062 C   0  0  0  0  0  0  0  0  0  0  0  0
   -7.0712   -9.7769   20.4515 C   0  0  0  0  0  0  0  0  0  0  0  0
   -4.1817  -14.8644   13.9044 N   0  0  0  0  0  0  0  0  0  0  0  0
   -5.3067  -11.4898   16.5947 N   0  0  0  0  0  0  0  0  0  0  0  0
   -2.5757  -15.0169   15.6432 N   0  0  0  0  0  0  0  0  0  0  0  0
   -5.3009  -12.8950   13.6797 O   0  0  0  0  0  0  0  0  0  0  0  0
   -9.1323   -8.9523   23.6931 O   0  5  0  0  0  0  0  0  0  0  0  0
   -7.0255  -12.5571   21.3355 O   0  0  0  0  0  0  0  0  0  0  0  0
   -8.0803   -9.3902   21.3896 O   0  0  0  0  0  0  0  0  0  0  0  0
   -8.4575  -11.3260   23.0610 O   0  0  0  0  0  0  0  0  0  0  0  0
   -6.2376  -12.4305   23.7963 O   0  5  0  0  0  0  0  0  0  0  0  0
   -6.6297   -9.5717   23.5062 O   0  0  0  0  0  0  0  0  0  0  0  0
   -8.2616  -13.8730   23.1553 O   0  0  0  0  0  0  0  0  0  0  0  0
   -7.5721  -12.0354   17.4816 S   0  0  0  0  0  0  0  0  0  0  0  0
   -7.9822   -9.7942   22.9453 P   0  0  2  0  0  0  0  0  0  0  0  0
   -7.4096  -12.5339   22.8985 P   0  0  2  0  0  0  0  0  0  0  0  0
  2 16  2  0  0  0  0
  2  3  1  0  0  0  0
  2 13  1  0  0  0  0
  3  8  2  0  0  0  0
  3  4  1  0  0  0  0
  4 14  1  0  0  0  0
  5  1  1  6  0  0  0
  5 14  1  0  0  0  0
  5 10  1  0  0  0  0
  6  7  1  0  0  0  0
  7 13  1  0  0  0  0
  7 15  2  0  0  0  0
  8 15  1  0  0  0  0
  9 14  1  0  0  0  0
  9 24  1  0  0  0  0
 10 24  1  0  0  0  0
 10 11  1  1  0  0  0
 11 12  1  0  0  0  0
 12 19  1  0  0  0  0
 17 25  1  0  0  0  0
 19 25  1  0  0  0  0
 20 26  1  0  0  0  0
 21 26  1  0  0  0  0
 22 25  2  0  0  0  0
 23 26  2  0  0  0  0
 25 20  1  1  0  0  0
 26 18  1  6  0  0  0
M  CHG  2  17  -1  21  -1
M  END
>  <CHROM.1>
73.21727284,-80.33935772,-152.84758534,161.81437909,165.65169627,-159.28360867
169.62239305,-71.42509491,-6.19898266,-11.93745074,19.05444333,0.36494632
1.12188678,-0.79250335

>  <Name>
ligand

>  <RI>
0

>  <Rbt.Current_Directory>
/home/itssahil/PROJECTS/Mol_Feturizer/New_Systems/rnas/3D2X

>  <Rbt.Executable>
rbdock ($Id: //depot/dev/client3/rdock/2013.1/src/exe/rbdock.cxx#4 $)

>  <Rbt.Library>
libRbt.so (2013.1, Build901 2013/11/27)

>  <Rbt.Parameter_File>
/export/apps/rDock/src/rDock_2013.1_src/data/scripts/dock_solv.prm

>  <Rbt.Receptor>
prm/pocket_docking_8.prm

>  <SCORE>
-17.9287

>  <SCORE.INTER>
-17.6208

>  <SCORE.INTER.CONST>
1

>  <SCORE.INTER.POLAR>
0

>  <SCORE.INTER.ROT>
8

>  <SCORE.INTER.SOLV>
16.7027

>  <SCORE.INTER.VDW>
-26.2481

>  <SCORE.INTER.norm>
-0.677724

>  <SCORE.INTRA>
-0.307893

>  <SCORE.INTRA.DIHEDRAL>
1.37414

>  <SCORE.INTRA.DIHEDRAL.0>
7.88077

>  <SCORE.INTRA.POLAR>
0

>  <SCORE.INTRA.POLAR.0>
0

>  <SCORE.INTRA.REPUL>
0

>  <SCORE.INTRA.REPUL.0>
0

>  <SCORE.INTRA.SOLV>
-1.94412

>  <SCORE.INTRA.SOLV.lig_0>
-63.2542

>  <SCORE.INTRA.VDW>
-0.0229051

>  <SCORE.INTRA.VDW.0>
-3.15072

>  <SCORE.INTRA.norm>
-0.011842

>  <SCORE.RESTR>
0

>  <SCORE.RESTR.CAVITY>
0

>  <SCORE.RESTR.norm>
0

>  <SCORE.SYSTEM>
0

>  <SCORE.SYSTEM.CONST>
0

>  <SCORE.SYSTEM.DIHEDRAL>
0

>  <SCORE.SYSTEM.SOLV>
0

>  <SCORE.SYSTEM.norm>
0

>  <SCORE.heavy>
26

>  <SCORE.norm>
-0.689566

>  <RMSD>
9.235

$$$$
ligand
 OpenBabel11021811473D
libRbt.so/2013.1/901 2013/11/27
 26 27  0  0  0  0  0  0  0  0999 V2000
   -6.6068  -19.5404   17.4238 C   0  0  0  0  0  0  0  0  0  0  0  0
   -2.0370  -19.5078   16.5387 C   0  0  0  0  0  0  0  0  0  0  0  0
   -2.7947  -18.3804   16.8374 C   0  0  0  0  0  0  0  0  0  0  0  0
   -4.2307  -18.1782   16.3479 C   0  0  0  0  0  0  0  0  0  0  0  0
   -6.1483  -18.1549   17.8882 C   0  0  1  0  0  0  0  0  0  0  0  0
    1.1718  -18.7198   18.4401 C   0  0  0  0  0  0  0  0  0  0  0  0
   -0.2369  -18.5993   17.8568 C   0  0  0  0  0  0  0  0  0  0  0  0
   -2.2191  -17.4018   17.6415 C   0  0  0  0  0  0  0  0  0  0  0  0
   -4.7462  -16.3612   17.8867 C   0  0  0  0  0  0  0  0  0  0  0  0
   -6.8275  -17.4428   18.8696 C   0  0  2  0  0  0  0  0  0  0  0  0
   -8.0760  -17.7955   19.6821 C   0  0  0  0  0  0  0  0  0  0  0  0
   -8.9710  -16.5845   19.9556 C   0  0  0  0  0  0  0  0  0  0  0  0
   -0.7431  -19.6271   17.0501 N   0  0  0  0  0  0  0  0  0  0  0  0
   -5.0624  -17.5577   17.3892 N   0  0  0  0  0  0  0  0  0  0  0  0
   -0.9950  -17.5252   18.1200 N   0  0  0  0  0  0  0  0  0  0  0  0
   -2.5022  -20.4006   15.8300 O   0  0  0  0  0  0  0  0  0  0  0  0
   -7.2683  -17.4852   22.5313 O   0  5  0  0  0  0  0  0  0  0  0  0
   -6.5741  -16.7094   25.0806 O   0  0  0  0  0  0  0  0  0  0  0  0
   -8.4633  -15.7803   21.0248 O   0  0  0  0  0  0  0  0  0  0  0  0
   -7.7710  -15.1578   23.4365 O   0  0  0  0  0  0  0  0  0  0  0  0
   -6.8641  -14.2058   25.6636 O   0  5  0  0  0  0  0  0  0  0  0  0
   -9.7097  -16.7990   23.0312 O   0  0  0  0  0  0  0  0  0  0  0  0
   -8.8936  -15.7772   25.6480 O   0  0  0  0  0  0  0  0  0  0  0  0
   -5.9856  -15.9271   19.0339 S   0  0  0  0  0  0  0  0  0  0  0  0
   -8.3938  -16.3347   22.5350 P   0  0  2  0  0  0  0  0  0  0  0  0
   -7.4765  -15.3790   25.0010 P   0  0  2  0  0  0  0  0  0  0  0  0
  2 16  2  0  0  0  0
  2  3  1  0  0  0  0
  2 13  1  0  0  0  0
  3  8  2  0  0  0  0
  3  4  1  0  0  0  0
  4 14  1  0  0  0  0
  5  1  1  1  0  0  0
  5 14  1  0  0  0  0
  5 10  1  0  0  0  0
  6  7  1  0  0  0  0
  7 13  1  0  0  0  0
  7 15  2  0  0  0  0
  8 15  1  0  0  0  0
  9 14  1  0  0  0  0
  9 24  1  0  0  0  0
 10 24  1  0  0  0  0
 10 11  1  6  0  0  0
 11 12  1  0  0  0  0
 12 19  1  0  0  0  0
 17 25  1  0  0  0  0
 19 25  1  0  0  0  0
 20 26  1  0  0  0  0
 21 26  1  0  0  0  0
 22 25  2  0  0  0  0
 23 26  2  0  0  0  0
 25 20  1  1  0  0  0
 26 18  1  1  0  0  0
M  CHG  2  17  -1  21  -1
M  END
>  <CHROM.1>
140.87598526,-143.90093134,-78.76696625,-119.78111824,-65.86308796,-64.62611339
68.64487448,53.04696424,-5.68230216,-17.13315892,20.32767806,0.89037136,0.08728213
-1.90200929

>  <Name>
ligand

>  <RI>
0

>  <Rbt.Current_Directory>
/home/itssahil/PROJECTS/Mol_Feturizer/New_Systems/rnas/3D2X

>  <Rbt.Executable>
rbdock ($Id: //depot/dev/client3/rdock/2013.1/src/exe/rbdock.cxx#4 $)

>  <Rbt.Library>
libRbt.so (2013.1, Build901 2013/11/27)

>  <Rbt.Parameter_File>
/export/apps/rDock/src/rDock_2013.1_src/data/scripts/dock_solv.prm

>  <Rbt.Receptor>
prm/blind_docking_100.prm

>  <SCORE>
-16.3288

>  <SCORE.INTER>
-16.6497

>  <SCORE.INTER.CONST>
1

>  <SCORE.INTER.POLAR>
0

>  <SCORE.INTER.ROT>
8

>  <SCORE.INTER.SOLV>
16.5759

>  <SCORE.INTER.VDW>
-25.5585

>  <SCORE.INTER.norm>
-0.640374

>  <SCORE.INTRA>
0.304704

>  <SCORE.INTRA.DIHEDRAL>
-1.32868

>  <SCORE.INTRA.DIHEDRAL.0>
7.88077

>  <SCORE.INTRA.POLAR>
0

>  <SCORE.INTRA.POLAR.0>
0

>  <SCORE.INTRA.REPUL>
0

>  <SCORE.INTRA.REPUL.0>
0

>  <SCORE.INTRA.SOLV>
0.573169

>  <SCORE.INTRA.SOLV.lig_0>
-63.2542

>  <SCORE.INTRA.VDW>
0.682459

>  <SCORE.INTRA.VDW.0>
-3.15072

>  <SCORE.INTRA.norm>
0.0117194

>  <SCORE.RESTR>
0.01623

>  <SCORE.RESTR.CAVITY>
0.01623

>  <SCORE.RESTR.norm>
0.00062423

>  <SCORE.SYSTEM>
0

>  <SCORE.SYSTEM.CONST>
0

>  <SCORE.SYSTEM.DIHEDRAL>
0

>  <SCORE.SYSTEM.SOLV>
0

>  <SCORE.SYSTEM.norm>
0

>  <SCORE.heavy>
26

>  <SCORE.norm>
-0.628031

>  <RMSD>
9.277

$$$$
ligand
 OpenBabel11021811473D
libRbt.so/2013.1/901 2013/11/27
 26 27  0  0  0  0  0  0  0  0999 V2000
    0.2340  -11.5102   20.1086 C   0  0  0  0  0  0  0  0  0  0  0  0
    0.5210  -16.7440   19.0397 C   0  0  0  0  0  0  0  0  0  0  0  0
    0.2257  -15.3903   18.9168 C   0  0  0  0  0  0  0  0  0  0  0  0
    1.0546  -14.2854   19.5762 C   0  0  0  0  0  0  0  0  0  0  0  0
    0.1045  -12.6382   21.1364 C   0  0  1  0  0  0  0  0  0  0  0  0
   -2.2188  -18.2593   16.8649 C   0  0  0  0  0  0  0  0  0  0  0  0
   -1.3509  -17.2423   17.6076 C   0  0  0  0  0  0  0  0  0  0  0  0
   -0.8666  -15.0293   18.1346 C   0  0  0  0  0  0  0  0  0  0  0  0
    0.2973  -14.7966   21.8345 C   0  0  0  0  0  0  0  0  0  0  0  0
   -0.4259  -12.4257   22.4032 C   0  0  2  0  0  0  0  0  0  0  0  0
   -0.9778  -11.1578   23.0600 C   0  0  0  0  0  0  0  0  0  0  0  0
   -2.1332  -11.4399   24.0232 C   0  0  0  0  0  0  0  0  0  0  0  0
   -0.2703  -17.6872   18.3809 N   0  0  0  0  0  0  0  0  0  0  0  0
    0.4787  -13.8928   20.8705 N   0  0  0  0  0  0  0  0  0  0  0  0
   -1.6077  -15.9296   17.5157 N   0  0  0  0  0  0  0  0  0  0  0  0
    1.4769  -17.1131   19.7222 O   0  0  0  0  0  0  0  0  0  0  0  0
   -3.5464  -14.4462   24.4421 O   0  5  0  0  0  0  0  0  0  0  0  0
   -4.1950  -14.4703   27.1334 O   0  0  0  0  0  0  0  0  0  0  0  0
   -3.2056  -12.1324   23.3767 O   0  0  0  0  0  0  0  0  0  0  0  0
   -4.3564  -12.3719   25.6793 O   0  0  0  0  0  0  0  0  0  0  0  0
   -5.2741  -12.3256   28.0968 O   0  5  0  0  0  0  0  0  0  0  0  0
   -5.5748  -13.1210   23.5413 O   0  0  0  0  0  0  0  0  0  0  0  0
   -6.4745  -13.6744   26.2724 O   0  0  0  0  0  0  0  0  0  0  0  0
   -0.3326  -13.9572   23.2272 S   0  0  0  0  0  0  0  0  0  0  0  0
   -4.2578  -13.0210   24.2114 P   0  0  2  0  0  0  0  0  0  0  0  0
   -5.0824  -13.1509   26.8833 P   0  0  2  0  0  0  0  0  0  0  0  0
  2 16  2  0  0  0  0
  2  3  1  0  0  0  0
  2 13  1  0  0  0  0
  3  8  2  0  0  0  0
  3  4  1  0  0  0  0
  4 14  1  0  0  0  0
  5  1  1  6  0  0  0
  5 14  1  0  0  0  0
  5 10  1  0  0  0  0
  6  7  1  0  0  0  0
  7 13  1  0  0  0  0
  7 15  2  0  0  0  0
  8 15  1  0  0  0  0
  9 14  1  0  0  0  0
  9 24  1  0  0  0  0
 10 24  1  0  0  0  0
 10 11  1  1  0  0  0
 11 12  1  0  0  0  0
 12 19  1  0  0  0  0
 17 25  1  0  0  0  0
 19 25  1  0  0  0  0
 20 26  1  0  0  0  0
 21 26  1  0  0  0  0
 22 25  2  0  0  0  0
 23 26  2  0  0  0  0
 25 20  1  1  0  0  0
 26 18  1  1  0  0  0
M  CHG  2  17  -1  21  -1
M  END
>  <CHROM.1>
-94.96696496,146.24128009,-56.76870642,-122.14391511,156.73443111,-55.63588348
-82.23614676,64.21719748,-2.12870561,-14.02796524,22.50043577,-0.93846959
0.56255193,0.80645606

>  <Name>
ligand

>  <RI>
0

>  <Rbt.Current_Directory>
/home/itssahil/PROJECTS/Mol_Feturizer/New_Systems/rnas/3D2X

>  <Rbt.Executable>
rbdock ($Id: //depot/dev/client3/rdock/2013.1/src/exe/rbdock.cxx#4 $)

>  <Rbt.Library>
libRbt.so (2013.1, Build901 2013/11/27)

>  <Rbt.Parameter_File>
/export/apps/rDock/src/rDock_2013.1_src/data/scripts/dock_solv.prm

>  <Rbt.Receptor>
prm/pocket_docking_6.prm

>  <SCORE>
-14.314

>  <SCORE.INTER>
-13.8769

>  <SCORE.INTER.CONST>
1

>  <SCORE.INTER.POLAR>
0

>  <SCORE.INTER.ROT>
8

>  <SCORE.INTER.SOLV>
15.4455

>  <SCORE.INTER.VDW>
-23.3331

>  <SCORE.INTER.norm>
-0.533725

>  <SCORE.INTRA>
-0.450219

>  <SCORE.INTRA.DIHEDRAL>
0.690169

>  <SCORE.INTRA.DIHEDRAL.0>
7.88077

>  <SCORE.INTRA.POLAR>
0

>  <SCORE.INTRA.POLAR.0>
0

>  <SCORE.INTRA.REPUL>
0

>  <SCORE.INTRA.REPUL.0>
0

>  <SCORE.INTRA.SOLV>
-0.427106

>  <SCORE.INTRA.SOLV.lig_0>
-63.2542

>  <SCORE.INTRA.VDW>
-0.58175

>  <SCORE.INTRA.VDW.0>
-3.15072

>  <SCORE.INTRA.norm>
-0.0173161

>  <SCORE.RESTR>
0.0131157

>  <SCORE.RESTR.CAVITY>
0.0131157

>  <SCORE.RESTR.norm>
0.000504451

>  <SCORE.SYSTEM>
0

>  <SCORE.SYSTEM.CONST>
0

>  <SCORE.SYSTEM.DIHEDRAL>
0

>  <SCORE.SYSTEM.SOLV>
0

>  <SCORE.SYSTEM.norm>
0

>  <SCORE.heavy>
26

>  <SCORE.norm>
-0.550537

>  <RMSD>
9.280

$$$$
ligand
 OpenBabel11021811473D
libRbt.so/2013.1/901 2013/11/27
 26 27  0  0  0  0  0  0  0  0999 V2000
   -0.5109  -20.3605   15.7035 C   0  0  0  0  0  0  0  0  0  0  0  0
   -5.0781  -21.3416   13.9773 C   0  0  0  0  0  0  0  0  0  0  0  0
   -4.3389  -20.5202   14.8220 C   0  0  0  0  0  0  0  0  0  0  0  0
   -3.0743  -19.7797   14.3803 C   0  0  0  0  0  0  0  0  0  0  0  0
   -1.4007  -19.1712   16.0770 C   0  0  1  0  0  0  0  0  0  0  0  0
   -7.9054  -22.3850   16.3118 C   0  0  0  0  0  0  0  0  0  0  0  0
   -6.6292  -21.7323   15.7785 C   0  0  0  0  0  0  0  0  0  0  0  0
   -4.7913  -20.3501   16.1266 C   0  0  0  0  0  0  0  0  0  0  0  0
   -3.2379  -17.8455   15.8523 C   0  0  0  0  0  0  0  0  0  0  0  0
   -1.0471  -18.2684   17.0727 C   0  0  2  0  0  0  0  0  0  0  0  0
    0.1894  -18.2009   17.9726 C   0  0  0  0  0  0  0  0  0  0  0  0
    0.2853  -16.8899   18.7565 C   0  0  0  0  0  0  0  0  0  0  0  0
   -6.2375  -21.9580   14.4523 N   0  0  0  0  0  0  0  0  0  0  0  0
   -2.5586  -18.9236   15.4583 N   0  0  0  0  0  0  0  0  0  0  0  0
   -5.8893  -20.9374   16.5649 N   0  0  0  0  0  0  0  0  0  0  0  0
   -4.7175  -21.5243   12.8144 O   0  0  0  0  0  0  0  0  0  0  0  0
    3.1916  -15.8491   21.0896 O   0  5  0  0  0  0  0  0  0  0  0  0
   -0.0099  -13.5354   17.9355 O   0  0  0  0  0  0  0  0  0  0  0  0
    1.2739  -16.9602   19.7887 O   0  0  0  0  0  0  0  0  0  0  0  0
    1.6110  -14.3980   19.7165 O   0  0  0  0  0  0  0  0  0  0  0  0
   -0.8754  -14.0266   20.3234 O   0  5  0  0  0  0  0  0  0  0  0  0
    0.7449  -15.5278   21.8589 O   0  0  0  0  0  0  0  0  0  0  0  0
    0.6739  -12.0262   19.8914 O   0  0  0  0  0  0  0  0  0  0  0  0
   -2.3613  -17.1306   17.1794 S   0  0  0  0  0  0  0  0  0  0  0  0
    1.6420  -15.6775   20.6901 P   0  0  2  0  0  0  0  0  0  0  0  0
    0.2678  -13.5372   19.5209 P   0  0  2  0  0  0  0  0  0  0  0  0
  2 16  2  0  0  0  0
  2  3  1  0  0  0  0
  2 13  1  0  0  0  0
  3  8  2  0  0  0  0
  3  4  1  0  0  0  0
  4 14  1  0  0  0  0
  5  1  1  6  0  0  0
  5 14  1  0  0  0  0
  5 10  1  0  0  0  0
  6  7  1  0  0  0  0
  7 13  1  0  0  0  0
  7 15  2  0  0  0  0
  8 15  1  0  0  0  0
  9 14  1  0  0  0  0
  9 24  1  0  0  0  0
 10 24  1  0  0  0  0
 10 11  1  1  0  0  0
 11 12  1  0  0  0  0
 12 19  1  0  0  0  0
 17 25  1  0  0  0  0
 19 25  1  0  0  0  0
 20 26  1  0  0  0  0
 21 26  1  0  0  0  0
 22 25  2  0  0  0  0
 23 26  2  0  0  0  0
 25 20  1  6  0  0  0
 26 18  1  6  0  0  0
M  CHG  2  17  -1  21  -1
M  END
>  <CHROM.1>
176.36879006,169.51152067,167.62426285,112.38666566,175.66666605,-156.69730154
-149.46189513,-124.17359099,-1.60268729,-17.57542041,17.65083111,-2.25266039
-0.29586688,0.43481897

>  <Name>
ligand

>  <RI>
0

>  <Rbt.Current_Directory>
/home/itssahil/PROJECTS/Mol_Feturizer/New_Systems/rnas/3D2X

>  <Rbt.Executable>
rbdock ($Id: //depot/dev/client3/rdock/2013.1/src/exe/rbdock.cxx#4 $)

>  <Rbt.Library>
libRbt.so (2013.1, Build901 2013/11/27)

>  <Rbt.Parameter_File>
/export/apps/rDock/src/rDock_2013.1_src/data/scripts/dock_solv.prm

>  <Rbt.Receptor>
prm/blind_docking_40.prm

>  <SCORE>
-8.27039

>  <SCORE.INTER>
-9.48123

>  <SCORE.INTER.CONST>
1

>  <SCORE.INTER.POLAR>
0

>  <SCORE.INTER.ROT>
8

>  <SCORE.INTER.SOLV>
20.9305

>  <SCORE.INTER.VDW>
-22.231

>  <SCORE.INTER.norm>
-0.364663

>  <SCORE.INTRA>
1.18849

>  <SCORE.INTRA.DIHEDRAL>
1.72483

>  <SCORE.INTRA.DIHEDRAL.0>
7.88077

>  <SCORE.INTRA.POLAR>
0

>  <SCORE.INTRA.POLAR.0>
0

>  <SCORE.INTRA.REPUL>
0

>  <SCORE.INTRA.REPUL.0>
0

>  <SCORE.INTRA.SOLV>
-0.710434

>  <SCORE.INTRA.SOLV.lig_0>
-63.2542

>  <SCORE.INTRA.VDW>
0.681286

>  <SCORE.INTRA.VDW.0>
-3.15072

>  <SCORE.INTRA.norm>
0.045711

>  <SCORE.RESTR>
0.0223618

>  <SCORE.RESTR.CAVITY>
0.0223618

>  <SCORE.RESTR.norm>
0.000860071

>  <SCORE.SYSTEM>
0

>  <SCORE.SYSTEM.CONST>
0

>  <SCORE.SYSTEM.DIHEDRAL>
0

>  <SCORE.SYSTEM.SOLV>
0

>  <SCORE.SYSTEM.norm>
0

>  <SCORE.heavy>
26

>  <SCORE.norm>
-0.318092

>  <RMSD>
9.330

$$$$
ligand
 OpenBabel11021811473D
libRbt.so/2013.1/901 2013/11/27
 26 27  0  0  0  0  0  0  0  0999 V2000
   -1.3366  -12.9333   20.3275 C   0  0  0  0  0  0  0  0  0  0  0  0
   -0.4122  -15.2180   17.9112 C   0  0  0  0  0  0  0  0  0  0  0  0
    0.4075  -15.5625   18.9807 C   0  0  0  0  0  0  0  0  0  0  0  0
    1.0932  -14.5319   19.8810 C   0  0  0  0  0  0  0  0  0  0  0  0
   -0.6505  -13.7476   21.4284 C   0  0  1  0  0  0  0  0  0  0  0  0
   -1.4672  -18.6736   16.6952 C   0  0  0  0  0  0  0  0  0  0  0  0
   -0.7929  -17.5607   17.4989 C   0  0  0  0  0  0  0  0  0  0  0  0
    0.5903  -16.9145   19.2535 C   0  0  0  0  0  0  0  0  0  0  0  0
    0.9459  -15.1586   22.2305 C   0  0  0  0  0  0  0  0  0  0  0  0
   -1.1422  -13.7946   22.7274 C   0  0  2  0  0  0  0  0  0  0  0  0
   -2.3698  -13.1341   23.3600 C   0  0  0  0  0  0  0  0  0  0  0  0
   -3.4151  -14.1473   23.8322 C   0  0  0  0  0  0  0  0  0  0  0  0
   -1.0236  -16.2216   17.1569 N   0  0  0  0  0  0  0  0  0  0  0  0
    0.4494  -14.4710   21.2011 N   0  0  0  0  0  0  0  0  0  0  0  0
    0.0069  -17.8550   18.5341 N   0  0  0  0  0  0  0  0  0  0  0  0
   -0.6037  -14.0349   17.6295 O   0  0  0  0  0  0  0  0  0  0  0  0
   -7.0768  -13.4671   24.7243 O   0  5  0  0  0  0  0  0  0  0  0  0
   -7.8808  -16.7030   25.3554 O   0  0  0  0  0  0  0  0  0  0  0  0
   -4.5188  -13.5078   24.4805 O   0  0  0  0  0  0  0  0  0  0  0  0
   -5.9181  -15.6479   24.0993 O   0  0  0  0  0  0  0  0  0  0  0  0
   -8.2923  -15.5452   23.0789 O   0  5  0  0  0  0  0  0  0  0  0  0
   -5.6263  -14.7002   26.4727 O   0  0  0  0  0  0  0  0  0  0  0  0
   -7.0166  -17.7697   23.1906 O   0  0  0  0  0  0  0  0  0  0  0  0
   -0.0300  -14.7878   23.6272 S   0  0  0  0  0  0  0  0  0  0  0  0
   -5.7704  -14.3524   25.0404 P   0  0  2  0  0  0  0  0  0  0  0  0
   -7.3450  -16.3539   23.8783 P   0  0  2  0  0  0  0  0  0  0  0  0
  2 16  2  0  0  0  0
  2  3  1  0  0  0  0
  2 13  1  0  0  0  0
  3  8  2  0  0  0  0
  3  4  1  0  0  0  0
  4 14  1  0  0  0  0
  5  1  1  6  0  0  0
  5 14  1  0  0  0  0
  5 10  1  0  0  0  0
  6  7  1  0  0  0  0
  7 13  1  0  0  0  0
  7 15  2  0  0  0  0
  8 15  1  0  0  0  0
  9 14  1  0  0  0  0
  9 24  1  0  0  0  0
 10 24  1  0  0  0  0
 10 11  1  1  0  0  0
 11 12  1  0  0  0  0
 12 19  1  0  0  0  0
 17 25  1  0  0  0  0
 19 25  1  0  0  0  0
 20 26  1  0  0  0  0
 21 26  1  0  0  0  0
 22 25  2  0  0  0  0
 23 26  2  0  0  0  0
 25 20  1  6  0  0  0
 26 18  1  1  0  0  0
M  CHG  2  17  -1  21  -1
M  END
>  <CHROM.1>
106.73135895,115.29105753,176.99790599,-82.92887561,178.61202598,-39.77705017
-141.28056497,-55.46770334,-3.06170513,-15.24211667,22.06617447,-0.61406919
0.38323742,1.00208209

>  <Name>
ligand

>  <RI>
0

>  <Rbt.Current_Directory>
/home/itssahil/PROJECTS/Mol_Feturizer/New_Systems/rnas/3D2X

>  <Rbt.Executable>
rbdock ($Id: //depot/dev/client3/rdock/2013.1/src/exe/rbdock.cxx#4 $)

>  <Rbt.Library>
libRbt.so (2013.1, Build901 2013/11/27)

>  <Rbt.Parameter_File>
/export/apps/rDock/src/rDock_2013.1_src/data/scripts/dock_solv.prm

>  <Rbt.Receptor>
prm/pocket_docking_6.prm

>  <SCORE>
-15.7452

>  <SCORE.INTER>
-14.7997

>  <SCORE.INTER.CONST>
1

>  <SCORE.INTER.POLAR>
0

>  <SCORE.INTER.ROT>
8

>  <SCORE.INTER.SOLV>
12.4108

>  <SCORE.INTER.VDW>
-22.9367

>  <SCORE.INTER.norm>
-0.569218

>  <SCORE.INTRA>
-0.955778

>  <SCORE.INTRA.DIHEDRAL>
-0.262106

>  <SCORE.INTRA.DIHEDRAL.0>
7.88077

>  <SCORE.INTRA.POLAR>
0

>  <SCORE.INTRA.POLAR.0>
0

>  <SCORE.INTRA.REPUL>
0

>  <SCORE.INTRA.REPUL.0>
0

>  <SCORE.INTRA.SOLV>
-1.47455

>  <SCORE.INTRA.SOLV.lig_0>
-63.2542

>  <SCORE.INTRA.VDW>
-0.087452

>  <SCORE.INTRA.VDW.0>
-3.15072

>  <SCORE.INTRA.norm>
-0.0367607

>  <SCORE.RESTR>
0.0102607

>  <SCORE.RESTR.CAVITY>
0.0102607

>  <SCORE.RESTR.norm>
0.000394643

>  <SCORE.SYSTEM>
0

>  <SCORE.SYSTEM.CONST>
0

>  <SCORE.SYSTEM.DIHEDRAL>
0

>  <SCORE.SYSTEM.SOLV>
0

>  <SCORE.SYSTEM.norm>
0

>  <SCORE.heavy>
26

>  <SCORE.norm>
-0.605584

>  <RMSD>
9.373

$$$$
ligand
 OpenBabel11021811473D
libRbt.so/2013.1/901 2013/11/27
 26 27  0  0  0  0  0  0  0  0999 V2000
    2.0338  -15.7145   21.4113 C   0  0  0  0  0  0  0  0  0  0  0  0
    0.0964  -11.4320   23.4732 C   0  0  0  0  0  0  0  0  0  0  0  0
    0.1832  -12.3756   22.4550 C   0  0  0  0  0  0  0  0  0  0  0  0
    0.1229  -13.8853   22.7001 C   0  0  0  0  0  0  0  0  0  0  0  0
    0.6310  -15.4387   20.8619 C   0  0  1  0  0  0  0  0  0  0  0  0
    0.2761   -8.2036   21.4538 C   0  0  0  0  0  0  0  0  0  0  0  0
    0.2539   -9.6889   21.8179 C   0  0  0  0  0  0  0  0  0  0  0  0
    0.3083  -11.9155   21.1481 C   0  0  0  0  0  0  0  0  0  0  0  0
   -1.4256  -14.4634   20.9104 C   0  0  0  0  0  0  0  0  0  0  0  0
    0.1566  -16.0502   19.7076 C   0  0  2  0  0  0  0  0  0  0  0  0
    0.8136  -17.0627   18.7661 C   0  0  0  0  0  0  0  0  0  0  0  0
   -0.0213  -17.3414   17.5141 C   0  0  0  0  0  0  0  0  0  0  0  0
    0.1308  -10.0716   23.1602 N   0  0  0  0  0  0  0  0  0  0  0  0
   -0.2223  -14.6080   21.4674 N   0  0  0  0  0  0  0  0  0  0  0  0
    0.3392  -10.6268   20.8636 N   0  0  0  0  0  0  0  0  0  0  0  0
   -0.0140  -11.7900   24.6460 O   0  0  0  0  0  0  0  0  0  0  0  0
   -3.7892  -18.3401   17.3799 O   0  5  0  0  0  0  0  0  0  0  0  0
   -3.1103  -15.9310   13.4962 O   0  0  0  0  0  0  0  0  0  0  0  0
   -1.3013  -17.8911   17.8416 O   0  0  0  0  0  0  0  0  0  0  0  0
   -2.3770  -17.1933   15.5967 O   0  0  0  0  0  0  0  0  0  0  0  0
   -3.3224  -18.5079   13.5801 O   0  5  0  0  0  0  0  0  0  0  0  0
   -1.9732  -19.6795   16.1189 O   0  0  0  0  0  0  0  0  0  0  0  0
   -4.8601  -17.0329   15.0112 O   0  0  0  0  0  0  0  0  0  0  0  0
   -1.4413  -15.4088   19.4452 S   0  0  0  0  0  0  0  0  0  0  0  0
   -2.3315  -18.3643   16.6979 P   0  0  2  0  0  0  0  0  0  0  0  0
   -3.4055  -17.2547   14.3631 P   0  0  2  0  0  0  0  0  0  0  0  0
  2 16  2  0  0  0  0
  2  3  1  0  0  0  0
  2 13  1  0  0  0  0
  3  8  2  0  0  0  0
  3  4  1  0  0  0  0
  4 14  1  0  0  0  0
  5  1  1  1  0  0  0
  5 14  1  0  0  0  0
  5 10  1  0  0  0  0
  6  7  1  0  0  0  0
  7 13  1  0  0  0  0
  7 15  2  0  0  0  0
  8 15  1  0  0  0  0
  9 14  1  0  0  0  0
  9 24  1  0  0  0  0
 10 24  1  0  0  0  0
 10 11  1  6  0  0  0
 11 12  1  0  0  0  0
 12 19  1  0  0  0  0
 17 25  1  0  0  0  0
 19 25  1  0  0  0  0
 20 26  1  0  0  0  0
 21 26  1  0  0  0  0
 22 25  2  0  0  0  0
 23 26  2  0  0  0  0
 25 20  1  6  0  0  0
 26 18  1  6  0  0  0
M  CHG  2  17  -1  21  -1
M  END
>  <CHROM.1>
160.53001472,-173.06948264,-60.97755620,114.18400275,-175.86520274,-62.34596057
-157.59927705,-178.87061720,-1.19541406,-15.24781425,18.84441808,-0.91308901
1.02466650,-2.88525813

>  <Name>
ligand

>  <RI>
0

>  <Rbt.Current_Directory>
/home/itssahil/PROJECTS/Mol_Feturizer/New_Systems/rnas/3D2X

>  <Rbt.Executable>
rbdock ($Id: //depot/dev/client3/rdock/2013.1/src/exe/rbdock.cxx#4 $)

>  <Rbt.Library>
libRbt.so (2013.1, Build901 2013/11/27)

>  <Rbt.Parameter_File>
/export/apps/rDock/src/rDock_2013.1_src/data/scripts/dock_solv.prm

>  <Rbt.Receptor>
prm/blind_docking_40.prm

>  <SCORE>
-16.177

>  <SCORE.INTER>
-15.3358

>  <SCORE.INTER.CONST>
1

>  <SCORE.INTER.POLAR>
0

>  <SCORE.INTER.ROT>
8

>  <SCORE.INTER.SOLV>
15.5576

>  <SCORE.INTER.VDW>
-24.3431

>  <SCORE.INTER.norm>
-0.58984

>  <SCORE.INTRA>
-0.843031

>  <SCORE.INTRA.DIHEDRAL>
-2.54714

>  <SCORE.INTRA.DIHEDRAL.0>
7.88077

>  <SCORE.INTRA.POLAR>
0

>  <SCORE.INTRA.POLAR.0>
0

>  <SCORE.INTRA.REPUL>
0

>  <SCORE.INTRA.REPUL.0>
0

>  <SCORE.INTRA.SOLV>
0.156092

>  <SCORE.INTRA.SOLV.lig_0>
-63.2542

>  <SCORE.INTRA.VDW>
0.352495

>  <SCORE.INTRA.VDW.0>
-3.15072

>  <SCORE.INTRA.norm>
-0.0324243

>  <SCORE.RESTR>
0.00183281

>  <SCORE.RESTR.CAVITY>
0.00183281

>  <SCORE.RESTR.norm>
7.04928e-05

>  <SCORE.SYSTEM>
0

>  <SCORE.SYSTEM.CONST>
0

>  <SCORE.SYSTEM.DIHEDRAL>
0

>  <SCORE.SYSTEM.SOLV>
0

>  <SCORE.SYSTEM.norm>
0

>  <SCORE.heavy>
26

>  <SCORE.norm>
-0.622194

>  <RMSD>
9.457

$$$$
ligand
 OpenBabel11021811473D
libRbt.so/2013.1/901 2013/11/27
 26 27  0  0  0  0  0  0  0  0999 V2000
   -4.5917  -19.7675   16.5516 C   0  0  0  0  0  0  0  0  0  0  0  0
   -0.4059  -16.9870   17.6382 C   0  0  0  0  0  0  0  0  0  0  0  0
   -1.0117  -18.0742   17.0171 C   0  0  0  0  0  0  0  0  0  0  0  0
   -2.2954  -17.9630   16.1911 C   0  0  0  0  0  0  0  0  0  0  0  0
   -4.4933  -18.3883   17.2103 C   0  0  1  0  0  0  0  0  0  0  0  0
    2.6452  -18.6723   19.1820 C   0  0  0  0  0  0  0  0  0  0  0  0
    1.3361  -18.4550   18.4215 C   0  0  0  0  0  0  0  0  0  0  0  0
   -0.4013  -19.3184   17.1388 C   0  0  0  0  0  0  0  0  0  0  0  0
   -3.4516  -16.4190   17.6791 C   0  0  0  0  0  0  0  0  0  0  0  0
   -5.4912  -17.8942   18.0418 C   0  0  2  0  0  0  0  0  0  0  0  0
   -6.8162  -18.5121   18.4957 C   0  0  0  0  0  0  0  0  0  0  0  0
   -7.6220  -17.5883   19.4119 C   0  0  0  0  0  0  0  0  0  0  0  0
    0.7815  -17.1702   18.3498 N   0  0  0  0  0  0  0  0  0  0  0  0
   -3.4379  -17.5878   17.0368 N   0  0  0  0  0  0  0  0  0  0  0  0
    0.7217  -19.4800   17.8136 N   0  0  0  0  0  0  0  0  0  0  0  0
   -0.9087  -15.8659   17.5603 O   0  0  0  0  0  0  0  0  0  0  0  0
   -9.1343  -16.5755   21.7999 O   0  5  0  0  0  0  0  0  0  0  0  0
   -7.8358  -14.7200   24.3671 O   0  0  0  0  0  0  0  0  0  0  0  0
   -6.9752  -17.3971   20.6740 O   0  0  0  0  0  0  0  0  0  0  0  0
   -7.0229  -16.8458   23.1993 O   0  0  0  0  0  0  0  0  0  0  0  0
   -8.9856  -16.9804   24.8781 O   0  5  0  0  0  0  0  0  0  0  0  0
   -7.1498  -14.9542   21.4608 O   0  0  0  0  0  0  0  0  0  0  0  0
   -6.5966  -16.5257   25.6994 O   0  0  0  0  0  0  0  0  0  0  0  0
   -4.9779  -16.2982   18.5138 S   0  0  0  0  0  0  0  0  0  0  0  0
   -7.5410  -16.3510   21.7597 P   0  0  2  0  0  0  0  0  0  0  0  0
   -7.7048  -16.3133   24.5539 P   0  0  2  0  0  0  0  0  0  0  0  0
  2 16  2  0  0  0  0
  2  3  1  0  0  0  0
  2 13  1  0  0  0  0
  3  8  2  0  0  0  0
  3  4  1  0  0  0  0
  4 14  1  0  0  0  0
  5  1  1  1  0  0  0
  5 14  1  0  0  0  0
  5 10  1  0  0  0  0
  6  7  1  0  0  0  0
  7 13  1  0  0  0  0
  7 15  2  0  0  0  0
  8 15  1  0  0  0  0
  9 14  1  0  0  0  0
  9 24  1  0  0  0  0
 10 24  1  0  0  0  0
 10 11  1  6  0  0  0
 11 12  1  0  0  0  0
 12 19  1  0  0  0  0
 17 25  1  0  0  0  0
 19 25  1  0  0  0  0
 20 26  1  0  0  0  0
 21 26  1  0  0  0  0
 22 25  2  0  0  0  0
 23 26  2  0  0  0  0
 25 20  1  1  0  0  0
 26 18  1  6  0  0  0
M  CHG  2  17  -1  21  -1
M  END
>  <CHROM.1>
-66.11631416,-179.25561088,-67.45089944,-116.87873244,173.68658583,-50.62597034
44.26128706,-46.25124856,-4.67291783,-17.17024508,20.04173229,0.69292302
0.06213568,-1.79043117

>  <Name>
ligand

>  <RI>
0

>  <Rbt.Current_Directory>
/home/itssahil/PROJECTS/Mol_Feturizer/New_Systems/rnas/3D2X

>  <Rbt.Executable>
rbdock ($Id: //depot/dev/client3/rdock/2013.1/src/exe/rbdock.cxx#4 $)

>  <Rbt.Library>
libRbt.so (2013.1, Build901 2013/11/27)

>  <Rbt.Parameter_File>
/export/apps/rDock/src/rDock_2013.1_src/data/scripts/dock_solv.prm

>  <Rbt.Receptor>
prm/blind_docking_80.prm

>  <SCORE>
-14.414

>  <SCORE.INTER>
-13.8806

>  <SCORE.INTER.CONST>
1

>  <SCORE.INTER.POLAR>
0

>  <SCORE.INTER.ROT>
8

>  <SCORE.INTER.SOLV>
17.5272

>  <SCORE.INTER.VDW>
-24.0295

>  <SCORE.INTER.norm>
-0.53387

>  <SCORE.INTRA>
-0.662274

>  <SCORE.INTRA.DIHEDRAL>
-1.47298

>  <SCORE.INTRA.DIHEDRAL.0>
7.88077

>  <SCORE.INTRA.POLAR>
0

>  <SCORE.INTRA.POLAR.0>
0

>  <SCORE.INTRA.REPUL>
0

>  <SCORE.INTRA.REPUL.0>
0

>  <SCORE.INTRA.SOLV>
-1.15574

>  <SCORE.INTRA.SOLV.lig_0>
-63.2542

>  <SCORE.INTRA.VDW>
0.652083

>  <SCORE.INTRA.VDW.0>
-3.15072

>  <SCORE.INTRA.norm>
-0.0254721

>  <SCORE.RESTR>
0.1289

>  <SCORE.RESTR.CAVITY>
0.1289

>  <SCORE.RESTR.norm>
0.00495771

>  <SCORE.SYSTEM>
0

>  <SCORE.SYSTEM.CONST>
0

>  <SCORE.SYSTEM.DIHEDRAL>
0

>  <SCORE.SYSTEM.SOLV>
0

>  <SCORE.SYSTEM.norm>
0

>  <SCORE.heavy>
26

>  <SCORE.norm>
-0.554385

>  <RMSD>
9.721

$$$$
ligand
 OpenBabel11021811473D
libRbt.so/2013.1/901 2013/11/27
 26 27  0  0  0  0  0  0  0  0999 V2000
   -6.0570  -19.3266   17.3735 C   0  0  0  0  0  0  0  0  0  0  0  0
   -4.0318  -22.4062   16.2403 C   0  0  0  0  0  0  0  0  0  0  0  0
   -3.3071  -21.2606   15.9286 C   0  0  0  0  0  0  0  0  0  0  0  0
   -3.9526  -19.9695   15.4197 C   0  0  0  0  0  0  0  0  0  0  0  0
   -4.7318  -18.5642   17.2820 C   0  0  1  0  0  0  0  0  0  0  0  0
   -1.2336  -24.7018   17.4372 C   0  0  0  0  0  0  0  0  0  0  0  0
   -1.9767  -23.4825   16.8893 C   0  0  0  0  0  0  0  0  0  0  0  0
   -1.9285  -21.2906   16.1130 C   0  0  0  0  0  0  0  0  0  0  0  0
   -2.6646  -18.1590   16.4187 C   0  0  0  0  0  0  0  0  0  0  0  0
   -4.4262  -17.5097   18.1341 C   0  0  2  0  0  0  0  0  0  0  0  0
   -5.2237  -16.8830   19.2807 C   0  0  0  0  0  0  0  0  0  0  0  0
   -6.7292  -16.8438   19.0082 C   0  0  0  0  0  0  0  0  0  0  0  0
   -3.3675  -23.5338   16.7270 N   0  0  0  0  0  0  0  0  0  0  0  0
   -3.7879  -18.8775   16.3900 N   0  0  0  0  0  0  0  0  0  0  0  0
   -1.3108  -22.3621   16.5743 N   0  0  0  0  0  0  0  0  0  0  0  0
   -5.2539  -22.4290   16.0927 O   0  0  0  0  0  0  0  0  0  0  0  0
   -6.5739  -14.8919   22.0892 O   0  5  0  0  0  0  0  0  0  0  0  0
   -8.2790  -16.8744   24.3869 O   0  0  0  0  0  0  0  0  0  0  0  0
   -7.4078  -15.9593   19.9052 O   0  0  0  0  0  0  0  0  0  0  0  0
   -8.8566  -16.0217   22.0454 O   0  0  0  0  0  0  0  0  0  0  0  0
  -10.7577  -16.5810   23.7072 O   0  5  0  0  0  0  0  0  0  0  0  0
   -6.7328  -17.4634   21.8799 O   0  0  0  0  0  0  0  0  0  0  0  0
   -9.3413  -18.4529   22.6690 O   0  0  0  0  0  0  0  0  0  0  0  0
   -2.8619  -16.9273   17.6372 S   0  0  0  0  0  0  0  0  0  0  0  0
   -7.3513  -16.1723   21.5004 P   0  0  2  0  0  0  0  0  0  0  0  0
   -9.4036  -16.9503   23.2379 P   0  0  2  0  0  0  0  0  0  0  0  0
  2 16  2  0  0  0  0
  2  3  1  0  0  0  0
  2 13  1  0  0  0  0
  3  8  2  0  0  0  0
  3  4  1  0  0  0  0
  4 14  1  0  0  0  0
  5  1  1  1  0  0  0
  5 14  1  0  0  0  0
  5 10  1  0  0  0  0
  6  7  1  0  0  0  0
  7 13  1  0  0  0  0
  7 15  2  0  0  0  0
  8 15  1  0  0  0  0
  9 14  1  0  0  0  0
  9 24  1  0  0  0  0
 10 24  1  0  0  0  0
 10 11  1  6  0  0  0
 11 12  1  0  0  0  0
 12 19  1  0  0  0  0
 17 25  1  0  0  0  0
 19 25  1  0  0  0  0
 20 26  1  0  0  0  0
 21 26  1  0  0  0  0
 22 25  2  0  0  0  0
 23 26  2  0  0  0  0
 25 20  1  1  0  0  0
 26 18  1  1  0  0  0
M  CHG  2  17  -1  21  -1
M  END
>  <CHROM.1>
114.59763282,-36.20744909,-164.74979612,-95.90266595,-58.98261967,-105.52121972
115.17509913,48.79386746,-5.59259230,-18.61597135,19.25897722,0.57137995
-0.80192874,-3.11046134

>  <Name>
ligand

>  <RI>
0

>  <Rbt.Current_Directory>
/home/itssahil/PROJECTS/Mol_Feturizer/New_Systems/rnas/3D2X

>  <Rbt.Executable>
rbdock ($Id: //depot/dev/client3/rdock/2013.1/src/exe/rbdock.cxx#4 $)

>  <Rbt.Library>
libRbt.so (2013.1, Build901 2013/11/27)

>  <Rbt.Parameter_File>
/export/apps/rDock/src/rDock_2013.1_src/data/scripts/dock_solv.prm

>  <Rbt.Receptor>
prm/blind_docking_60.prm

>  <SCORE>
-9.89241

>  <SCORE.INTER>
-12.2312

>  <SCORE.INTER.CONST>
1

>  <SCORE.INTER.POLAR>
0

>  <SCORE.INTER.ROT>
8

>  <SCORE.INTER.SOLV>
19.8842

>  <SCORE.INTER.VDW>
-23.7155

>  <SCORE.INTER.norm>
-0.470429

>  <SCORE.INTRA>
2.33346

>  <SCORE.INTRA.DIHEDRAL>
1.95968

>  <SCORE.INTRA.DIHEDRAL.0>
7.88077

>  <SCORE.INTRA.POLAR>
0

>  <SCORE.INTRA.POLAR.0>
0

>  <SCORE.INTRA.REPUL>
0

>  <SCORE.INTRA.REPUL.0>
0

>  <SCORE.INTRA.SOLV>
0.0489649

>  <SCORE.INTRA.SOLV.lig_0>
-63.2542

>  <SCORE.INTRA.VDW>
1.32914

>  <SCORE.INTRA.VDW.0>
-3.15072

>  <SCORE.INTRA.norm>
0.0897484

>  <SCORE.RESTR>
0.00528567

>  <SCORE.RESTR.CAVITY>
0.00528567

>  <SCORE.RESTR.norm>
0.000203295

>  <SCORE.SYSTEM>
0

>  <SCORE.SYSTEM.CONST>
0

>  <SCORE.SYSTEM.DIHEDRAL>
0

>  <SCORE.SYSTEM.SOLV>
0

>  <SCORE.SYSTEM.norm>
0

>  <SCORE.heavy>
26

>  <SCORE.norm>
-0.380477

>  <RMSD>
9.734

$$$$
ligand
 OpenBabel11021811473D
libRbt.so/2013.1/901 2013/11/27
 26 27  0  0  0  0  0  0  0  0999 V2000
   -2.0430  -16.7647   16.8046 C   0  0  0  0  0  0  0  0  0  0  0  0
   -5.5252  -19.2343   17.1632 C   0  0  0  0  0  0  0  0  0  0  0  0
   -4.9249  -18.1663   16.5045 C   0  0  0  0  0  0  0  0  0  0  0  0
   -4.0147  -18.3344   15.2856 C   0  0  0  0  0  0  0  0  0  0  0  0
   -1.8029  -18.2088   16.3545 C   0  0  1  0  0  0  0  0  0  0  0  0
   -7.5164  -17.3806   19.8338 C   0  0  0  0  0  0  0  0  0  0  0  0
   -6.5849  -17.6676   18.6552 C   0  0  0  0  0  0  0  0  0  0  0  0
   -5.1884  -16.8818   16.9694 C   0  0  0  0  0  0  0  0  0  0  0  0
   -2.4052  -20.1621   15.3520 C   0  0  0  0  0  0  0  0  0  0  0  0
   -0.6255  -18.8871   16.6462 C   0  0  2  0  0  0  0  0  0  0  0  0
    0.6215  -18.4466   17.4172 C   0  0  0  0  0  0  0  0  0  0  0  0
    1.2648  -19.5859   18.2112 C   0  0  0  0  0  0  0  0  0  0  0  0
   -6.3663  -18.9914   18.2511 N   0  0  0  0  0  0  0  0  0  0  0  0
   -2.7153  -18.9045   15.6702 N   0  0  0  0  0  0  0  0  0  0  0  0
   -5.9858  -16.6638   17.9986 N   0  0  0  0  0  0  0  0  0  0  0  0
   -5.3217  -20.3897   16.7900 O   0  0  0  0  0  0  0  0  0  0  0  0
    2.1814  -17.6365   20.0322 O   0  5  0  0  0  0  0  0  0  0  0  0
    4.8811  -17.3521   21.8755 O   0  0  0  0  0  0  0  0  0  0  0  0
    2.6873  -19.4472   18.2801 O   0  0  0  0  0  0  0  0  0  0  0  0
    4.0359  -19.3239   20.4823 O   0  0  0  0  0  0  0  0  0  0  0  0
    5.7515  -19.7369   22.3730 O   0  5  0  0  0  0  0  0  0  0  0  0
    4.3700  -17.5390   18.6604 O   0  0  0  0  0  0  0  0  0  0  0  0
    6.4498  -18.5242   20.2213 O   0  0  0  0  0  0  0  0  0  0  0  0
   -0.7782  -20.4563   15.9062 S   0  0  0  0  0  0  0  0  0  0  0  0
    3.3845  -18.4296   19.3153 P   0  0  2  0  0  0  0  0  0  0  0  0
    5.3060  -18.8006   21.3169 P   0  0  2  0  0  0  0  0  0  0  0  0
  2 16  2  0  0  0  0
  2  3  1  0  0  0  0
  2 13  1  0  0  0  0
  3  8  2  0  0  0  0
  3  4  1  0  0  0  0
  4 14  1  0  0  0  0
  5  1  1  1  0  0  0
  5 14  1  0  0  0  0
  5 10  1  0  0  0  0
  6  7  1  0  0  0  0
  7 13  1  0  0  0  0
  7 15  2  0  0  0  0
  8 15  1  0  0  0  0
  9 14  1  0  0  0  0
  9 24  1  0  0  0  0
 10 24  1  0  0  0  0
 10 11  1  6  0  0  0
 11 12  1  0  0  0  0
 12 19  1  0  0  0  0
 17 25  1  0  0  0  0
 19 25  1  0  0  0  0
 20 26  1  0  0  0  0
 21 26  1  0  0  0  0
 22 25  2  0  0  0  0
 23 26  2  0  0  0  0
 25 20  1  1  0  0  0
 26 18  1  1  0  0  0
M  CHG  2  17  -1  21  -1
M  END
>  <CHROM.1>
-72.22995264,145.46385597,147.01845182,-71.35947453,79.18485619,-94.71444158
-4.71377441,53.44111120,-0.15423801,-18.62753562,18.35361703,-2.84978293
-0.15539941,1.16398640

>  <Name>
ligand

>  <RI>
0

>  <Rbt.Current_Directory>
/home/itssahil/PROJECTS/Mol_Feturizer/New_Systems/rnas/3D2X

>  <Rbt.Executable>
rbdock ($Id: //depot/dev/client3/rdock/2013.1/src/exe/rbdock.cxx#4 $)

>  <Rbt.Library>
libRbt.so (2013.1, Build901 2013/11/27)

>  <Rbt.Parameter_File>
/export/apps/rDock/src/rDock_2013.1_src/data/scripts/dock_solv.prm

>  <Rbt.Receptor>
prm/blind_docking_40.prm

>  <SCORE>
-16.6384

>  <SCORE.INTER>
-19.8758

>  <SCORE.INTER.CONST>
1

>  <SCORE.INTER.POLAR>
0

>  <SCORE.INTER.ROT>
8

>  <SCORE.INTER.SOLV>
21.5921

>  <SCORE.INTER.VDW>
-29.3813

>  <SCORE.INTER.norm>
-0.764455

>  <SCORE.INTRA>
3.22649

>  <SCORE.INTRA.DIHEDRAL>
5.39046

>  <SCORE.INTRA.DIHEDRAL.0>
7.88077

>  <SCORE.INTRA.POLAR>
0

>  <SCORE.INTRA.POLAR.0>
0

>  <SCORE.INTRA.REPUL>
0

>  <SCORE.INTRA.REPUL.0>
0

>  <SCORE.INTRA.SOLV>
0.0483439

>  <SCORE.INTRA.SOLV.lig_0>
-63.2542

>  <SCORE.INTRA.VDW>
0.507085

>  <SCORE.INTRA.VDW.0>
-3.15072

>  <SCORE.INTRA.norm>
0.124096

>  <SCORE.RESTR>
0.010933

>  <SCORE.RESTR.CAVITY>
0.010933

>  <SCORE.RESTR.norm>
0.0004205

>  <SCORE.SYSTEM>
0

>  <SCORE.SYSTEM.CONST>
0

>  <SCORE.SYSTEM.DIHEDRAL>
0

>  <SCORE.SYSTEM.SOLV>
0

>  <SCORE.SYSTEM.norm>
0

>  <SCORE.heavy>
26

>  <SCORE.norm>
-0.639939

>  <RMSD>
9.735

$$$$
ligand
 OpenBabel11021811473D
libRbt.so/2013.1/901 2013/11/27
 26 27  0  0  0  0  0  0  0  0999 V2000
    1.0491  -18.2419   18.4211 C   0  0  0  0  0  0  0  0  0  0  0  0
    0.3916  -13.3548   20.5960 C   0  0  0  0  0  0  0  0  0  0  0  0
    0.6916  -14.6515   20.9999 C   0  0  0  0  0  0  0  0  0  0  0  0
    1.0519  -15.7743   20.0240 C   0  0  0  0  0  0  0  0  0  0  0  0
   -0.1262  -17.2605   18.4577 C   0  0  1  0  0  0  0  0  0  0  0  0
   -0.1793  -11.6829   23.9741 C   0  0  0  0  0  0  0  0  0  0  0  0
    0.1191  -12.7391   22.9090 C   0  0  0  0  0  0  0  0  0  0  0  0
    0.6838  -14.9284   22.3633 C   0  0  0  0  0  0  0  0  0  0  0  0
   -1.1952  -15.3807   19.1692 C   0  0  0  0  0  0  0  0  0  0  0  0
   -1.2926  -17.4780   17.7341 C   0  0  2  0  0  0  0  0  0  0  0  0
   -1.6992  -18.6271   16.8080 C   0  0  0  0  0  0  0  0  0  0  0  0
   -3.1115  -18.4646   16.2412 C   0  0  0  0  0  0  0  0  0  0  0  0
    0.1015  -12.3815   21.5543 N   0  0  0  0  0  0  0  0  0  0  0  0
   -0.1049  -16.1484   19.1976 N   0  0  0  0  0  0  0  0  0  0  0  0
    0.4086  -14.0002   23.2606 N   0  0  0  0  0  0  0  0  0  0  0  0
    0.3844  -13.0611   19.4004 O   0  0  0  0  0  0  0  0  0  0  0  0
   -5.4680  -16.4989   16.0534 O   0  5  0  0  0  0  0  0  0  0  0  0
   -5.0195  -21.0035   16.8842 O   0  0  0  0  0  0  0  0  0  0  0  0
   -4.0814  -18.2831   17.2775 O   0  0  0  0  0  0  0  0  0  0  0  0
   -6.2017  -18.9361   15.9504 O   0  0  0  0  0  0  0  0  0  0  0  0
   -7.4915  -20.5549   17.5011 O   0  5  0  0  0  0  0  0  0  0  0  0
   -6.4101  -17.6492   18.1678 O   0  0  0  0  0  0  0  0  0  0  0  0
   -6.8577  -21.2618   15.1163 O   0  0  0  0  0  0  0  0  0  0  0  0
   -2.3127  -16.1000   18.0403 S   0  0  0  0  0  0  0  0  0  0  0  0
   -5.5915  -17.8317   16.9472 P   0  0  2  0  0  0  0  0  0  0  0  0
   -6.4627  -20.4437   16.4430 P   0  0  2  0  0  0  0  0  0  0  0  0
  2 16  2  0  0  0  0
  2  3  1  0  0  0  0
  2 13  1  0  0  0  0
  3  8  2  0  0  0  0
  3  4  1  0  0  0  0
  4 14  1  0  0  0  0
  5  1  1  1  0  0  0
  5 14  1  0  0  0  0
  5 10  1  0  0  0  0
  6  7  1  0  0  0  0
  7 13  1  0  0  0  0
  7 15  2  0  0  0  0
  8 15  1  0  0  0  0
  9 14  1  0  0  0  0
  9 24  1  0  0  0  0
 10 24  1  0  0  0  0
 10 11  1  6  0  0  0
 11 12  1  0  0  0  0
 12 19  1  0  0  0  0
 17 25  1  0  0  0  0
 19 25  1  0  0  0  0
 20 26  1  0  0  0  0
 21 26  1  0  0  0  0
 22 25  2  0  0  0  0
 23 26  2  0  0  0  0
 25 20  1  6  0  0  0
 26 18  1  1  0  0  0
M  CHG  2  17  -1  21  -1
M  END
>  <CHROM.1>
-67.88760674,178.67147170,-54.42566052,-166.87644876,169.02036335,178.83252674
-53.08974424,-60.41870692,-2.73298514,-16.93143271,18.51491948,-0.88027587
0.02134783,-2.45108148

>  <Name>
ligand

>  <RI>
0

>  <Rbt.Current_Directory>
/home/itssahil/PROJECTS/Mol_Feturizer/New_Systems/rnas/3D2X

>  <Rbt.Executable>
rbdock ($Id: //depot/dev/client3/rdock/2013.1/src/exe/rbdock.cxx#4 $)

>  <Rbt.Library>
libRbt.so (2013.1, Build901 2013/11/27)

>  <Rbt.Parameter_File>
/export/apps/rDock/src/rDock_2013.1_src/data/scripts/dock_solv.prm

>  <Rbt.Receptor>
prm/blind_docking_100.prm

>  <SCORE>
-21.0114

>  <SCORE.INTER>
-19.2134

>  <SCORE.INTER.CONST>
1

>  <SCORE.INTER.POLAR>
0

>  <SCORE.INTER.ROT>
8

>  <SCORE.INTER.SOLV>
19.2153

>  <SCORE.INTER.VDW>
-28.1474

>  <SCORE.INTER.norm>
-0.738977

>  <SCORE.INTRA>
-1.79796

>  <SCORE.INTRA.DIHEDRAL>
-2.49226

>  <SCORE.INTRA.DIHEDRAL.0>
7.88077

>  <SCORE.INTRA.POLAR>
0

>  <SCORE.INTRA.POLAR.0>
0

>  <SCORE.INTRA.REPUL>
0

>  <SCORE.INTRA.REPUL.0>
0

>  <SCORE.INTRA.SOLV>
-2.2654

>  <SCORE.INTRA.SOLV.lig_0>
-63.2542

>  <SCORE.INTRA.VDW>
0.580873

>  <SCORE.INTRA.VDW.0>
-3.15072

>  <SCORE.INTRA.norm>
-0.0691521

>  <SCORE.RESTR>
0

>  <SCORE.RESTR.CAVITY>
0

>  <SCORE.RESTR.norm>
0

>  <SCORE.SYSTEM>
0

>  <SCORE.SYSTEM.CONST>
0

>  <SCORE.SYSTEM.DIHEDRAL>
0

>  <SCORE.SYSTEM.SOLV>
0

>  <SCORE.SYSTEM.norm>
0

>  <SCORE.heavy>
26

>  <SCORE.norm>
-0.808129

>  <RMSD>
9.764

$$$$
ligand
 OpenBabel11021811473D
libRbt.so/2013.1/901 2013/11/27
 26 27  0  0  0  0  0  0  0  0999 V2000
   -1.5716  -16.5118   17.8213 C   0  0  0  0  0  0  0  0  0  0  0  0
   -5.0367  -18.8927   17.2805 C   0  0  0  0  0  0  0  0  0  0  0  0
   -4.3633  -17.7656   16.8212 C   0  0  0  0  0  0  0  0  0  0  0  0
   -3.2407  -17.8217   15.7823 C   0  0  0  0  0  0  0  0  0  0  0  0
   -1.2698  -17.9011   17.2518 C   0  0  1  0  0  0  0  0  0  0  0  0
   -7.5441  -17.2889   19.6625 C   0  0  0  0  0  0  0  0  0  0  0  0
   -6.4039  -17.4662   18.6586 C   0  0  0  0  0  0  0  0  0  0  0  0
   -4.7512  -16.5259   17.3193 C   0  0  0  0  0  0  0  0  0  0  0  0
   -1.6972  -19.7011   15.9250 C   0  0  0  0  0  0  0  0  0  0  0  0
   -0.1779  -18.6506   17.6731 C   0  0  2  0  0  0  0  0  0  0  0  0
    0.9063  -18.3481   18.7106 C   0  0  0  0  0  0  0  0  0  0  0  0
    2.1729  -19.1834   18.5100 C   0  0  0  0  0  0  0  0  0  0  0  0
   -6.0699  -18.7506   18.2090 N   0  0  0  0  0  0  0  0  0  0  0  0
   -2.0453  -18.4789   16.3301 N   0  0  0  0  0  0  0  0  0  0  0  0
   -5.7299  -16.4032   18.1966 N   0  0  0  0  0  0  0  0  0  0  0  0
   -4.7289  -20.0120   16.8703 O   0  0  0  0  0  0  0  0  0  0  0  0
    2.6433  -16.7167   20.5871 O   0  5  0  0  0  0  0  0  0  0  0  0
    6.6038  -19.1963   22.4854 O   0  0  0  0  0  0  0  0  0  0  0  0
    3.0725  -19.0569   19.6156 O   0  0  0  0  0  0  0  0  0  0  0  0
    4.7986  -17.9377   21.1813 O   0  0  0  0  0  0  0  0  0  0  0  0
    5.8122  -20.1033   20.1957 O   0  5  0  0  0  0  0  0  0  0  0  0
    4.4659  -17.0599   18.7865 O   0  0  0  0  0  0  0  0  0  0  0  0
    7.2077  -17.9530   20.3266 O   0  0  0  0  0  0  0  0  0  0  0  0
   -0.2085  -20.1161   16.7326 S   0  0  0  0  0  0  0  0  0  0  0  0
    3.7897  -17.6571   19.9610 P   0  0  2  0  0  0  0  0  0  0  0  0
    6.0821  -18.8870   20.9945 P   0  0  2  0  0  0  0  0  0  0  0  0
  2 16  2  0  0  0  0
  2  3  1  0  0  0  0
  2 13  1  0  0  0  0
  3  8  2  0  0  0  0
  3  4  1  0  0  0  0
  4 14  1  0  0  0  0
  5  1  1  1  0  0  0
  5 14  1  0  0  0  0
  5 10  1  0  0  0  0
  6  7  1  0  0  0  0
  7 13  1  0  0  0  0
  7 15  2  0  0  0  0
  8 15  1  0  0  0  0
  9 14  1  0  0  0  0
  9 24  1  0  0  0  0
 10 24  1  0  0  0  0
 10 11  1  6  0  0  0
 11 12  1  0  0  0  0
 12 19  1  0  0  0  0
 17 25  1  0  0  0  0
 19 25  1  0  0  0  0
 20 26  1  0  0  0  0
 21 26  1  0  0  0  0
 22 25  2  0  0  0  0
 23 26  2  0  0  0  0
 25 20  1  1  0  0  0
 26 18  1  1  0  0  0
M  CHG  2  17  -1  21  -1
M  END
>  <CHROM.1>
-68.20489066,-159.01793479,-169.83263419,-71.40516820,-65.55686158,178.13975635
73.07140301,-166.50567891,0.37877113,-18.33524469,18.71229579,2.93484308
0.20625761,-2.19382079

>  <Name>
ligand

>  <RI>
0

>  <Rbt.Current_Directory>
/home/itssahil/PROJECTS/Mol_Feturizer/New_Systems/rnas/3D2X

>  <Rbt.Executable>
rbdock ($Id: //depot/dev/client3/rdock/2013.1/src/exe/rbdock.cxx#4 $)

>  <Rbt.Library>
libRbt.so (2013.1, Build901 2013/11/27)

>  <Rbt.Parameter_File>
/export/apps/rDock/src/rDock_2013.1_src/data/scripts/dock_solv.prm

>  <Rbt.Receptor>
prm/blind_docking_100.prm

>  <SCORE>
-19.882

>  <SCORE.INTER>
-19.5463

>  <SCORE.INTER.CONST>
1

>  <SCORE.INTER.POLAR>
0

>  <SCORE.INTER.ROT>
8

>  <SCORE.INTER.SOLV>
21.0195

>  <SCORE.INTER.VDW>
-28.9707

>  <SCORE.INTER.norm>
-0.751782

>  <SCORE.INTRA>
-0.335658

>  <SCORE.INTRA.DIHEDRAL>
-1.88882

>  <SCORE.INTRA.DIHEDRAL.0>
7.88077

>  <SCORE.INTRA.POLAR>
0

>  <SCORE.INTRA.POLAR.0>
0

>  <SCORE.INTRA.REPUL>
0

>  <SCORE.INTRA.REPUL.0>
0

>  <SCORE.INTRA.SOLV>
0.765359

>  <SCORE.INTRA.SOLV.lig_0>
-63.2542

>  <SCORE.INTRA.VDW>
0.22607

>  <SCORE.INTRA.VDW.0>
-3.15072

>  <SCORE.INTRA.norm>
-0.0129099

>  <SCORE.RESTR>
0

>  <SCORE.RESTR.CAVITY>
0

>  <SCORE.RESTR.norm>
0

>  <SCORE.SYSTEM>
0

>  <SCORE.SYSTEM.CONST>
0

>  <SCORE.SYSTEM.DIHEDRAL>
0

>  <SCORE.SYSTEM.SOLV>
0

>  <SCORE.SYSTEM.norm>
0

>  <SCORE.heavy>
26

>  <SCORE.norm>
-0.764692

>  <RMSD>
9.827

$$$$
ligand
 OpenBabel11021811473D
libRbt.so/2013.1/901 2013/11/27
 26 27  0  0  0  0  0  0  0  0999 V2000
   -5.5348  -19.1154   16.2102 C   0  0  0  0  0  0  0  0  0  0  0  0
   -2.0764  -21.9404   16.2994 C   0  0  0  0  0  0  0  0  0  0  0  0
   -1.7937  -20.5790   16.2615 C   0  0  0  0  0  0  0  0  0  0  0  0
   -2.6953  -19.5516   15.5729 C   0  0  0  0  0  0  0  0  0  0  0  0
   -4.3992  -18.2829   16.8127 C   0  0  1  0  0  0  0  0  0  0  0  0
    0.8684  -23.2107   18.3603 C   0  0  0  0  0  0  0  0  0  0  0  0
   -0.0780  -22.2794   17.6012 C   0  0  0  0  0  0  0  0  0  0  0  0
   -0.6428  -20.1336   16.9039 C   0  0  0  0  0  0  0  0  0  0  0  0
   -2.2117  -17.7301   17.1166 C   0  0  0  0  0  0  0  0  0  0  0  0
   -4.6365  -17.2581   17.7210 C   0  0  2  0  0  0  0  0  0  0  0  0
   -5.9430  -16.7310   18.3200 C   0  0  0  0  0  0  0  0  0  0  0  0
   -6.7807  -17.8278   18.9814 C   0  0  0  0  0  0  0  0  0  0  0  0
   -1.2148  -22.8072   16.9748 N   0  0  0  0  0  0  0  0  0  0  0  0
   -3.1160  -18.5026   16.5129 N   0  0  0  0  0  0  0  0  0  0  0  0
    0.1644  -20.9621   17.5400 N   0  0  0  0  0  0  0  0  0  0  0  0
   -3.0824  -22.3829   15.7445 O   0  0  0  0  0  0  0  0  0  0  0  0
   -9.9016  -16.1501   20.6864 O   0  5  0  0  0  0  0  0  0  0  0  0
   -9.5832  -15.9963   23.3852 O   0  0  0  0  0  0  0  0  0  0  0  0
   -8.0890  -17.3612   19.3255 O   0  0  0  0  0  0  0  0  0  0  0  0
   -7.7333  -16.8388   21.8323 O   0  0  0  0  0  0  0  0  0  0  0  0
   -7.3166  -16.7441   24.3830 O   0  5  0  0  0  0  0  0  0  0  0  0
   -7.6949  -14.9394   20.0981 O   0  0  0  0  0  0  0  0  0  0  0  0
   -7.4782  -14.5831   23.0075 O   0  0  0  0  0  0  0  0  0  0  0  0
   -3.0788  -16.5725   18.0908 S   0  0  0  0  0  0  0  0  0  0  0  0
   -8.3109  -16.2374   20.4573 P   0  0  2  0  0  0  0  0  0  0  0  0
   -7.9837  -16.0926   23.2337 P   0  0  2  0  0  0  0  0  0  0  0  0
  2 16  2  0  0  0  0
  2  3  1  0  0  0  0
  2 13  1  0  0  0  0
  3  8  2  0  0  0  0
  3  4  1  0  0  0  0
  4 14  1  0  0  0  0
  5  1  1  1  0  0  0
  5 14  1  0  0  0  0
  5 10  1  0  0  0  0
  6  7  1  0  0  0  0
  7 13  1  0  0  0  0
  7 15  2  0  0  0  0
  8 15  1  0  0  0  0
  9 14  1  0  0  0  0
  9 24  1  0  0  0  0
 10 24  1  0  0  0  0
 10 11  1  6  0  0  0
 11 12  1  0  0  0  0
 12 19  1  0  0  0  0
 17 25  1  0  0  0  0
 19 25  1  0  0  0  0
 20 26  1  0  0  0  0
 21 26  1  0  0  0  0
 22 25  2  0  0  0  0
 23 26  2  0  0  0  0
 25 20  1  1  0  0  0
 26 18  1  1  0  0  0
M  CHG  2  17  -1  21  -1
M  END
>  <CHROM.1>
123.04709719,54.11467059,-169.92702931,-119.04309682,-66.58858263,-58.40962254
-172.14883158,58.19502238,-5.02672614,-18.13229882,19.10915039,0.46598660
0.68935696,-1.44269388

>  <Name>
ligand

>  <RI>
0

>  <Rbt.Current_Directory>
/home/itssahil/PROJECTS/Mol_Feturizer/New_Systems/rnas/3D2X

>  <Rbt.Executable>
rbdock ($Id: //depot/dev/client3/rdock/2013.1/src/exe/rbdock.cxx#4 $)

>  <Rbt.Library>
libRbt.so (2013.1, Build901 2013/11/27)

>  <Rbt.Parameter_File>
/export/apps/rDock/src/rDock_2013.1_src/data/scripts/dock_solv.prm

>  <Rbt.Receptor>
prm/blind_docking_80.prm

>  <SCORE>
-16.1568

>  <SCORE.INTER>
-15.6669

>  <SCORE.INTER.CONST>
1

>  <SCORE.INTER.POLAR>
0

>  <SCORE.INTER.ROT>
8

>  <SCORE.INTER.SOLV>
15.4185

>  <SCORE.INTER.VDW>
-24.5174

>  <SCORE.INTER.norm>
-0.602572

>  <SCORE.INTRA>
-0.733935

>  <SCORE.INTRA.DIHEDRAL>
-2.5931

>  <SCORE.INTRA.DIHEDRAL.0>
7.88077

>  <SCORE.INTRA.POLAR>
0

>  <SCORE.INTRA.POLAR.0>
0

>  <SCORE.INTRA.REPUL>
0

>  <SCORE.INTRA.REPUL.0>
0

>  <SCORE.INTRA.SOLV>
-0.0113592

>  <SCORE.INTRA.SOLV.lig_0>
-63.2542

>  <SCORE.INTRA.VDW>
0.568293

>  <SCORE.INTRA.VDW.0>
-3.15072

>  <SCORE.INTRA.norm>
-0.0282283

>  <SCORE.RESTR>
0.244042

>  <SCORE.RESTR.CAVITY>
0.244042

>  <SCORE.RESTR.norm>
0.00938622

>  <SCORE.SYSTEM>
0

>  <SCORE.SYSTEM.CONST>
0

>  <SCORE.SYSTEM.DIHEDRAL>
0

>  <SCORE.SYSTEM.SOLV>
0

>  <SCORE.SYSTEM.norm>
0

>  <SCORE.heavy>
26

>  <SCORE.norm>
-0.621414

>  <RMSD>
9.836

$$$$
ligand
 OpenBabel11021811473D
libRbt.so/2013.1/901 2013/11/27
 26 27  0  0  0  0  0  0  0  0999 V2000
   -3.2601  -17.6190   15.8447 C   0  0  0  0  0  0  0  0  0  0  0  0
   -1.1487  -20.6970   16.4542 C   0  0  0  0  0  0  0  0  0  0  0  0
   -2.3499  -21.2539   16.0282 C   0  0  0  0  0  0  0  0  0  0  0  0
   -3.3861  -20.4878   15.2023 C   0  0  0  0  0  0  0  0  0  0  0  0
   -4.3489  -18.5542   16.3789 C   0  0  1  0  0  0  0  0  0  0  0  0
    0.4116  -23.6802   18.2428 C   0  0  0  0  0  0  0  0  0  0  0  0
   -0.5734  -22.8073   17.4637 C   0  0  0  0  0  0  0  0  0  0  0  0
   -2.6050  -22.5822   16.3540 C   0  0  0  0  0  0  0  0  0  0  0  0
   -5.3978  -20.5654   16.5740 C   0  0  0  0  0  0  0  0  0  0  0  0
   -5.3701  -18.1022   17.2060 C   0  0  2  0  0  0  0  0  0  0  0  0
   -5.6746  -16.7049   17.7521 C   0  0  0  0  0  0  0  0  0  0  0  0
   -5.3557  -16.5647   19.2424 C   0  0  0  0  0  0  0  0  0  0  0  0
   -0.2444  -21.4751   17.1800 N   0  0  0  0  0  0  0  0  0  0  0  0
   -4.3894  -19.8532   16.0692 N   0  0  0  0  0  0  0  0  0  0  0  0
   -1.7426  -23.3087   17.0403 N   0  0  0  0  0  0  0  0  0  0  0  0
   -0.8781  -19.5250   16.1916 O   0  0  0  0  0  0  0  0  0  0  0  0
   -8.7750  -17.7119   19.5539 O   0  5  0  0  0  0  0  0  0  0  0  0
   -9.3801  -16.6731   24.0751 O   0  0  0  0  0  0  0  0  0  0  0  0
   -6.2915  -17.2803   20.0547 O   0  0  0  0  0  0  0  0  0  0  0  0
   -8.0867  -16.9521   21.8859 O   0  0  0  0  0  0  0  0  0  0  0  0
   -8.2857  -14.6095   22.9634 O   0  5  0  0  0  0  0  0  0  0  0  0
   -7.9260  -15.2984   19.9222 O   0  0  0  0  0  0  0  0  0  0  0  0
  -10.3311  -15.7286   21.8900 O   0  0  0  0  0  0  0  0  0  0  0  0
   -6.3300  -19.5025   17.5948 S   0  0  0  0  0  0  0  0  0  0  0  0
   -7.7748  -16.7151   20.3262 P   0  0  2  0  0  0  0  0  0  0  0  0
   -8.9675  -15.9011   22.7243 P   0  0  2  0  0  0  0  0  0  0  0  0
  2 16  2  0  0  0  0
  2  3  1  0  0  0  0
  2 13  1  0  0  0  0
  3  8  2  0  0  0  0
  3  4  1  0  0  0  0
  4 14  1  0  0  0  0
  5  1  1  6  0  0  0
  5 14  1  0  0  0  0
  5 10  1  0  0  0  0
  6  7  1  0  0  0  0
  7 13  1  0  0  0  0
  7 15  2  0  0  0  0
  8 15  1  0  0  0  0
  9 14  1  0  0  0  0
  9 24  1  0  0  0  0
 10 24  1  0  0  0  0
 10 11  1  1  0  0  0
 11 12  1  0  0  0  0
 12 19  1  0  0  0  0
 17 25  1  0  0  0  0
 19 25  1  0  0  0  0
 20 26  1  0  0  0  0
 21 26  1  0  0  0  0
 22 25  2  0  0  0  0
 23 26  2  0  0  0  0
 25 20  1  1  0  0  0
 26 18  1  1  0  0  0
M  CHG  2  17  -1  21  -1
M  END
>  <CHROM.1>
-92.81206029,-106.79275392,-71.72021013,100.84596745,-76.17065545,-102.82055185
111.49677309,164.95286674,-5.41790916,-18.54260862,18.82178183,0.33654210
0.76669504,-1.26693821

>  <Name>
ligand

>  <RI>
0

>  <Rbt.Current_Directory>
/home/itssahil/PROJECTS/Mol_Feturizer/New_Systems/rnas/3D2X

>  <Rbt.Executable>
rbdock ($Id: //depot/dev/client3/rdock/2013.1/src/exe/rbdock.cxx#4 $)

>  <Rbt.Library>
libRbt.so (2013.1, Build901 2013/11/27)

>  <Rbt.Parameter_File>
/export/apps/rDock/src/rDock_2013.1_src/data/scripts/dock_solv.prm

>  <Rbt.Receptor>
prm/blind_docking_60.prm

>  <SCORE>
-16.6229

>  <SCORE.INTER>
-17.9489

>  <SCORE.INTER.CONST>
1

>  <SCORE.INTER.POLAR>
0

>  <SCORE.INTER.ROT>
8

>  <SCORE.INTER.SOLV>
19.8817

>  <SCORE.INTER.VDW>
-27.5265

>  <SCORE.INTER.norm>
-0.690342

>  <SCORE.INTRA>
1.32333

>  <SCORE.INTRA.DIHEDRAL>
3.00284

>  <SCORE.INTRA.DIHEDRAL.0>
7.88077

>  <SCORE.INTRA.POLAR>
0

>  <SCORE.INTRA.POLAR.0>
0

>  <SCORE.INTRA.REPUL>
0

>  <SCORE.INTRA.REPUL.0>
0

>  <SCORE.INTRA.SOLV>
1.59545

>  <SCORE.INTRA.SOLV.lig_0>
-63.2542

>  <SCORE.INTRA.VDW>
-0.975812

>  <SCORE.INTRA.VDW.0>
-3.15072

>  <SCORE.INTRA.norm>
0.0508973

>  <SCORE.RESTR>
0.00264057

>  <SCORE.RESTR.CAVITY>
0.00264057

>  <SCORE.RESTR.norm>
0.00010156

>  <SCORE.SYSTEM>
0

>  <SCORE.SYSTEM.CONST>
0

>  <SCORE.SYSTEM.DIHEDRAL>
0

>  <SCORE.SYSTEM.SOLV>
0

>  <SCORE.SYSTEM.norm>
0

>  <SCORE.heavy>
26

>  <SCORE.norm>
-0.639343

>  <RMSD>
9.897

$$$$
ligand
 OpenBabel11021811473D
libRbt.so/2013.1/901 2013/11/27
 26 27  0  0  0  0  0  0  0  0999 V2000
    3.1052  -18.7818   19.1401 C   0  0  0  0  0  0  0  0  0  0  0  0
   -0.3628  -21.4987   16.9851 C   0  0  0  0  0  0  0  0  0  0  0  0
   -0.1253  -20.1585   16.6986 C   0  0  0  0  0  0  0  0  0  0  0  0
    1.2006  -19.4560   17.0008 C   0  0  0  0  0  0  0  0  0  0  0  0
    1.8425  -17.9654   18.8491 C   0  0  1  0  0  0  0  0  0  0  0  0
   -3.9086  -21.8854   15.6395 C   0  0  0  0  0  0  0  0  0  0  0  0
   -2.5626  -21.2727   16.0296 C   0  0  0  0  0  0  0  0  0  0  0  0
   -1.1414  -19.4325   16.0856 C   0  0  0  0  0  0  0  0  0  0  0  0
   -0.0598  -17.4894   17.6926 C   0  0  0  0  0  0  0  0  0  0  0  0
    1.5125  -16.8301   19.5796 C   0  0  2  0  0  0  0  0  0  0  0  0
    2.2317  -16.1409   20.7420 C   0  0  0  0  0  0  0  0  0  0  0  0
    1.2957  -15.2854   21.5989 C   0  0  0  0  0  0  0  0  0  0  0  0
   -1.5919  -22.0704   16.6499 N   0  0  0  0  0  0  0  0  0  0  0  0
    0.9944  -18.2873   17.8683 N   0  0  0  0  0  0  0  0  0  0  0  0
   -2.2995  -19.9834   15.7727 N   0  0  0  0  0  0  0  0  0  0  0  0
    0.5051  -22.1825   17.5283 O   0  0  0  0  0  0  0  0  0  0  0  0
   -1.5411  -14.0324   21.9617 O   0  5  0  0  0  0  0  0  0  0  0  0
    0.8511  -11.0907   24.8903 O   0  0  0  0  0  0  0  0  0  0  0  0
    0.7805  -14.1682   20.8682 O   0  0  0  0  0  0  0  0  0  0  0  0
    0.3703  -12.6455   22.9167 O   0  0  0  0  0  0  0  0  0  0  0  0
    0.0020  -10.0988   22.6571 O   0  5  0  0  0  0  0  0  0  0  0  0
   -0.6171  -12.0224   20.6247 O   0  0  0  0  0  0  0  0  0  0  0  0
   -1.5636  -11.4986   24.1329 O   0  0  0  0  0  0  0  0  0  0  0  0
   -0.0052  -16.2683   18.9362 S   0  0  0  0  0  0  0  0  0  0  0  0
   -0.2713  -13.1433   21.5288 P   0  0  2  0  0  0  0  0  0  0  0  0
   -0.0732  -11.2514   23.5825 P   0  0  2  0  0  0  0  0  0  0  0  0
  2 16  2  0  0  0  0
  2  3  1  0  0  0  0
  2 13  1  0  0  0  0
  3  8  2  0  0  0  0
  3  4  1  0  0  0  0
  4 14  1  0  0  0  0
  5  1  1  6  0  0  0
  5 14  1  0  0  0  0
  5 10  1  0  0  0  0
  6  7  1  0  0  0  0
  7 13  1  0  0  0  0
  7 15  2  0  0  0  0
  8 15  1  0  0  0  0
  9 14  1  0  0  0  0
  9 24  1  0  0  0  0
 10 24  1  0  0  0  0
 10 11  1  1  0  0  0
 11 12  1  0  0  0  0
 12 19  1  0  0  0  0
 17 25  1  0  0  0  0
 19 25  1  0  0  0  0
 20 26  1  0  0  0  0
 21 26  1  0  0  0  0
 22 25  2  0  0  0  0
 23 26  2  0  0  0  0
 25 20  1  1  0  0  0
 26 18  1  1  0  0  0
M  CHG  2  17  -1  21  -1
M  END
>  <CHROM.1>
-122.84498004,-157.10778990,-65.86581366,141.04130566,177.71352839,-91.32546278
-58.54120662,-176.81052157,-0.06508806,-16.15342616,19.83966149,-1.64427785
-0.22512925,0.60112249

>  <Name>
ligand

>  <RI>
0

>  <Rbt.Current_Directory>
/home/itssahil/PROJECTS/Mol_Feturizer/New_Systems/rnas/3D2X

>  <Rbt.Executable>
rbdock ($Id: //depot/dev/client3/rdock/2013.1/src/exe/rbdock.cxx#4 $)

>  <Rbt.Library>
libRbt.so (2013.1, Build901 2013/11/27)

>  <Rbt.Parameter_File>
/export/apps/rDock/src/rDock_2013.1_src/data/scripts/dock_solv.prm

>  <Rbt.Receptor>
prm/blind_docking_100.prm

>  <SCORE>
-18.9292

>  <SCORE.INTER>
-19.7728

>  <SCORE.INTER.CONST>
1

>  <SCORE.INTER.POLAR>
0

>  <SCORE.INTER.ROT>
8

>  <SCORE.INTER.SOLV>
14.6469

>  <SCORE.INTER.VDW>
-26.9975

>  <SCORE.INTER.norm>
-0.760491

>  <SCORE.INTRA>
0.162774

>  <SCORE.INTRA.DIHEDRAL>
-1.7488

>  <SCORE.INTRA.DIHEDRAL.0>
7.88077

>  <SCORE.INTRA.POLAR>
0

>  <SCORE.INTRA.POLAR.0>
0

>  <SCORE.INTRA.REPUL>
0

>  <SCORE.INTRA.REPUL.0>
0

>  <SCORE.INTRA.SOLV>
0.079905

>  <SCORE.INTRA.SOLV.lig_0>
-63.2542

>  <SCORE.INTRA.VDW>
0.99722

>  <SCORE.INTRA.VDW.0>
-3.15072

>  <SCORE.INTRA.norm>
0.00626054

>  <SCORE.RESTR>
0.680744

>  <SCORE.RESTR.CAVITY>
0.680744

>  <SCORE.RESTR.norm>
0.0261825

>  <SCORE.SYSTEM>
0

>  <SCORE.SYSTEM.CONST>
0

>  <SCORE.SYSTEM.DIHEDRAL>
0

>  <SCORE.SYSTEM.SOLV>
0

>  <SCORE.SYSTEM.norm>
0

>  <SCORE.heavy>
26

>  <SCORE.norm>
-0.728048

>  <RMSD>
9.899

$$$$
ligand
 OpenBabel11021811473D
libRbt.so/2013.1/901 2013/11/27
 26 27  0  0  0  0  0  0  0  0999 V2000
   -2.1578  -16.2629   17.9414 C   0  0  0  0  0  0  0  0  0  0  0  0
   -6.7783  -19.1823   17.6292 C   0  0  0  0  0  0  0  0  0  0  0  0
   -5.6378  -18.8334   16.9135 C   0  0  0  0  0  0  0  0  0  0  0  0
   -4.5606  -17.8905   17.4552 C   0  0  0  0  0  0  0  0  0  0  0  0
   -2.1098  -17.6917   17.3920 C   0  0  1  0  0  0  0  0  0  0  0  0
   -8.4357  -21.5861   15.1782 C   0  0  0  0  0  0  0  0  0  0  0  0
   -7.4480  -20.5959   15.7971 C   0  0  0  0  0  0  0  0  0  0  0  0
   -5.4634  -19.3919   15.6513 C   0  0  0  0  0  0  0  0  0  0  0  0
   -3.0486  -19.6555   16.7249 C   0  0  0  0  0  0  0  0  0  0  0  0
   -0.9110  -18.3274   17.0916 C   0  0  2  0  0  0  0  0  0  0  0  0
    0.5375  -17.8478   17.2156 C   0  0  0  0  0  0  0  0  0  0  0  0
    1.3136  -18.5736   18.3170 C   0  0  0  0  0  0  0  0  0  0  0  0
   -7.6985  -20.0730   17.0728 N   0  0  0  0  0  0  0  0  0  0  0  0
   -3.2140  -18.4143   17.1843 N   0  0  0  0  0  0  0  0  0  0  0  0
   -6.3398  -20.2334   15.1352 N   0  0  0  0  0  0  0  0  0  0  0  0
   -6.9777  -18.7132   18.7499 O   0  0  0  0  0  0  0  0  0  0  0  0
    3.1998  -18.4258   21.0120 O   0  5  0  0  0  0  0  0  0  0  0  0
    6.0652  -20.7208   19.1387 O   0  0  0  0  0  0  0  0  0  0  0  0
    2.5852  -17.9638   18.5598 O   0  0  0  0  0  0  0  0  0  0  0  0
    3.5539  -20.2524   19.2721 O   0  0  0  0  0  0  0  0  0  0  0  0
    4.7462  -21.4064   21.2559 O   0  5  0  0  0  0  0  0  0  0  0  0
    5.0591  -18.1668   19.2351 O   0  0  0  0  0  0  0  0  0  0  0  0
    4.3888  -22.6577   19.0434 O   0  0  0  0  0  0  0  0  0  0  0  0
   -1.3412  -19.8930   16.4616 S   0  0  0  0  0  0  0  0  0  0  0  0
    3.6898  -18.6661   19.4979 P   0  0  2  0  0  0  0  0  0  0  0  0
    4.6939  -21.2634   19.7837 P   0  0  2  0  0  0  0  0  0  0  0  0
  2 16  2  0  0  0  0
  2  3  1  0  0  0  0
  2 13  1  0  0  0  0
  3  8  2  0  0  0  0
  3  4  1  0  0  0  0
  4 14  1  0  0  0  0
  5  1  1  1  0  0  0
  5 14  1  0  0  0  0
  5 10  1  0  0  0  0
  6  7  1  0  0  0  0
  7 13  1  0  0  0  0
  7 15  2  0  0  0  0
  8 15  1  0  0  0  0
  9 14  1  0  0  0  0
  9 24  1  0  0  0  0
 10 24  1  0  0  0  0
 10 11  1  6  0  0  0
 11 12  1  0  0  0  0
 12 19  1  0  0  0  0
 17 25  1  0  0  0  0
 19 25  1  0  0  0  0
 20 26  1  0  0  0  0
 21 26  1  0  0  0  0
 22 25  2  0  0  0  0
 23 26  2  0  0  0  0
 25 20  1  6  0  0  0
 26 18  1  6  0  0  0
M  CHG  2  17  -1  21  -1
M  END
>  <CHROM.1>
135.79277114,110.49608141,-170.49366948,170.56218431,-170.14311838,-81.64028757
-76.56543557,-54.06860098,-0.56498456,-19.43206432,18.04960834,-3.13141959
0.28445248,-3.02377600

>  <Name>
ligand

>  <RI>
0

>  <Rbt.Current_Directory>
/home/itssahil/PROJECTS/Mol_Feturizer/New_Systems/rnas/3D2X

>  <Rbt.Executable>
rbdock ($Id: //depot/dev/client3/rdock/2013.1/src/exe/rbdock.cxx#4 $)

>  <Rbt.Library>
libRbt.so (2013.1, Build901 2013/11/27)

>  <Rbt.Parameter_File>
/export/apps/rDock/src/rDock_2013.1_src/data/scripts/dock_solv.prm

>  <Rbt.Receptor>
prm/blind_docking_80.prm

>  <SCORE>
-15.5361

>  <SCORE.INTER>
-16.3889

>  <SCORE.INTER.CONST>
1

>  <SCORE.INTER.POLAR>
0

>  <SCORE.INTER.ROT>
8

>  <SCORE.INTER.SOLV>
23.389

>  <SCORE.INTER.VDW>
-27.6556

>  <SCORE.INTER.norm>
-0.630341

>  <SCORE.INTRA>
0.85279

>  <SCORE.INTRA.DIHEDRAL>
-0.543033

>  <SCORE.INTRA.DIHEDRAL.0>
7.88077

>  <SCORE.INTRA.POLAR>
0

>  <SCORE.INTRA.POLAR.0>
0

>  <SCORE.INTRA.REPUL>
0

>  <SCORE.INTRA.REPUL.0>
0

>  <SCORE.INTRA.SOLV>
-1.72805

>  <SCORE.INTRA.SOLV.lig_0>
-63.2542

>  <SCORE.INTRA.VDW>
1.98833

>  <SCORE.INTRA.VDW.0>
-3.15072

>  <SCORE.INTRA.norm>
0.0327996

>  <SCORE.RESTR>
0

>  <SCORE.RESTR.CAVITY>
0

>  <SCORE.RESTR.norm>
0

>  <SCORE.SYSTEM>
0

>  <SCORE.SYSTEM.CONST>
0

>  <SCORE.SYSTEM.DIHEDRAL>
0

>  <SCORE.SYSTEM.SOLV>
0

>  <SCORE.SYSTEM.norm>
0

>  <SCORE.heavy>
26

>  <SCORE.norm>
-0.597542

>  <RMSD>
9.970

$$$$
ligand
 OpenBabel11021811473D
libRbt.so/2013.1/901 2013/11/27
 26 27  0  0  0  0  0  0  0  0999 V2000
   -0.0563  -21.2063   16.4822 C   0  0  0  0  0  0  0  0  0  0  0  0
   -2.5053  -24.7158   18.7483 C   0  0  0  0  0  0  0  0  0  0  0  0
   -1.5820  -23.9544   18.0394 C   0  0  0  0  0  0  0  0  0  0  0  0
   -1.7272  -23.6275   16.5512 C   0  0  0  0  0  0  0  0  0  0  0  0
   -1.5799  -21.1823   16.3283 C   0  0  1  0  0  0  0  0  0  0  0  0
   -0.9647  -24.6188   22.2340 C   0  0  0  0  0  0  0  0  0  0  0  0
   -1.1842  -24.3950   20.7371 C   0  0  0  0  0  0  0  0  0  0  0  0
   -0.4855  -23.4488   18.7305 C   0  0  0  0  0  0  0  0  0  0  0  0
   -3.6337  -22.1548   16.1891 C   0  0  0  0  0  0  0  0  0  0  0  0
   -2.2839  -20.0001   16.1329 C   0  0  2  0  0  0  0  0  0  0  0  0
   -1.8008  -18.5520   16.0189 C   0  0  0  0  0  0  0  0  0  0  0  0
   -2.9321  -17.5689   15.7086 C   0  0  0  0  0  0  0  0  0  0  0  0
   -2.3124  -24.9432   20.1125 N   0  0  0  0  0  0  0  0  0  0  0  0
   -2.3181  -22.2955   16.3573 N   0  0  0  0  0  0  0  0  0  0  0  0
   -0.3134  -23.6697   20.0206 N   0  0  0  0  0  0  0  0  0  0  0  0
   -3.4913  -25.1860   18.1805 O   0  0  0  0  0  0  0  0  0  0  0  0
   -5.9959  -16.6351   17.9451 O   0  5  0  0  0  0  0  0  0  0  0  0
   -5.1044  -13.7014   13.9972 O   0  0  0  0  0  0  0  0  0  0  0  0
   -3.9301  -17.5680   16.7341 O   0  0  0  0  0  0  0  0  0  0  0  0
   -5.1722  -15.4919   15.8228 O   0  0  0  0  0  0  0  0  0  0  0  0
   -4.2629  -16.0917   13.4772 O   0  5  0  0  0  0  0  0  0  0  0  0
   -6.2550  -17.8197   15.6623 O   0  0  0  0  0  0  0  0  0  0  0  0
   -6.7660  -15.6462   13.8301 O   0  0  0  0  0  0  0  0  0  0  0  0
   -3.9655  -20.4476   16.0612 S   0  0  0  0  0  0  0  0  0  0  0  0
   -5.3922  -16.9408   16.4848 P   0  0  2  0  0  0  0  0  0  0  0  0
   -5.2507  -15.2872   14.2305 P   0  0  2  0  0  0  0  0  0  0  0  0
  2 16  2  0  0  0  0
  2  3  1  0  0  0  0
  2 13  1  0  0  0  0
  3  8  2  0  0  0  0
  3  4  1  0  0  0  0
  4 14  1  0  0  0  0
  5  1  1  6  0  0  0
  5 14  1  0  0  0  0
  5 10  1  0  0  0  0
  6  7  1  0  0  0  0
  7 13  1  0  0  0  0
  7 15  2  0  0  0  0
  8 15  1  0  0  0  0
  9 14  1  0  0  0  0
  9 24  1  0  0  0  0
 10 24  1  0  0  0  0
 10 11  1  1  0  0  0
 11 12  1  0  0  0  0
 12 19  1  0  0  0  0
 17 25  1  0  0  0  0
 19 25  1  0  0  0  0
 20 26  1  0  0  0  0
 21 26  1  0  0  0  0
 22 25  2  0  0  0  0
 23 26  2  0  0  0  0
 25 20  1  6  0  0  0
 26 18  1  6  0  0  0
M  CHG  2  17  -1  21  -1
M  END
>  <CHROM.1>
97.27520215,176.09706772,60.80687523,86.63764397,-163.42160382,-151.10417094
-159.63648689,175.27652873,-3.44277891,-19.75999085,16.72188902,-1.05095711
0.72580939,-0.83135882

>  <Name>
ligand

>  <RI>
0

>  <Rbt.Current_Directory>
/home/itssahil/PROJECTS/Mol_Feturizer/New_Systems/rnas/3D2X

>  <Rbt.Executable>
rbdock ($Id: //depot/dev/client3/rdock/2013.1/src/exe/rbdock.cxx#4 $)

>  <Rbt.Library>
libRbt.so (2013.1, Build901 2013/11/27)

>  <Rbt.Parameter_File>
/export/apps/rDock/src/rDock_2013.1_src/data/scripts/dock_solv.prm

>  <Rbt.Receptor>
prm/blind_docking_60.prm

>  <SCORE>
-14.6855

>  <SCORE.INTER>
-14.7923

>  <SCORE.INTER.CONST>
1

>  <SCORE.INTER.POLAR>
0

>  <SCORE.INTER.ROT>
8

>  <SCORE.INTER.SOLV>
22.6708

>  <SCORE.INTER.VDW>
-26.3518

>  <SCORE.INTER.norm>
-0.568933

>  <SCORE.INTRA>
0.0717026

>  <SCORE.INTRA.DIHEDRAL>
-0.279808

>  <SCORE.INTRA.DIHEDRAL.0>
7.88077

>  <SCORE.INTRA.POLAR>
0

>  <SCORE.INTRA.POLAR.0>
0

>  <SCORE.INTRA.REPUL>
0

>  <SCORE.INTRA.REPUL.0>
0

>  <SCORE.INTRA.SOLV>
0.989637

>  <SCORE.INTRA.SOLV.lig_0>
-63.2542

>  <SCORE.INTRA.VDW>
-0.283212

>  <SCORE.INTRA.VDW.0>
-3.15072

>  <SCORE.INTRA.norm>
0.00275779

>  <SCORE.RESTR>
0.0350171

>  <SCORE.RESTR.CAVITY>
0.0350171

>  <SCORE.RESTR.norm>
0.00134681

>  <SCORE.SYSTEM>
0

>  <SCORE.SYSTEM.CONST>
0

>  <SCORE.SYSTEM.DIHEDRAL>
0

>  <SCORE.SYSTEM.SOLV>
0

>  <SCORE.SYSTEM.norm>
0

>  <SCORE.heavy>
26

>  <SCORE.norm>
-0.564829

>  <RMSD>
10.008

$$$$
ligand
 OpenBabel11021811473D
libRbt.so/2013.1/901 2013/11/27
 26 27  0  0  0  0  0  0  0  0999 V2000
   -5.6418  -20.3315   16.5569 C   0  0  0  0  0  0  0  0  0  0  0  0
   -2.0005  -22.1116   16.4225 C   0  0  0  0  0  0  0  0  0  0  0  0
   -1.8666  -20.7341   16.2839 C   0  0  0  0  0  0  0  0  0  0  0  0
   -2.9057  -19.8542   15.5848 C   0  0  0  0  0  0  0  0  0  0  0  0
   -4.7928  -19.1316   16.9873 C   0  0  1  0  0  0  0  0  0  0  0  0
    1.1618  -22.9288   18.3884 C   0  0  0  0  0  0  0  0  0  0  0  0
    0.0850  -22.1537   17.6276 C   0  0  0  0  0  0  0  0  0  0  0  0
   -0.7392  -20.1299   16.8310 C   0  0  0  0  0  0  0  0  0  0  0  0
   -2.8972  -17.8708   16.9992 C   0  0  0  0  0  0  0  0  0  0  0  0
   -5.2606  -18.1804   17.8860 C   0  0  2  0  0  0  0  0  0  0  0  0
   -6.5960  -18.0709   18.6264 C   0  0  0  0  0  0  0  0  0  0  0  0
   -6.7463  -16.7549   19.3931 C   0  0  0  0  0  0  0  0  0  0  0  0
   -1.0190  -22.8372   17.1008 N   0  0  0  0  0  0  0  0  0  0  0  0
   -3.5500  -18.9381   16.5370 N   0  0  0  0  0  0  0  0  0  0  0  0
    0.1824  -20.8257   17.4707 N   0  0  0  0  0  0  0  0  0  0  0  0
   -2.9801  -22.6921   15.9543 O   0  0  0  0  0  0  0  0  0  0  0  0
   -8.5144  -14.8949   21.2817 O   0  5  0  0  0  0  0  0  0  0  0  0
   -9.3850  -17.1930   24.9798 O   0  0  0  0  0  0  0  0  0  0  0  0
   -7.0988  -16.9760   20.7623 O   0  0  0  0  0  0  0  0  0  0  0  0
   -7.7386  -16.3853   23.1964 O   0  0  0  0  0  0  0  0  0  0  0  0
  -10.2612  -15.8816   22.9292 O   0  5  0  0  0  0  0  0  0  0  0  0
   -6.0132  -14.9578   21.9308 O   0  0  0  0  0  0  0  0  0  0  0  0
   -9.3736  -18.2745   22.6557 O   0  0  0  0  0  0  0  0  0  0  0  0
   -3.9920  -16.9967   18.0376 S   0  0  0  0  0  0  0  0  0  0  0  0
   -7.2552  -15.7536   21.7989 P   0  0  2  0  0  0  0  0  0  0  0  0
   -9.2595  -16.8592   23.4102 P   0  0  2  0  0  0  0  0  0  0  0  0
  2 16  2  0  0  0  0
  2  3  1  0  0  0  0
  2 13  1  0  0  0  0
  3  8  2  0  0  0  0
  3  4  1  0  0  0  0
  4 14  1  0  0  0  0
  5  1  1  1  0  0  0
  5 14  1  0  0  0  0
  5 10  1  0  0  0  0
  6  7  1  0  0  0  0
  7 13  1  0  0  0  0
  7 15  2  0  0  0  0
  8 15  1  0  0  0  0
  9 14  1  0  0  0  0
  9 24  1  0  0  0  0
 10 24  1  0  0  0  0
 10 11  1  6  0  0  0
 11 12  1  0  0  0  0
 12 19  1  0  0  0  0
 17 25  1  0  0  0  0
 19 25  1  0  0  0  0
 20 26  1  0  0  0  0
 21 26  1  0  0  0  0
 22 25  2  0  0  0  0
 23 26  2  0  0  0  0
 25 20  1  1  0  0  0
 26 18  1  1  0  0  0
M  CHG  2  17  -1  21  -1
M  END
>  <CHROM.1>
113.64525273,-172.90341747,-127.62748586,-104.81933179,177.36656169,35.91475493
65.47328348,-170.96789170,-5.20613453,-18.39517222,19.46565474,0.13556889
0.81074067,-0.87831984

>  <Name>
ligand

>  <RI>
0

>  <Rbt.Current_Directory>
/home/itssahil/PROJECTS/Mol_Feturizer/New_Systems/rnas/3D2X

>  <Rbt.Executable>
rbdock ($Id: //depot/dev/client3/rdock/2013.1/src/exe/rbdock.cxx#4 $)

>  <Rbt.Library>
libRbt.so (2013.1, Build901 2013/11/27)

>  <Rbt.Parameter_File>
/export/apps/rDock/src/rDock_2013.1_src/data/scripts/dock_solv.prm

>  <Rbt.Receptor>
prm/blind_docking_100.prm

>  <SCORE>
-12.8165

>  <SCORE.INTER>
-14.8296

>  <SCORE.INTER.CONST>
1

>  <SCORE.INTER.POLAR>
0

>  <SCORE.INTER.ROT>
8

>  <SCORE.INTER.SOLV>
17.8934

>  <SCORE.INTER.VDW>
-24.7842

>  <SCORE.INTER.norm>
-0.570371

>  <SCORE.INTRA>
2.00177

>  <SCORE.INTRA.DIHEDRAL>
2.97708

>  <SCORE.INTRA.DIHEDRAL.0>
7.88077

>  <SCORE.INTRA.POLAR>
0

>  <SCORE.INTRA.POLAR.0>
0

>  <SCORE.INTRA.REPUL>
0

>  <SCORE.INTRA.REPUL.0>
0

>  <SCORE.INTRA.SOLV>
0.178317

>  <SCORE.INTRA.SOLV.lig_0>
-63.2542

>  <SCORE.INTRA.VDW>
0.424069

>  <SCORE.INTRA.VDW.0>
-3.15072

>  <SCORE.INTRA.norm>
0.0769911

>  <SCORE.RESTR>
0.0113385

>  <SCORE.RESTR.CAVITY>
0.0113385

>  <SCORE.RESTR.norm>
0.000436096

>  <SCORE.SYSTEM>
0

>  <SCORE.SYSTEM.CONST>
0

>  <SCORE.SYSTEM.DIHEDRAL>
0

>  <SCORE.SYSTEM.SOLV>
0

>  <SCORE.SYSTEM.norm>
0

>  <SCORE.heavy>
26

>  <SCORE.norm>
-0.492944

>  <RMSD>
10.034

$$$$
ligand
 OpenBabel11021811473D
libRbt.so/2013.1/901 2013/11/27
 26 27  0  0  0  0  0  0  0  0999 V2000
   -1.9817  -15.3798   18.9674 C   0  0  0  0  0  0  0  0  0  0  0  0
   -5.8940  -17.6428   15.8444 C   0  0  0  0  0  0  0  0  0  0  0  0
   -4.9129  -17.7533   16.8242 C   0  0  0  0  0  0  0  0  0  0  0  0
   -3.9046  -16.6441   17.1336 C   0  0  0  0  0  0  0  0  0  0  0  0
   -1.6638  -16.6341   18.1480 C   0  0  1  0  0  0  0  0  0  0  0  0
   -7.6721  -20.9901   16.2525 C   0  0  0  0  0  0  0  0  0  0  0  0
   -6.6846  -19.8380   16.4438 C   0  0  0  0  0  0  0  0  0  0  0  0
   -4.8668  -18.9255   17.5720 C   0  0  0  0  0  0  0  0  0  0  0  0
   -2.1744  -18.2983   16.6808 C   0  0  0  0  0  0  0  0  0  0  0  0
   -0.4323  -17.2737   18.2245 C   0  0  2  0  0  0  0  0  0  0  0  0
    0.8131  -16.9561   19.0560 C   0  0  0  0  0  0  0  0  0  0  0  0
    1.7913  -18.1304   19.1368 C   0  0  0  0  0  0  0  0  0  0  0  0
   -6.7942  -18.6916   15.6456 N   0  0  0  0  0  0  0  0  0  0  0  0
   -2.5549  -17.1944   17.3254 N   0  0  0  0  0  0  0  0  0  0  0  0
   -5.7234  -19.9106   17.3758 N   0  0  0  0  0  0  0  0  0  0  0  0
   -5.9742  -16.6253   15.1558 O   0  0  0  0  0  0  0  0  0  0  0  0
    4.0768  -20.0654   19.0690 O   0  5  0  0  0  0  0  0  0  0  0  0
    6.8633  -20.3110   18.7625 O   0  0  0  0  0  0  0  0  0  0  0  0
    3.1385  -17.6866   19.3254 O   0  0  0  0  0  0  0  0  0  0  0  0
    5.6889  -18.1100   19.3276 O   0  0  0  0  0  0  0  0  0  0  0  0
    8.2685  -18.1747   19.1545 O   0  5  0  0  0  0  0  0  0  0  0  0
    4.2562  -18.8371   21.3364 O   0  0  0  0  0  0  0  0  0  0  0  0
    7.0646  -19.3129   21.1150 O   0  0  0  0  0  0  0  0  0  0  0  0
   -0.5096  -18.6025   17.1013 S   0  0  0  0  0  0  0  0  0  0  0  0
    4.2847  -18.6814   19.8639 P   0  0  2  0  0  0  0  0  0  0  0  0
    7.0563  -18.9235   19.5550 P   0  0  2  0  0  0  0  0  0  0  0  0
  2 16  2  0  0  0  0
  2  3  1  0  0  0  0
  2 13  1  0  0  0  0
  3  8  2  0  0  0  0
  3  4  1  0  0  0  0
  4 14  1  0  0  0  0
  5  1  1  1  0  0  0
  5 14  1  0  0  0  0
  5 10  1  0  0  0  0
  6  7  1  0  0  0  0
  7 13  1  0  0  0  0
  7 15  2  0  0  0  0
  8 15  1  0  0  0  0
  9 14  1  0  0  0  0
  9 24  1  0  0  0  0
 10 24  1  0  0  0  0
 10 11  1  6  0  0  0
 11 12  1  0  0  0  0
 12 19  1  0  0  0  0
 17 25  1  0  0  0  0
 19 25  1  0  0  0  0
 20 26  1  0  0  0  0
 21 26  1  0  0  0  0
 22 25  2  0  0  0  0
 23 26  2  0  0  0  0
 25 20  1  6  0  0  0
 26 18  1  6  0  0  0
M  CHG  2  17  -1  21  -1
M  END
>  <CHROM.1>
-137.14253143,163.51891402,152.32362231,-148.96269176,161.93245634,-62.21423050
43.30756151,62.35339632,0.41574777,-18.36709926,18.25107497,-3.12904839,0.27490285
-3.03684740

>  <Name>
ligand

>  <RI>
0

>  <Rbt.Current_Directory>
/home/itssahil/PROJECTS/Mol_Feturizer/New_Systems/rnas/3D2X

>  <Rbt.Executable>
rbdock ($Id: //depot/dev/client3/rdock/2013.1/src/exe/rbdock.cxx#4 $)

>  <Rbt.Library>
libRbt.so (2013.1, Build901 2013/11/27)

>  <Rbt.Parameter_File>
/export/apps/rDock/src/rDock_2013.1_src/data/scripts/dock_solv.prm

>  <Rbt.Receptor>
prm/blind_docking_40.prm

>  <SCORE>
-17.2154

>  <SCORE.INTER>
-19.0233

>  <SCORE.INTER.CONST>
1

>  <SCORE.INTER.POLAR>
0

>  <SCORE.INTER.ROT>
8

>  <SCORE.INTER.SOLV>
19.5587

>  <SCORE.INTER.VDW>
-28.1351

>  <SCORE.INTER.norm>
-0.731664

>  <SCORE.INTRA>
1.76899

>  <SCORE.INTRA.DIHEDRAL>
1.42691

>  <SCORE.INTRA.DIHEDRAL.0>
7.88077

>  <SCORE.INTRA.POLAR>
0

>  <SCORE.INTRA.POLAR.0>
0

>  <SCORE.INTRA.REPUL>
0

>  <SCORE.INTRA.REPUL.0>
0

>  <SCORE.INTRA.SOLV>
-0.544993

>  <SCORE.INTRA.SOLV.lig_0>
-63.2542

>  <SCORE.INTRA.VDW>
1.32803

>  <SCORE.INTRA.VDW.0>
-3.15072

>  <SCORE.INTRA.norm>
0.068038

>  <SCORE.RESTR>
0.0388222

>  <SCORE.RESTR.CAVITY>
0.0388222

>  <SCORE.RESTR.norm>
0.00149316

>  <SCORE.SYSTEM>
0

>  <SCORE.SYSTEM.CONST>
0

>  <SCORE.SYSTEM.DIHEDRAL>
0

>  <SCORE.SYSTEM.SOLV>
0

>  <SCORE.SYSTEM.norm>
0

>  <SCORE.heavy>
26

>  <SCORE.norm>
-0.662133

>  <RMSD>
10.072

$$$$
ligand
 OpenBabel11021811473D
libRbt.so/2013.1/901 2013/11/27
 26 27  0  0  0  0  0  0  0  0999 V2000
   -1.5330  -21.5432   15.5896 C   0  0  0  0  0  0  0  0  0  0  0  0
   -1.2185  -23.9890   18.0673 C   0  0  0  0  0  0  0  0  0  0  0  0
   -0.3403  -23.0004   18.4986 C   0  0  0  0  0  0  0  0  0  0  0  0
    0.5589  -22.2026   17.5512 C   0  0  0  0  0  0  0  0  0  0  0  0
   -0.8763  -20.5028   16.5018 C   0  0  1  0  0  0  0  0  0  0  0  0
   -2.8170  -24.9991   21.3775 C   0  0  0  0  0  0  0  0  0  0  0  0
   -1.9288  -24.2983   20.3483 C   0  0  0  0  0  0  0  0  0  0  0  0
   -0.2996  -22.7122   19.8591 C   0  0  0  0  0  0  0  0  0  0  0  0
    0.5513  -19.8403   18.1468 C   0  0  0  0  0  0  0  0  0  0  0  0
   -1.2367  -19.1610   16.4708 C   0  0  2  0  0  0  0  0  0  0  0  0
   -2.2759  -18.4206   15.6250 C   0  0  0  0  0  0  0  0  0  0  0  0
   -3.6427  -19.1092   15.6226 C   0  0  0  0  0  0  0  0  0  0  0  0
   -2.0257  -24.6500   18.9954 N   0  0  0  0  0  0  0  0  0  0  0  0
    0.0682  -20.8263   17.3896 N   0  0  0  0  0  0  0  0  0  0  0  0
   -1.0677  -23.3431   20.7277 N   0  0  0  0  0  0  0  0  0  0  0  0
   -1.2897  -24.2807   16.8733 O   0  0  0  0  0  0  0  0  0  0  0  0
   -5.4946  -16.8668   16.4820 O   0  5  0  0  0  0  0  0  0  0  0  0
   -6.1004  -17.0703   21.0671 O   0  0  0  0  0  0  0  0  0  0  0  0
   -4.2556  -19.0762   16.9152 O   0  0  0  0  0  0  0  0  0  0  0  0
   -5.7894  -18.0435   18.7220 O   0  0  0  0  0  0  0  0  0  0  0  0
   -6.3070  -15.5252   19.0025 O   0  5  0  0  0  0  0  0  0  0  0  0
   -3.5316  -16.9457   18.1619 O   0  0  0  0  0  0  0  0  0  0  0  0
   -8.1082  -17.2882   19.4884 O   0  0  0  0  0  0  0  0  0  0  0  0
   -0.2096  -18.3600   17.6269 S   0  0  0  0  0  0  0  0  0  0  0  0
   -4.6871  -17.6874   17.6067 P   0  0  2  0  0  0  0  0  0  0  0  0
   -6.5524  -16.8847   19.5334 P   0  0  2  0  0  0  0  0  0  0  0  0
  2 16  2  0  0  0  0
  2  3  1  0  0  0  0
  2 13  1  0  0  0  0
  3  8  2  0  0  0  0
  3  4  1  0  0  0  0
  4 14  1  0  0  0  0
  5  1  1  1  0  0  0
  5 14  1  0  0  0  0
  5 10  1  0  0  0  0
  6  7  1  0  0  0  0
  7 13  1  0  0  0  0
  7 15  2  0  0  0  0
  8 15  1  0  0  0  0
  9 14  1  0  0  0  0
  9 24  1  0  0  0  0
 10 24  1  0  0  0  0
 10 11  1  6  0  0  0
 11 12  1  0  0  0  0
 12 19  1  0  0  0  0
 17 25  1  0  0  0  0
 19 25  1  0  0  0  0
 20 26  1  0  0  0  0
 21 26  1  0  0  0  0
 22 25  2  0  0  0  0
 23 26  2  0  0  0  0
 25 20  1  1  0  0  0
 26 18  1  1  0  0  0
M  CHG  2  17  -1  21  -1
M  END
>  <CHROM.1>
106.60719315,48.81681659,66.46548395,-84.85495559,64.32002461,-62.41083512
48.07629324,-115.62639821,-2.98883353,-19.81245653,18.17766000,-0.69331578
0.58873994,-0.56382895

>  <Name>
ligand

>  <RI>
0

>  <Rbt.Current_Directory>
/home/itssahil/PROJECTS/Mol_Feturizer/New_Systems/rnas/3D2X

>  <Rbt.Executable>
rbdock ($Id: //depot/dev/client3/rdock/2013.1/src/exe/rbdock.cxx#4 $)

>  <Rbt.Library>
libRbt.so (2013.1, Build901 2013/11/27)

>  <Rbt.Parameter_File>
/export/apps/rDock/src/rDock_2013.1_src/data/scripts/dock_solv.prm

>  <Rbt.Receptor>
prm/blind_docking_60.prm

>  <SCORE>
-17.7658

>  <SCORE.INTER>
-18.6046

>  <SCORE.INTER.CONST>
1

>  <SCORE.INTER.POLAR>
0

>  <SCORE.INTER.ROT>
8

>  <SCORE.INTER.SOLV>
19.7007

>  <SCORE.INTER.VDW>
-27.9033

>  <SCORE.INTER.norm>
-0.715561

>  <SCORE.INTRA>
0.324701

>  <SCORE.INTRA.DIHEDRAL>
-0.406593

>  <SCORE.INTRA.DIHEDRAL.0>
7.88077

>  <SCORE.INTRA.POLAR>
0

>  <SCORE.INTRA.POLAR.0>
0

>  <SCORE.INTRA.REPUL>
0

>  <SCORE.INTRA.REPUL.0>
0

>  <SCORE.INTRA.SOLV>
1.55117

>  <SCORE.INTRA.SOLV.lig_0>
-63.2542

>  <SCORE.INTRA.VDW>
-0.247587

>  <SCORE.INTRA.VDW.0>
-3.15072

>  <SCORE.INTRA.norm>
0.0124885

>  <SCORE.RESTR>
0.514132

>  <SCORE.RESTR.CAVITY>
0.514132

>  <SCORE.RESTR.norm>
0.0197743

>  <SCORE.SYSTEM>
0

>  <SCORE.SYSTEM.CONST>
0

>  <SCORE.SYSTEM.DIHEDRAL>
0

>  <SCORE.SYSTEM.SOLV>
0

>  <SCORE.SYSTEM.norm>
0

>  <SCORE.heavy>
26

>  <SCORE.norm>
-0.683298

>  <RMSD>
10.073

$$$$
ligand
 OpenBabel11021811473D
libRbt.so/2013.1/901 2013/11/27
 26 27  0  0  0  0  0  0  0  0999 V2000
   -3.0449  -17.7740   17.0259 C   0  0  0  0  0  0  0  0  0  0  0  0
   -3.6429  -20.2179   13.6889 C   0  0  0  0  0  0  0  0  0  0  0  0
   -3.6137  -21.0654   14.7915 C   0  0  0  0  0  0  0  0  0  0  0  0
   -3.2827  -20.5908   16.2085 C   0  0  0  0  0  0  0  0  0  0  0  0
   -4.3300  -18.5916   17.1866 C   0  0  1  0  0  0  0  0  0  0  0  0
   -4.6798  -22.6623   10.9535 C   0  0  0  0  0  0  0  0  0  0  0  0
   -4.2881  -22.0897   12.3165 C   0  0  0  0  0  0  0  0  0  0  0  0
   -3.9244  -22.4066   14.5918 C   0  0  0  0  0  0  0  0  0  0  0  0
   -5.5937  -20.4729   16.9703 C   0  0  0  0  0  0  0  0  0  0  0  0
   -5.4887  -18.0473   17.7274 C   0  0  2  0  0  0  0  0  0  0  0  0
   -5.7871  -16.6394   18.2492 C   0  0  0  0  0  0  0  0  0  0  0  0
   -5.4828  -16.4796   19.7406 C   0  0  0  0  0  0  0  0  0  0  0  0
   -3.9833  -20.7271   12.4340 N   0  0  0  0  0  0  0  0  0  0  0  0
   -4.4166  -19.8683   16.8029 N   0  0  0  0  0  0  0  0  0  0  0  0
   -4.2454  -22.8771   13.4009 N   0  0  0  0  0  0  0  0  0  0  0  0
   -3.3742  -19.0231   13.8149 O   0  0  0  0  0  0  0  0  0  0  0  0
   -9.0116  -17.6525   20.4265 O   0  5  0  0  0  0  0  0  0  0  0  0
   -6.9564  -17.7451   23.1499 O   0  0  0  0  0  0  0  0  0  0  0  0
   -6.5213  -17.0313   20.5560 O   0  0  0  0  0  0  0  0  0  0  0  0
   -8.2613  -15.8391   22.0507 O   0  0  0  0  0  0  0  0  0  0  0  0
   -8.3196  -16.1119   24.6219 O   0  5  0  0  0  0  0  0  0  0  0  0
   -8.1942  -15.3733   19.5219 O   0  0  0  0  0  0  0  0  0  0  0  0
   -9.5189  -17.7994   23.1045 O   0  0  0  0  0  0  0  0  0  0  0  0
   -6.6582  -19.3375   17.7567 S   0  0  0  0  0  0  0  0  0  0  0  0
   -8.0047  -16.4048   20.5675 P   0  0  2  0  0  0  0  0  0  0  0  0
   -8.2624  -16.8204   23.3237 P   0  0  2  0  0  0  0  0  0  0  0  0
  2 16  2  0  0  0  0
  2  3  1  0  0  0  0
  2 13  1  0  0  0  0
  3  8  2  0  0  0  0
  3  4  1  0  0  0  0
  4 14  1  0  0  0  0
  5  1  1  6  0  0  0
  5 14  1  0  0  0  0
  5 10  1  0  0  0  0
  6  7  1  0  0  0  0
  7 13  1  0  0  0  0
  7 15  2  0  0  0  0
  8 15  1  0  0  0  0
  9 14  1  0  0  0  0
  9 24  1  0  0  0  0
 10 24  1  0  0  0  0
 10 11  1  1  0  0  0
 11 12  1  0  0  0  0
 12 19  1  0  0  0  0
 17 25  1  0  0  0  0
 19 25  1  0  0  0  0
 20 26  1  0  0  0  0
 21 26  1  0  0  0  0
 22 25  2  0  0  0  0
 23 26  2  0  0  0  0
 25 20  1  1  0  0  0
 26 18  1  6  0  0  0
M  CHG  2  17  -1  21  -1
M  END
>  <CHROM.1>
75.67461206,-89.92193837,-78.99552603,-119.12327672,-65.43008569,49.77199365
133.05510015,46.59062198,-6.06331434,-18.56237363,18.25382052,-0.99781175
0.77423685,0.66772325

>  <Name>
ligand

>  <RI>
0

>  <Rbt.Current_Directory>
/home/itssahil/PROJECTS/Mol_Feturizer/New_Systems/rnas/3D2X

>  <Rbt.Executable>
rbdock ($Id: //depot/dev/client3/rdock/2013.1/src/exe/rbdock.cxx#4 $)

>  <Rbt.Library>
libRbt.so (2013.1, Build901 2013/11/27)

>  <Rbt.Parameter_File>
/export/apps/rDock/src/rDock_2013.1_src/data/scripts/dock_solv.prm

>  <Rbt.Receptor>
prm/blind_docking_100.prm

>  <SCORE>
-19.8781

>  <SCORE.INTER>
-19.3332

>  <SCORE.INTER.CONST>
1

>  <SCORE.INTER.POLAR>
0

>  <SCORE.INTER.ROT>
8

>  <SCORE.INTER.SOLV>
20.5215

>  <SCORE.INTER.VDW>
-28.6626

>  <SCORE.INTER.norm>
-0.743586

>  <SCORE.INTRA>
-0.544875

>  <SCORE.INTRA.DIHEDRAL>
0.766624

>  <SCORE.INTRA.DIHEDRAL.0>
7.88077

>  <SCORE.INTRA.POLAR>
0

>  <SCORE.INTRA.POLAR.0>
0

>  <SCORE.INTRA.REPUL>
0

>  <SCORE.INTRA.REPUL.0>
0

>  <SCORE.INTRA.SOLV>
-0.243798

>  <SCORE.INTRA.SOLV.lig_0>
-63.2542

>  <SCORE.INTRA.VDW>
-0.806288

>  <SCORE.INTRA.VDW.0>
-3.15072

>  <SCORE.INTRA.norm>
-0.0209567

>  <SCORE.RESTR>
0

>  <SCORE.RESTR.CAVITY>
0

>  <SCORE.RESTR.norm>
0

>  <SCORE.SYSTEM>
0

>  <SCORE.SYSTEM.CONST>
0

>  <SCORE.SYSTEM.DIHEDRAL>
0

>  <SCORE.SYSTEM.SOLV>
0

>  <SCORE.SYSTEM.norm>
0

>  <SCORE.heavy>
26

>  <SCORE.norm>
-0.764542

>  <RMSD>
10.191

$$$$
ligand
 OpenBabel11021811473D
libRbt.so/2013.1/901 2013/11/27
 26 27  0  0  0  0  0  0  0  0999 V2000
   -3.0722  -16.9809   17.5495 C   0  0  0  0  0  0  0  0  0  0  0  0
   -3.4121  -21.5767   14.6630 C   0  0  0  0  0  0  0  0  0  0  0  0
   -3.4334  -20.1928   14.5243 C   0  0  0  0  0  0  0  0  0  0  0  0
   -3.0533  -19.2287   15.6506 C   0  0  0  0  0  0  0  0  0  0  0  0
   -4.2136  -17.9957   17.4349 C   0  0  1  0  0  0  0  0  0  0  0  0
   -4.4499  -22.6489   11.1550 C   0  0  0  0  0  0  0  0  0  0  0  0
   -4.0977  -21.7788   12.3625 C   0  0  0  0  0  0  0  0  0  0  0  0
   -3.7979  -19.6666   13.2890 C   0  0  0  0  0  0  0  0  0  0  0  0
   -5.2470  -19.8134   16.5343 C   0  0  0  0  0  0  0  0  0  0  0  0
   -5.3548  -17.9158   18.2240 C   0  0  2  0  0  0  0  0  0  0  0  0
   -5.7606  -16.9073   19.3018 C   0  0  0  0  0  0  0  0  0  0  0  0
   -7.1737  -17.1455   19.8392 C   0  0  0  0  0  0  0  0  0  0  0  0
   -3.7459  -22.3861   13.5753 N   0  0  0  0  0  0  0  0  0  0  0  0
   -4.1859  -19.0057   16.5609 N   0  0  0  0  0  0  0  0  0  0  0  0
   -4.1112  -20.4415   12.2672 N   0  0  0  0  0  0  0  0  0  0  0  0
   -3.0974  -22.0898   15.7370 O   0  0  0  0  0  0  0  0  0  0  0  0
   -9.9721  -16.5247   19.9769 O   0  5  0  0  0  0  0  0  0  0  0  0
   -9.7048  -17.3183   24.9355 O   0  0  0  0  0  0  0  0  0  0  0  0
   -7.5611  -16.1373   20.7779 O   0  0  0  0  0  0  0  0  0  0  0  0
   -9.3996  -16.8903   22.4321 O   0  0  0  0  0  0  0  0  0  0  0  0
   -7.3201  -17.1241   23.9518 O   0  5  0  0  0  0  0  0  0  0  0  0
   -9.4151  -14.4994   21.4834 O   0  0  0  0  0  0  0  0  0  0  0  0
   -8.8280  -15.0534   24.1154 O   0  0  0  0  0  0  0  0  0  0  0  0
   -6.3393  -19.2842   17.7863 S   0  0  0  0  0  0  0  0  0  0  0  0
   -9.1029  -15.9166   21.1873 P   0  0  2  0  0  0  0  0  0  0  0  0
   -8.7151  -16.6375   23.8642 P   0  0  2  0  0  0  0  0  0  0  0  0
  2 16  2  0  0  0  0
  2  3  1  0  0  0  0
  2 13  1  0  0  0  0
  3  8  2  0  0  0  0
  3  4  1  0  0  0  0
  4 14  1  0  0  0  0
  5  1  1  6  0  0  0
  5 14  1  0  0  0  0
  5 10  1  0  0  0  0
  6  7  1  0  0  0  0
  7 13  1  0  0  0  0
  7 15  2  0  0  0  0
  8 15  1  0  0  0  0
  9 14  1  0  0  0  0
  9 24  1  0  0  0  0
 10 24  1  0  0  0  0
 10 11  1  1  0  0  0
 11 12  1  0  0  0  0
 12 19  1  0  0  0  0
 17 25  1  0  0  0  0
 19 25  1  0  0  0  0
 20 26  1  0  0  0  0
 21 26  1  0  0  0  0
 22 25  2  0  0  0  0
 23 26  2  0  0  0  0
 25 20  1  1  0  0  0
 26 18  1  1  0  0  0
M  CHG  2  17  -1  21  -1
M  END
>  <CHROM.1>
-82.86237419,175.31913782,-176.06612621,-164.65018522,163.22579160,179.88563211
-22.68696958,154.93364618,-6.33170647,-18.26238749,18.60730957,-1.10613035
-0.08884019,1.12916817

>  <Name>
ligand

>  <RI>
0

>  <Rbt.Current_Directory>
/home/itssahil/PROJECTS/Mol_Feturizer/New_Systems/rnas/3D2X

>  <Rbt.Executable>
rbdock ($Id: //depot/dev/client3/rdock/2013.1/src/exe/rbdock.cxx#4 $)

>  <Rbt.Library>
libRbt.so (2013.1, Build901 2013/11/27)

>  <Rbt.Parameter_File>
/export/apps/rDock/src/rDock_2013.1_src/data/scripts/dock_solv.prm

>  <Rbt.Receptor>
prm/blind_docking_100.prm

>  <SCORE>
-17.6644

>  <SCORE.INTER>
-18.8266

>  <SCORE.INTER.CONST>
1

>  <SCORE.INTER.POLAR>
0

>  <SCORE.INTER.ROT>
8

>  <SCORE.INTER.SOLV>
23.3172

>  <SCORE.INTER.VDW>
-29.2568

>  <SCORE.INTER.norm>
-0.724101

>  <SCORE.INTRA>
1.1622

>  <SCORE.INTRA.DIHEDRAL>
0.14514

>  <SCORE.INTRA.DIHEDRAL.0>
7.88077

>  <SCORE.INTRA.POLAR>
0

>  <SCORE.INTRA.POLAR.0>
0

>  <SCORE.INTRA.REPUL>
0

>  <SCORE.INTRA.REPUL.0>
0

>  <SCORE.INTRA.SOLV>
-0.260683

>  <SCORE.INTRA.SOLV.lig_0>
-63.2542

>  <SCORE.INTRA.VDW>
1.21997

>  <SCORE.INTRA.VDW.0>
-3.15072

>  <SCORE.INTRA.norm>
0.0447

>  <SCORE.RESTR>
0

>  <SCORE.RESTR.CAVITY>
0

>  <SCORE.RESTR.norm>
0

>  <SCORE.SYSTEM>
0

>  <SCORE.SYSTEM.CONST>
0

>  <SCORE.SYSTEM.DIHEDRAL>
0

>  <SCORE.SYSTEM.SOLV>
0

>  <SCORE.SYSTEM.norm>
0

>  <SCORE.heavy>
26

>  <SCORE.norm>
-0.679401

>  <RMSD>
10.222

$$$$
ligand
 OpenBabel11021811473D
libRbt.so/2013.1/901 2013/11/27
 26 27  0  0  0  0  0  0  0  0999 V2000
   -4.0777  -20.4598   16.0647 C   0  0  0  0  0  0  0  0  0  0  0  0
   -1.2627  -22.7846   16.8910 C   0  0  0  0  0  0  0  0  0  0  0  0
   -0.6271  -21.5757   16.6276 C   0  0  0  0  0  0  0  0  0  0  0  0
   -1.1671  -20.5395   15.6390 C   0  0  0  0  0  0  0  0  0  0  0  0
   -3.1264  -19.3590   16.5433 C   0  0  1  0  0  0  0  0  0  0  0  0
    1.0684  -24.2413   19.5323 C   0  0  0  0  0  0  0  0  0  0  0  0
    0.4655  -23.3006   18.4879 C   0  0  0  0  0  0  0  0  0  0  0  0
    0.5464  -21.2916   17.3187 C   0  0  0  0  0  0  0  0  0  0  0  0
   -1.0746  -18.4138   16.8255 C   0  0  0  0  0  0  0  0  0  0  0  0
   -3.5794  -18.2383   17.2290 C   0  0  2  0  0  0  0  0  0  0  0  0
   -4.9895  -17.8295   17.6625 C   0  0  0  0  0  0  0  0  0  0  0  0
   -5.0279  -16.4662   18.3571 C   0  0  0  0  0  0  0  0  0  0  0  0
   -0.7177  -23.6624   17.8302 N   0  0  0  0  0  0  0  0  0  0  0  0
   -1.8068  -19.4191   16.3437 N   0  0  0  0  0  0  0  0  0  0  0  0
    1.0525  -22.1288   18.2051 N   0  0  0  0  0  0  0  0  0  0  0  0
   -2.3032  -23.0817   16.3037 O   0  0  0  0  0  0  0  0  0  0  0  0
   -7.5811  -18.2065   19.2491 O   0  5  0  0  0  0  0  0  0  0  0  0
   -8.3291  -17.7359   22.3958 O   0  0  0  0  0  0  0  0  0  0  0  0
   -6.3695  -16.0340   18.6034 O   0  0  0  0  0  0  0  0  0  0  0  0
   -6.3287  -16.8974   21.0399 O   0  0  0  0  0  0  0  0  0  0  0  0
   -6.0241  -17.4784   23.5415 O   0  5  0  0  0  0  0  0  0  0  0  0
   -8.4942  -15.9246   20.0495 O   0  0  0  0  0  0  0  0  0  0  0  0
   -7.3619  -15.4037   22.8387 O   0  0  0  0  0  0  0  0  0  0  0  0
   -2.1733  -17.2541   17.5247 S   0  0  0  0  0  0  0  0  0  0  0  0
   -7.2736  -16.7090   19.7525 P   0  0  2  0  0  0  0  0  0  0  0  0
   -6.9451  -16.9243   22.5241 P   0  0  2  0  0  0  0  0  0  0  0  0
  2 16  2  0  0  0  0
  2  3  1  0  0  0  0
  2 13  1  0  0  0  0
  3  8  2  0  0  0  0
  3  4  1  0  0  0  0
  4 14  1  0  0  0  0
  5  1  1  1  0  0  0
  5 14  1  0  0  0  0
  5 10  1  0  0  0  0
  6  7  1  0  0  0  0
  7 13  1  0  0  0  0
  7 15  2  0  0  0  0
  8 15  1  0  0  0  0
  9 14  1  0  0  0  0
  9 24  1  0  0  0  0
 10 24  1  0  0  0  0
 10 11  1  6  0  0  0
 11 12  1  0  0  0  0
 12 19  1  0  0  0  0
 17 25  1  0  0  0  0
 19 25  1  0  0  0  0
 20 26  1  0  0  0  0
 21 26  1  0  0  0  0
 22 25  2  0  0  0  0
 23 26  2  0  0  0  0
 25 20  1  1  0  0  0
 26 18  1  6  0  0  0
M  CHG  2  17  -1  21  -1
M  END
>  <CHROM.1>
102.97150154,-177.74325107,172.81963082,-96.52816379,73.17723526,-94.78095874
-68.61126540,38.49736806,-4.00112706,-18.90018231,18.86832137,0.11260553
0.77344175,-1.09761136

>  <Name>
ligand

>  <RI>
0

>  <Rbt.Current_Directory>
/home/itssahil/PROJECTS/Mol_Feturizer/New_Systems/rnas/3D2X

>  <Rbt.Executable>
rbdock ($Id: //depot/dev/client3/rdock/2013.1/src/exe/rbdock.cxx#4 $)

>  <Rbt.Library>
libRbt.so (2013.1, Build901 2013/11/27)

>  <Rbt.Parameter_File>
/export/apps/rDock/src/rDock_2013.1_src/data/scripts/dock_solv.prm

>  <Rbt.Receptor>
prm/blind_docking_80.prm

>  <SCORE>
-18.033

>  <SCORE.INTER>
-18.0147

>  <SCORE.INTER.CONST>
1

>  <SCORE.INTER.POLAR>
0

>  <SCORE.INTER.ROT>
8

>  <SCORE.INTER.SOLV>
21.5348

>  <SCORE.INTER.VDW>
-28.1214

>  <SCORE.INTER.norm>
-0.692874

>  <SCORE.INTRA>
-0.018276

>  <SCORE.INTRA.DIHEDRAL>
-0.35862

>  <SCORE.INTRA.DIHEDRAL.0>
7.88077

>  <SCORE.INTRA.POLAR>
0

>  <SCORE.INTRA.POLAR.0>
0

>  <SCORE.INTRA.REPUL>
0

>  <SCORE.INTRA.REPUL.0>
0

>  <SCORE.INTRA.SOLV>
-0.560057

>  <SCORE.INTRA.SOLV.lig_0>
-63.2542

>  <SCORE.INTRA.VDW>
0.441063

>  <SCORE.INTRA.VDW.0>
-3.15072

>  <SCORE.INTRA.norm>
-0.000702922

>  <SCORE.RESTR>
0

>  <SCORE.RESTR.CAVITY>
0

>  <SCORE.RESTR.norm>
0

>  <SCORE.SYSTEM>
0

>  <SCORE.SYSTEM.CONST>
0

>  <SCORE.SYSTEM.DIHEDRAL>
0

>  <SCORE.SYSTEM.SOLV>
0

>  <SCORE.SYSTEM.norm>
0

>  <SCORE.heavy>
26

>  <SCORE.norm>
-0.693576

>  <RMSD>
10.224

$$$$
ligand
 OpenBabel11021811473D
libRbt.so/2013.1/901 2013/11/27
 26 27  0  0  0  0  0  0  0  0999 V2000
   -4.2106  -16.7623   18.3536 C   0  0  0  0  0  0  0  0  0  0  0  0
   -4.0621  -21.3914   15.4905 C   0  0  0  0  0  0  0  0  0  0  0  0
   -3.8633  -20.0148   15.4956 C   0  0  0  0  0  0  0  0  0  0  0  0
   -3.6991  -19.1935   16.7767 C   0  0  0  0  0  0  0  0  0  0  0  0
   -5.2497  -17.8693   18.1522 C   0  0  1  0  0  0  0  0  0  0  0  0
   -4.1845  -22.0680   11.7409 C   0  0  0  0  0  0  0  0  0  0  0  0
   -4.0821  -21.3403   13.0821 C   0  0  0  0  0  0  0  0  0  0  0  0
   -3.7883  -19.3620   14.2693 C   0  0  0  0  0  0  0  0  0  0  0  0
   -5.9862  -19.8484   17.3014 C   0  0  0  0  0  0  0  0  0  0  0  0
   -6.5247  -17.7938   18.7000 C   0  0  2  0  0  0  0  0  0  0  0  0
   -7.1872  -16.7096   19.5539 C   0  0  0  0  0  0  0  0  0  0  0  0
   -8.6668  -16.9882   19.8284 C   0  0  0  0  0  0  0  0  0  0  0  0
   -4.1734  -22.0697   14.2750 N   0  0  0  0  0  0  0  0  0  0  0  0
   -4.9971  -18.9624   17.4270 N   0  0  0  0  0  0  0  0  0  0  0  0
   -3.8943  -20.0135   13.1261 N   0  0  0  0  0  0  0  0  0  0  0  0
   -4.1367  -22.0135   16.5503 O   0  0  0  0  0  0  0  0  0  0  0  0
   -9.9081  -15.8519   22.2398 O   0  5  0  0  0  0  0  0  0  0  0  0
  -11.8275  -18.9121   24.9167 O   0  0  0  0  0  0  0  0  0  0  0  0
   -8.8453  -17.8221   20.9775 O   0  0  0  0  0  0  0  0  0  0  0  0
  -10.0311  -18.1893   23.2452 O   0  0  0  0  0  0  0  0  0  0  0  0
  -10.7043  -16.5953   25.1673 O   0  5  0  0  0  0  0  0  0  0  0  0
   -7.7659  -16.9739   23.1530 O   0  0  0  0  0  0  0  0  0  0  0  0
  -12.3194  -17.0501   23.2249 O   0  0  0  0  0  0  0  0  0  0  0  0
   -7.3279  -19.2738   18.2556 S   0  0  0  0  0  0  0  0  0  0  0  0
   -9.0489  -17.1970   22.4475 P   0  0  2  0  0  0  0  0  0  0  0  0
  -11.1825  -17.6177   24.2101 P   0  0  2  0  0  0  0  0  0  0  0  0
  2 16  2  0  0  0  0
  2  3  1  0  0  0  0
  2 13  1  0  0  0  0
  3  8  2  0  0  0  0
  3  4  1  0  0  0  0
  4 14  1  0  0  0  0
  5  1  1  6  0  0  0
  5 14  1  0  0  0  0
  5 10  1  0  0  0  0
  6  7  1  0  0  0  0
  7 13  1  0  0  0  0
  7 15  2  0  0  0  0
  8 15  1  0  0  0  0
  9 14  1  0  0  0  0
  9 24  1  0  0  0  0
 10 24  1  0  0  0  0
 10 11  1  1  0  0  0
 11 12  1  0  0  0  0
 12 19  1  0  0  0  0
 17 25  1  0  0  0  0
 19 25  1  0  0  0  0
 20 26  1  0  0  0  0
 21 26  1  0  0  0  0
 22 25  2  0  0  0  0
 23 26  2  0  0  0  0
 25 20  1  1  0  0  0
 26 18  1  1  0  0  0
M  CHG  2  17  -1  21  -1
M  END
>  <CHROM.1>
-77.64049331,174.54116172,86.29745990,-149.72025769,91.56025162,-27.80087591
35.52999104,-174.48468942,-7.27347786,-18.61846250,19.32459469,-0.77346847
0.68462933,0.64268353

>  <Name>
ligand

>  <RI>
0

>  <Rbt.Current_Directory>
/home/itssahil/PROJECTS/Mol_Feturizer/New_Systems/rnas/3D2X

>  <Rbt.Executable>
rbdock ($Id: //depot/dev/client3/rdock/2013.1/src/exe/rbdock.cxx#4 $)

>  <Rbt.Library>
libRbt.so (2013.1, Build901 2013/11/27)

>  <Rbt.Parameter_File>
/export/apps/rDock/src/rDock_2013.1_src/data/scripts/dock_solv.prm

>  <Rbt.Receptor>
prm/blind_docking_60.prm

>  <SCORE>
-11.4729

>  <SCORE.INTER>
-16.2115

>  <SCORE.INTER.CONST>
1

>  <SCORE.INTER.POLAR>
0

>  <SCORE.INTER.ROT>
8

>  <SCORE.INTER.SOLV>
27.2366

>  <SCORE.INTER.VDW>
-28.8198

>  <SCORE.INTER.norm>
-0.623517

>  <SCORE.INTRA>
4.42363

>  <SCORE.INTRA.DIHEDRAL>
5.73642

>  <SCORE.INTRA.DIHEDRAL.0>
7.88077

>  <SCORE.INTRA.POLAR>
0

>  <SCORE.INTRA.POLAR.0>
0

>  <SCORE.INTRA.REPUL>
0

>  <SCORE.INTRA.REPUL.0>
0

>  <SCORE.INTRA.SOLV>
1.48488

>  <SCORE.INTRA.SOLV.lig_0>
-63.2542

>  <SCORE.INTRA.VDW>
0.812982

>  <SCORE.INTRA.VDW.0>
-3.15072

>  <SCORE.INTRA.norm>
0.17014

>  <SCORE.RESTR>
0.314901

>  <SCORE.RESTR.CAVITY>
0.314901

>  <SCORE.RESTR.norm>
0.0121116

>  <SCORE.SYSTEM>
0

>  <SCORE.SYSTEM.CONST>
0

>  <SCORE.SYSTEM.DIHEDRAL>
0

>  <SCORE.SYSTEM.SOLV>
0

>  <SCORE.SYSTEM.norm>
0

>  <SCORE.heavy>
26

>  <SCORE.norm>
-0.441266

>  <RMSD>
10.266

$$$$
ligand
 OpenBabel11021811473D
libRbt.so/2013.1/901 2013/11/27
 26 27  0  0  0  0  0  0  0  0999 V2000
   -0.3556  -15.0546   19.3503 C   0  0  0  0  0  0  0  0  0  0  0  0
   -4.5682  -17.6507   18.0993 C   0  0  0  0  0  0  0  0  0  0  0  0
   -3.3444  -17.6162   17.4391 C   0  0  0  0  0  0  0  0  0  0  0  0
   -2.2786  -16.5486   17.6985 C   0  0  0  0  0  0  0  0  0  0  0  0
   -0.1266  -16.4968   18.8886 C   0  0  1  0  0  0  0  0  0  0  0  0
   -6.0957  -20.7956   16.5799 C   0  0  0  0  0  0  0  0  0  0  0  0
   -5.1241  -19.6538   16.8820 C   0  0  0  0  0  0  0  0  0  0  0  0
   -3.0736  -18.6194   16.5141 C   0  0  0  0  0  0  0  0  0  0  0  0
   -0.7207  -18.4176   17.8204 C   0  0  0  0  0  0  0  0  0  0  0  0
    1.0159  -17.2096   19.2321 C   0  0  2  0  0  0  0  0  0  0  0  0
    2.2290  -16.8137   20.0777 C   0  0  0  0  0  0  0  0  0  0  0  0
    3.5550  -17.2817   19.4735 C   0  0  0  0  0  0  0  0  0  0  0  0
   -5.4737  -18.6774   17.8243 N   0  0  0  0  0  0  0  0  0  0  0  0
   -1.0168  -17.1578   18.1433 N   0  0  0  0  0  0  0  0  0  0  0  0
   -3.9371  -19.5857   16.2623 N   0  0  0  0  0  0  0  0  0  0  0  0
   -4.8543  -16.7841   18.9257 O   0  0  0  0  0  0  0  0  0  0  0  0
    5.3030  -19.0336   17.5608 O   0  5  0  0  0  0  0  0  0  0  0  0
    5.2010  -17.7415   22.0200 O   0  0  0  0  0  0  0  0  0  0  0  0
    3.6943  -18.7045   19.5377 O   0  0  0  0  0  0  0  0  0  0  0  0
    6.2535  -18.7187   19.9032 O   0  0  0  0  0  0  0  0  0  0  0  0
    6.1741  -20.1380   22.0637 O   0  5  0  0  0  0  0  0  0  0  0  0
    5.0181  -20.8999   19.3264 O   0  0  0  0  0  0  0  0  0  0  0  0
    7.7350  -18.1074   21.8947 O   0  0  0  0  0  0  0  0  0  0  0  0
    0.8656  -18.7621   18.4573 S   0  0  0  0  0  0  0  0  0  0  0  0
    5.0599  -19.4369   19.0999 P   0  0  2  0  0  0  0  0  0  0  0  0
    6.3241  -18.7745   21.5080 P   0  0  2  0  0  0  0  0  0  0  0  0
  2 16  2  0  0  0  0
  2  3  1  0  0  0  0
  2 13  1  0  0  0  0
  3  8  2  0  0  0  0
  3  4  1  0  0  0  0
  4 14  1  0  0  0  0
  5  1  1  1  0  0  0
  5 14  1  0  0  0  0
  5 10  1  0  0  0  0
  6  7  1  0  0  0  0
  7 13  1  0  0  0  0
  7 15  2  0  0  0  0
  8 15  1  0  0  0  0
  9 14  1  0  0  0  0
  9 24  1  0  0  0  0
 10 24  1  0  0  0  0
 10 11  1  6  0  0  0
 11 12  1  0  0  0  0
 12 19  1  0  0  0  0
 17 25  1  0  0  0  0
 19 25  1  0  0  0  0
 20 26  1  0  0  0  0
 21 26  1  0  0  0  0
 22 25  2  0  0  0  0
 23 26  2  0  0  0  0
 25 20  1  1  0  0  0
 26 18  1  1  0  0  0
M  CHG  2  17  -1  21  -1
M  END
>  <CHROM.1>
121.17817243,-137.91739411,-69.49328139,-154.44757312,-173.96887377,175.37643669
-59.14229055,-75.35642151,1.30253429,-18.37480260,19.04540718,3.04794329
0.29445556,-2.66537900

>  <Name>
ligand

>  <RI>
0

>  <Rbt.Current_Directory>
/home/itssahil/PROJECTS/Mol_Feturizer/New_Systems/rnas/3D2X

>  <Rbt.Executable>
rbdock ($Id: //depot/dev/client3/rdock/2013.1/src/exe/rbdock.cxx#4 $)

>  <Rbt.Library>
libRbt.so (2013.1, Build901 2013/11/27)

>  <Rbt.Parameter_File>
/export/apps/rDock/src/rDock_2013.1_src/data/scripts/dock_solv.prm

>  <Rbt.Receptor>
prm/blind_docking_40.prm

>  <SCORE>
-23.0558

>  <SCORE.INTER>
-21.6079

>  <SCORE.INTER.CONST>
1

>  <SCORE.INTER.POLAR>
0

>  <SCORE.INTER.ROT>
8

>  <SCORE.INTER.SOLV>
21.667

>  <SCORE.INTER.VDW>
-30.5609

>  <SCORE.INTER.norm>
-0.831072

>  <SCORE.INTRA>
-1.49362

>  <SCORE.INTRA.DIHEDRAL>
-1.99467

>  <SCORE.INTRA.DIHEDRAL.0>
7.88077

>  <SCORE.INTRA.POLAR>
0

>  <SCORE.INTRA.POLAR.0>
0

>  <SCORE.INTRA.REPUL>
0

>  <SCORE.INTRA.REPUL.0>
0

>  <SCORE.INTRA.SOLV>
-2.52638

>  <SCORE.INTRA.SOLV.lig_0>
-63.2542

>  <SCORE.INTRA.VDW>
0.766901

>  <SCORE.INTRA.VDW.0>
-3.15072

>  <SCORE.INTRA.norm>
-0.057447

>  <SCORE.RESTR>
0.0457018

>  <SCORE.RESTR.CAVITY>
0.0457018

>  <SCORE.RESTR.norm>
0.00175776

>  <SCORE.SYSTEM>
0

>  <SCORE.SYSTEM.CONST>
0

>  <SCORE.SYSTEM.DIHEDRAL>
0

>  <SCORE.SYSTEM.SOLV>
0

>  <SCORE.SYSTEM.norm>
0

>  <SCORE.heavy>
26

>  <SCORE.norm>
-0.886761

>  <RMSD>
10.304

$$$$
ligand
 OpenBabel11021811473D
libRbt.so/2013.1/901 2013/11/27
 26 27  0  0  0  0  0  0  0  0999 V2000
   -0.8861  -17.1381   17.6742 C   0  0  0  0  0  0  0  0  0  0  0  0
   -4.5766  -18.7705   17.1215 C   0  0  0  0  0  0  0  0  0  0  0  0
   -3.9312  -18.8380   15.8912 C   0  0  0  0  0  0  0  0  0  0  0  0
   -2.7176  -17.9782   15.5298 C   0  0  0  0  0  0  0  0  0  0  0  0
   -0.6136  -18.3316   16.7540 C   0  0  1  0  0  0  0  0  0  0  0  0
   -7.2481  -21.4504   16.6596 C   0  0  0  0  0  0  0  0  0  0  0  0
   -6.0739  -20.5090   16.3875 C   0  0  0  0  0  0  0  0  0  0  0  0
   -4.4050  -19.7519   14.9554 C   0  0  0  0  0  0  0  0  0  0  0  0
   -1.1317  -19.7683   15.0656 C   0  0  0  0  0  0  0  0  0  0  0  0
    0.5278  -19.1146   16.8784 C   0  0  2  0  0  0  0  0  0  0  0  0
    1.7006  -19.0298   17.8586 C   0  0  0  0  0  0  0  0  0  0  0  0
    1.2892  -18.5058   19.2365 C   0  0  0  0  0  0  0  0  0  0  0  0
   -5.6603  -19.6119   17.3812 N   0  0  0  0  0  0  0  0  0  0  0  0
   -1.4627  -18.6984   15.7900 N   0  0  0  0  0  0  0  0  0  0  0  0
   -5.4302  -20.5429   15.2118 N   0  0  0  0  0  0  0  0  0  0  0  0
   -4.1951  -17.9767   17.9818 O   0  0  0  0  0  0  0  0  0  0  0  0
    2.7185  -15.9808   20.5435 O   0  5  0  0  0  0  0  0  0  0  0  0
    6.8554  -17.6765   20.3589 O   0  0  0  0  0  0  0  0  0  0  0  0
    2.3892  -18.4993   20.1517 O   0  0  0  0  0  0  0  0  0  0  0  0
    4.4994  -17.6123   21.3533 O   0  0  0  0  0  0  0  0  0  0  0  0
    6.3054  -19.1107   22.4404 O   0  5  0  0  0  0  0  0  0  0  0  0
    4.1936  -17.2307   18.8279 O   0  0  0  0  0  0  0  0  0  0  0  0
    5.3155  -19.7152   20.1506 O   0  0  0  0  0  0  0  0  0  0  0  0
    0.4354  -20.3051   15.6106 S   0  0  0  0  0  0  0  0  0  0  0  0
    3.4949  -17.3287   20.1300 P   0  0  2  0  0  0  0  0  0  0  0  0
    5.7829  -18.5621   21.1690 P   0  0  2  0  0  0  0  0  0  0  0  0
  2 16  2  0  0  0  0
  2  3  1  0  0  0  0
  2 13  1  0  0  0  0
  3  8  2  0  0  0  0
  3  4  1  0  0  0  0
  4 14  1  0  0  0  0
  5  1  1  1  0  0  0
  5 14  1  0  0  0  0
  5 10  1  0  0  0  0
  6  7  1  0  0  0  0
  7 13  1  0  0  0  0
  7 15  2  0  0  0  0
  8 15  1  0  0  0  0
  9 14  1  0  0  0  0
  9 24  1  0  0  0  0
 10 24  1  0  0  0  0
 10 11  1  6  0  0  0
 11 12  1  0  0  0  0
 12 19  1  0  0  0  0
 17 25  1  0  0  0  0
 19 25  1  0  0  0  0
 20 26  1  0  0  0  0
 21 26  1  0  0  0  0
 22 25  2  0  0  0  0
 23 26  2  0  0  0  0
 25 20  1  1  0  0  0
 26 18  1  6  0  0  0
M  CHG  2  17  -1  21  -1
M  END
>  <CHROM.1>
94.81833983,32.26158369,177.11035167,-111.98891710,79.70273543,-159.99867813
65.04671413,75.97671071,0.50838887,-18.72476845,18.22353580,2.67908637,0.06692038
-2.03585313

>  <Name>
ligand

>  <RI>
0

>  <Rbt.Current_Directory>
/home/itssahil/PROJECTS/Mol_Feturizer/New_Systems/rnas/3D2X

>  <Rbt.Executable>
rbdock ($Id: //depot/dev/client3/rdock/2013.1/src/exe/rbdock.cxx#4 $)

>  <Rbt.Library>
libRbt.so (2013.1, Build901 2013/11/27)

>  <Rbt.Parameter_File>
/export/apps/rDock/src/rDock_2013.1_src/data/scripts/dock_solv.prm

>  <Rbt.Receptor>
prm/blind_docking_80.prm

>  <SCORE>
-20.2779

>  <SCORE.INTER>
-21.3172

>  <SCORE.INTER.CONST>
1

>  <SCORE.INTER.POLAR>
0

>  <SCORE.INTER.ROT>
8

>  <SCORE.INTER.SOLV>
21.2418

>  <SCORE.INTER.VDW>
-30.2254

>  <SCORE.INTER.norm>
-0.819892

>  <SCORE.INTRA>
1.03931

>  <SCORE.INTRA.DIHEDRAL>
0.100387

>  <SCORE.INTRA.DIHEDRAL.0>
7.88077

>  <SCORE.INTRA.POLAR>
0

>  <SCORE.INTRA.POLAR.0>
0

>  <SCORE.INTRA.REPUL>
0

>  <SCORE.INTRA.REPUL.0>
0

>  <SCORE.INTRA.SOLV>
0.0976979

>  <SCORE.INTRA.SOLV.lig_0>
-63.2542

>  <SCORE.INTRA.VDW>
0.940271

>  <SCORE.INTRA.VDW.0>
-3.15072

>  <SCORE.INTRA.norm>
0.0399736

>  <SCORE.RESTR>
0

>  <SCORE.RESTR.CAVITY>
0

>  <SCORE.RESTR.norm>
0

>  <SCORE.SYSTEM>
0

>  <SCORE.SYSTEM.CONST>
0

>  <SCORE.SYSTEM.DIHEDRAL>
0

>  <SCORE.SYSTEM.SOLV>
0

>  <SCORE.SYSTEM.norm>
0

>  <SCORE.heavy>
26

>  <SCORE.norm>
-0.779919

>  <RMSD>
10.323

$$$$
ligand
 OpenBabel11021811473D
libRbt.so/2013.1/901 2013/11/27
 26 27  0  0  0  0  0  0  0  0999 V2000
   -0.8597  -16.0195   17.8970 C   0  0  0  0  0  0  0  0  0  0  0  0
   -4.6278  -18.7481   17.3095 C   0  0  0  0  0  0  0  0  0  0  0  0
   -3.8201  -17.6363   17.0939 C   0  0  0  0  0  0  0  0  0  0  0  0
   -2.5984  -17.6504   16.1720 C   0  0  0  0  0  0  0  0  0  0  0  0
   -0.6244  -17.5096   17.6327 C   0  0  1  0  0  0  0  0  0  0  0  0
   -7.2449  -17.2690   19.6537 C   0  0  0  0  0  0  0  0  0  0  0  0
   -6.0194  -17.4091   18.7495 C   0  0  0  0  0  0  0  0  0  0  0  0
   -4.1598  -16.4491   17.7347 C   0  0  0  0  0  0  0  0  0  0  0  0
   -1.1407  -19.5264   16.7112 C   0  0  0  0  0  0  0  0  0  0  0  0
    0.4349  -18.2030   18.2058 C   0  0  2  0  0  0  0  0  0  0  0  0
    1.5379  -17.7394   19.1608 C   0  0  0  0  0  0  0  0  0  0  0  0
    2.7725  -18.6433   19.1292 C   0  0  0  0  0  0  0  0  0  0  0  0
   -5.7419  -18.6421   18.1445 N   0  0  0  0  0  0  0  0  0  0  0  0
   -1.4307  -18.2319   16.8498 N   0  0  0  0  0  0  0  0  0  0  0  0
   -5.2159  -16.3602   18.5217 N   0  0  0  0  0  0  0  0  0  0  0  0
   -4.3673  -19.8215   16.7657 O   0  0  0  0  0  0  0  0  0  0  0  0
    5.2174  -20.1388   19.1413 O   0  5  0  0  0  0  0  0  0  0  0  0
    7.8717  -20.0109   19.1037 O   0  0  0  0  0  0  0  0  0  0  0  0
    3.8613  -18.0801   19.8673 O   0  0  0  0  0  0  0  0  0  0  0  0
    6.4459  -18.0237   19.8532 O   0  0  0  0  0  0  0  0  0  0  0  0
    8.9675  -17.6849   19.3890 O   0  5  0  0  0  0  0  0  0  0  0  0
    5.1930  -19.4098   21.6211 O   0  0  0  0  0  0  0  0  0  0  0  0
    8.1869  -19.0114   21.4431 O   0  0  0  0  0  0  0  0  0  0  0  0
    0.3325  -19.8302   17.5934 S   0  0  0  0  0  0  0  0  0  0  0  0
    5.1764  -18.9415   20.2162 P   0  0  2  0  0  0  0  0  0  0  0  0
    7.9392  -18.6162   19.9044 P   0  0  2  0  0  0  0  0  0  0  0  0
  2 16  2  0  0  0  0
  2  3  1  0  0  0  0
  2 13  1  0  0  0  0
  3  8  2  0  0  0  0
  3  4  1  0  0  0  0
  4 14  1  0  0  0  0
  5  1  1  1  0  0  0
  5 14  1  0  0  0  0
  5 10  1  0  0  0  0
  6  7  1  0  0  0  0
  7 13  1  0  0  0  0
  7 15  2  0  0  0  0
  8 15  1  0  0  0  0
  9 14  1  0  0  0  0
  9 24  1  0  0  0  0
 10 24  1  0  0  0  0
 10 11  1  6  0  0  0
 11 12  1  0  0  0  0
 12 19  1  0  0  0  0
 17 25  1  0  0  0  0
 19 25  1  0  0  0  0
 20 26  1  0  0  0  0
 21 26  1  0  0  0  0
 22 25  2  0  0  0  0
 23 26  2  0  0  0  0
 25 20  1  6  0  0  0
 26 18  1  6  0  0  0
M  CHG  2  17  -1  21  -1
M  END
>  <CHROM.1>
-80.83589715,-158.16830961,170.98837828,-84.97295476,168.71131015,-60.54678233
21.83725147,48.09025579,1.35119573,-18.42965400,18.75616360,3.05473266,0.19115072
-2.29884662

>  <Name>
ligand

>  <RI>
0

>  <Rbt.Current_Directory>
/home/itssahil/PROJECTS/Mol_Feturizer/New_Systems/rnas/3D2X

>  <Rbt.Executable>
rbdock ($Id: //depot/dev/client3/rdock/2013.1/src/exe/rbdock.cxx#4 $)

>  <Rbt.Library>
libRbt.so (2013.1, Build901 2013/11/27)

>  <Rbt.Parameter_File>
/export/apps/rDock/src/rDock_2013.1_src/data/scripts/dock_solv.prm

>  <Rbt.Receptor>
prm/blind_docking_80.prm

>  <SCORE>
-20.9117

>  <SCORE.INTER>
-21.053

>  <SCORE.INTER.CONST>
1

>  <SCORE.INTER.POLAR>
0

>  <SCORE.INTER.ROT>
8

>  <SCORE.INTER.SOLV>
18.5094

>  <SCORE.INTER.VDW>
-29.1385

>  <SCORE.INTER.norm>
-0.809732

>  <SCORE.INTRA>
0.141327

>  <SCORE.INTRA.DIHEDRAL>
-0.088989

>  <SCORE.INTRA.DIHEDRAL.0>
7.88077

>  <SCORE.INTRA.POLAR>
0

>  <SCORE.INTRA.POLAR.0>
0

>  <SCORE.INTRA.REPUL>
0

>  <SCORE.INTRA.REPUL.0>
0

>  <SCORE.INTRA.SOLV>
-0.656495

>  <SCORE.INTRA.SOLV.lig_0>
-63.2542

>  <SCORE.INTRA.VDW>
0.514069

>  <SCORE.INTRA.VDW.0>
-3.15072

>  <SCORE.INTRA.norm>
0.00543566

>  <SCORE.RESTR>
0

>  <SCORE.RESTR.CAVITY>
0

>  <SCORE.RESTR.norm>
0

>  <SCORE.SYSTEM>
0

>  <SCORE.SYSTEM.CONST>
0

>  <SCORE.SYSTEM.DIHEDRAL>
0

>  <SCORE.SYSTEM.SOLV>
0

>  <SCORE.SYSTEM.norm>
0

>  <SCORE.heavy>
26

>  <SCORE.norm>
-0.804296

>  <RMSD>
10.421

$$$$
ligand
 OpenBabel11021811473D
libRbt.so/2013.1/901 2013/11/27
 26 27  0  0  0  0  0  0  0  0999 V2000
   -0.9183  -15.6660   18.8342 C   0  0  0  0  0  0  0  0  0  0  0  0
   -4.9997  -17.2457   15.7733 C   0  0  0  0  0  0  0  0  0  0  0  0
   -3.9085  -17.4748   16.6048 C   0  0  0  0  0  0  0  0  0  0  0  0
   -2.6828  -16.5595   16.6554 C   0  0  0  0  0  0  0  0  0  0  0  0
   -0.6558  -16.9235   18.0004 C   0  0  1  0  0  0  0  0  0  0  0  0
   -7.2539  -20.1586   16.7565 C   0  0  0  0  0  0  0  0  0  0  0  0
   -6.0599  -19.2051   16.6898 C   0  0  0  0  0  0  0  0  0  0  0  0
   -3.9509  -18.5816   17.4468 C   0  0  0  0  0  0  0  0  0  0  0  0
   -1.1570  -18.4380   16.3761 C   0  0  0  0  0  0  0  0  0  0  0  0
    0.4431  -17.7436   18.2268 C   0  0  2  0  0  0  0  0  0  0  0  0
    1.5715  -17.6473   19.2569 C   0  0  0  0  0  0  0  0  0  0  0  0
    2.5189  -18.8486   19.2173 C   0  0  0  0  0  0  0  0  0  0  0  0
   -6.0919  -18.1150   15.8100 N   0  0  0  0  0  0  0  0  0  0  0  0
   -1.4742  -17.3133   17.0190 N   0  0  0  0  0  0  0  0  0  0  0  0
   -4.9890  -19.3966   17.4735 N   0  0  0  0  0  0  0  0  0  0  0  0
   -5.0084  -16.2801   15.0095 O   0  0  0  0  0  0  0  0  0  0  0  0
    6.0012  -18.8092   17.3850 O   0  5  0  0  0  0  0  0  0  0  0  0
    5.4060  -17.5241   22.2895 O   0  0  0  0  0  0  0  0  0  0  0  0
    3.6162  -18.6296   18.3253 O   0  0  0  0  0  0  0  0  0  0  0  0
    5.6686  -18.1639   19.8267 O   0  0  0  0  0  0  0  0  0  0  0  0
    5.2944  -20.0136   21.5951 O   0  5  0  0  0  0  0  0  0  0  0  0
    5.1365  -20.5651   19.0734 O   0  0  0  0  0  0  0  0  0  0  0  0
    7.5193  -18.7376   21.4942 O   0  0  0  0  0  0  0  0  0  0  0  0
    0.3579  -19.0043   17.0283 S   0  0  0  0  0  0  0  0  0  0  0  0
    5.1027  -19.1379   18.6792 P   0  0  2  0  0  0  0  0  0  0  0  0
    5.9212  -18.7013   21.3203 P   0  0  2  0  0  0  0  0  0  0  0  0
  2 16  2  0  0  0  0
  2  3  1  0  0  0  0
  2 13  1  0  0  0  0
  3  8  2  0  0  0  0
  3  4  1  0  0  0  0
  4 14  1  0  0  0  0
  5  1  1  1  0  0  0
  5 14  1  0  0  0  0
  5 10  1  0  0  0  0
  6  7  1  0  0  0  0
  7 13  1  0  0  0  0
  7 15  2  0  0  0  0
  8 15  1  0  0  0  0
  9 14  1  0  0  0  0
  9 24  1  0  0  0  0
 10 24  1  0  0  0  0
 10 11  1  6  0  0  0
 11 12  1  0  0  0  0
 12 19  1  0  0  0  0
 17 25  1  0  0  0  0
 19 25  1  0  0  0  0
 20 26  1  0  0  0  0
 21 26  1  0  0  0  0
 22 25  2  0  0  0  0
 23 26  2  0  0  0  0
 25 20  1  1  0  0  0
 26 18  1  1  0  0  0
M  CHG  2  17  -1  21  -1
M  END
>  <CHROM.1>
-150.66248974,175.15726809,90.74075891,-129.06752437,141.50923142,-136.08613570
175.43562278,-139.00769359,0.87659711,-18.37060456,18.34252101,3.07387227
0.35185461,-2.74287054

>  <Name>
ligand

>  <RI>
0

>  <Rbt.Current_Directory>
/home/itssahil/PROJECTS/Mol_Feturizer/New_Systems/rnas/3D2X

>  <Rbt.Executable>
rbdock ($Id: //depot/dev/client3/rdock/2013.1/src/exe/rbdock.cxx#4 $)

>  <Rbt.Library>
libRbt.so (2013.1, Build901 2013/11/27)

>  <Rbt.Parameter_File>
/export/apps/rDock/src/rDock_2013.1_src/data/scripts/dock_solv.prm

>  <Rbt.Receptor>
prm/blind_docking_40.prm

>  <SCORE>
-15.8683

>  <SCORE.INTER>
-21.0532

>  <SCORE.INTER.CONST>
1

>  <SCORE.INTER.POLAR>
0

>  <SCORE.INTER.ROT>
8

>  <SCORE.INTER.SOLV>
21.537

>  <SCORE.INTER.VDW>
-30.1478

>  <SCORE.INTER.norm>
-0.809739

>  <SCORE.INTRA>
5.16993

>  <SCORE.INTRA.DIHEDRAL>
9.00319

>  <SCORE.INTRA.DIHEDRAL.0>
7.88077

>  <SCORE.INTRA.POLAR>
0

>  <SCORE.INTRA.POLAR.0>
0

>  <SCORE.INTRA.REPUL>
0

>  <SCORE.INTRA.REPUL.0>
0

>  <SCORE.INTRA.SOLV>
-0.34272

>  <SCORE.INTRA.SOLV.lig_0>
-63.2542

>  <SCORE.INTRA.VDW>
0.839698

>  <SCORE.INTRA.VDW.0>
-3.15072

>  <SCORE.INTRA.norm>
0.198844

>  <SCORE.RESTR>
0.0150419

>  <SCORE.RESTR.CAVITY>
0.0150419

>  <SCORE.RESTR.norm>
0.000578533

>  <SCORE.SYSTEM>
0

>  <SCORE.SYSTEM.CONST>
0

>  <SCORE.SYSTEM.DIHEDRAL>
0

>  <SCORE.SYSTEM.SOLV>
0

>  <SCORE.SYSTEM.norm>
0

>  <SCORE.heavy>
26

>  <SCORE.norm>
-0.610317

>  <RMSD>
10.426

$$$$
ligand
 OpenBabel11021811473D
libRbt.so/2013.1/901 2013/11/27
 26 27  0  0  0  0  0  0  0  0999 V2000
   -1.7952  -16.8540   17.6567 C   0  0  0  0  0  0  0  0  0  0  0  0
   -5.0372  -18.9077   16.9617 C   0  0  0  0  0  0  0  0  0  0  0  0
   -4.3401  -18.9874   15.7607 C   0  0  0  0  0  0  0  0  0  0  0  0
   -3.2344  -18.0065   15.3634 C   0  0  0  0  0  0  0  0  0  0  0  0
   -1.2385  -17.9957   16.8009 C   0  0  1  0  0  0  0  0  0  0  0  0
   -7.3191  -21.9455   16.6505 C   0  0  0  0  0  0  0  0  0  0  0  0
   -6.2666  -20.8819   16.3340 C   0  0  0  0  0  0  0  0  0  0  0  0
   -4.6540  -20.0278   14.8920 C   0  0  0  0  0  0  0  0  0  0  0  0
   -1.3388  -19.5154   15.1087 C   0  0  0  0  0  0  0  0  0  0  0  0
   -0.0038  -18.5785   17.0601 C   0  0  2  0  0  0  0  0  0  0  0  0
    1.0321  -18.2915   18.1500 C   0  0  0  0  0  0  0  0  0  0  0  0
    2.0606  -19.4142   18.3053 C   0  0  0  0  0  0  0  0  0  0  0  0
   -6.0124  -19.8615   17.2600 N   0  0  0  0  0  0  0  0  0  0  0  0
   -1.9126  -18.5073   15.7671 N   0  0  0  0  0  0  0  0  0  0  0  0
   -5.5776  -20.9243   15.1845 N   0  0  0  0  0  0  0  0  0  0  0  0
   -4.7961  -18.0043   17.7626 O   0  0  0  0  0  0  0  0  0  0  0  0
    5.4832  -19.6484   18.3621 O   0  5  0  0  0  0  0  0  0  0  0  0
    6.5894  -18.0361   22.1760 O   0  0  0  0  0  0  0  0  0  0  0  0
    3.1258  -19.0398   19.1846 O   0  0  0  0  0  0  0  0  0  0  0  0
    5.0172  -19.5701   20.8653 O   0  0  0  0  0  0  0  0  0  0  0  0
    5.5452  -17.2059   19.9596 O   0  5  0  0  0  0  0  0  0  0  0  0
    3.9824  -21.4510   19.4482 O   0  0  0  0  0  0  0  0  0  0  0  0
    4.0848  -17.5052   22.0491 O   0  0  0  0  0  0  0  0  0  0  0  0
    0.2301  -19.7809   15.8221 S   0  0  0  0  0  0  0  0  0  0  0  0
    4.3710  -20.0220   19.4638 P   0  0  2  0  0  0  0  0  0  0  0  0
    5.3299  -18.0240   21.1740 P   0  0  2  0  0  0  0  0  0  0  0  0
  2 16  2  0  0  0  0
  2  3  1  0  0  0  0
  2 13  1  0  0  0  0
  3  8  2  0  0  0  0
  3  4  1  0  0  0  0
  4 14  1  0  0  0  0
  5  1  1  1  0  0  0
  5 14  1  0  0  0  0
  5 10  1  0  0  0  0
  6  7  1  0  0  0  0
  7 13  1  0  0  0  0
  7 15  2  0  0  0  0
  8 15  1  0  0  0  0
  9 14  1  0  0  0  0
  9 24  1  0  0  0  0
 10 24  1  0  0  0  0
 10 11  1  6  0  0  0
 11 12  1  0  0  0  0
 12 19  1  0  0  0  0
 17 25  1  0  0  0  0
 19 25  1  0  0  0  0
 20 26  1  0  0  0  0
 21 26  1  0  0  0  0
 22 25  2  0  0  0  0
 23 26  2  0  0  0  0
 25 20  1  1  0  0  0
 26 18  1  1  0  0  0
M  CHG  2  17  -1  21  -1
M  END
>  <CHROM.1>
92.58910888,163.89573517,171.41455187,-105.92700184,-177.24195206,64.47210438
90.78689002,-150.41633725,0.40311493,-19.12056524,18.07732079,2.77828791
0.21738501,-2.30566581

>  <Name>
ligand

>  <RI>
0

>  <Rbt.Current_Directory>
/home/itssahil/PROJECTS/Mol_Feturizer/New_Systems/rnas/3D2X

>  <Rbt.Executable>
rbdock ($Id: //depot/dev/client3/rdock/2013.1/src/exe/rbdock.cxx#4 $)

>  <Rbt.Library>
libRbt.so (2013.1, Build901 2013/11/27)

>  <Rbt.Parameter_File>
/export/apps/rDock/src/rDock_2013.1_src/data/scripts/dock_solv.prm

>  <Rbt.Receptor>
prm/blind_docking_40.prm

>  <SCORE>
-18.1401

>  <SCORE.INTER>
-17.6952

>  <SCORE.INTER.CONST>
1

>  <SCORE.INTER.POLAR>
0

>  <SCORE.INTER.ROT>
8

>  <SCORE.INTER.SOLV>
24.9413

>  <SCORE.INTER.VDW>
-29.0439

>  <SCORE.INTER.norm>
-0.680585

>  <SCORE.INTRA>
-0.4449

>  <SCORE.INTRA.DIHEDRAL>
-0.457668

>  <SCORE.INTRA.DIHEDRAL.0>
7.88077

>  <SCORE.INTRA.POLAR>
0

>  <SCORE.INTRA.POLAR.0>
0

>  <SCORE.INTRA.REPUL>
0

>  <SCORE.INTRA.REPUL.0>
0

>  <SCORE.INTRA.SOLV>
-0.441939

>  <SCORE.INTRA.SOLV.lig_0>
-63.2542

>  <SCORE.INTRA.VDW>
0.00490366

>  <SCORE.INTRA.VDW.0>
-3.15072

>  <SCORE.INTRA.norm>
-0.0171115

>  <SCORE.RESTR>
0

>  <SCORE.RESTR.CAVITY>
0

>  <SCORE.RESTR.norm>
0

>  <SCORE.SYSTEM>
0

>  <SCORE.SYSTEM.CONST>
0

>  <SCORE.SYSTEM.DIHEDRAL>
0

>  <SCORE.SYSTEM.SOLV>
0

>  <SCORE.SYSTEM.norm>
0

>  <SCORE.heavy>
26

>  <SCORE.norm>
-0.697697

>  <RMSD>
10.434

$$$$
ligand
 OpenBabel11021811473D
libRbt.so/2013.1/901 2013/11/27
 26 27  0  0  0  0  0  0  0  0999 V2000
   -1.5542  -15.5375   19.1825 C   0  0  0  0  0  0  0  0  0  0  0  0
   -4.6634  -18.3627   15.7973 C   0  0  0  0  0  0  0  0  0  0  0  0
   -4.4369  -17.6534   16.9722 C   0  0  0  0  0  0  0  0  0  0  0  0
   -3.3669  -16.5671   17.1058 C   0  0  0  0  0  0  0  0  0  0  0  0
   -1.1964  -16.7027   18.2552 C   0  0  1  0  0  0  0  0  0  0  0  0
   -7.5821  -20.5711   16.8635 C   0  0  0  0  0  0  0  0  0  0  0  0
   -6.4525  -19.5407   16.8995 C   0  0  0  0  0  0  0  0  0  0  0  0
   -5.2432  -17.9355   18.0703 C   0  0  0  0  0  0  0  0  0  0  0  0
   -1.6276  -18.1926   16.5886 C   0  0  0  0  0  0  0  0  0  0  0  0
    0.0211  -17.3674   18.3403 C   0  0  2  0  0  0  0  0  0  0  0  0
    1.2133  -17.1610   19.2782 C   0  0  0  0  0  0  0  0  0  0  0  0
    2.2982  -18.2267   19.1065 C   0  0  0  0  0  0  0  0  0  0  0  0
   -5.6806  -19.3182   15.7514 N   0  0  0  0  0  0  0  0  0  0  0  0
   -2.0381  -17.1573   17.3225 N   0  0  0  0  0  0  0  0  0  0  0  0
   -6.2024  -18.8408   18.0155 N   0  0  0  0  0  0  0  0  0  0  0  0
   -3.9751  -18.1496   14.7990 O   0  0  0  0  0  0  0  0  0  0  0  0
    5.7113  -18.3926   19.2840 O   0  5  0  0  0  0  0  0  0  0  0  0
    6.0097  -20.3247   23.7365 O   0  0  0  0  0  0  0  0  0  0  0  0
    3.2972  -18.1359   20.1270 O   0  0  0  0  0  0  0  0  0  0  0  0
    5.1342  -19.1219   21.6556 O   0  0  0  0  0  0  0  0  0  0  0  0
    6.0786  -21.5202   21.4434 O   0  5  0  0  0  0  0  0  0  0  0  0
    4.2407  -20.4839   19.6648 O   0  0  0  0  0  0  0  0  0  0  0  0
    7.6418  -19.5413   21.9216 O   0  0  0  0  0  0  0  0  0  0  0  0
    0.0034  -18.5677   17.0785 S   0  0  0  0  0  0  0  0  0  0  0  0
    4.5687  -19.1238   20.1502 P   0  0  2  0  0  0  0  0  0  0  0  0
    6.2014  -20.2211   22.1417 P   0  0  2  0  0  0  0  0  0  0  0  0
  2 16  2  0  0  0  0
  2  3  1  0  0  0  0
  2 13  1  0  0  0  0
  3  8  2  0  0  0  0
  3  4  1  0  0  0  0
  4 14  1  0  0  0  0
  5  1  1  1  0  0  0
  5 14  1  0  0  0  0
  5 10  1  0  0  0  0
  6  7  1  0  0  0  0
  7 13  1  0  0  0  0
  7 15  2  0  0  0  0
  8 15  1  0  0  0  0
  9 14  1  0  0  0  0
  9 24  1  0  0  0  0
 10 24  1  0  0  0  0
 10 11  1  6  0  0  0
 11 12  1  0  0  0  0
 12 19  1  0  0  0  0
 17 25  1  0  0  0  0
 19 25  1  0  0  0  0
 20 26  1  0  0  0  0
 21 26  1  0  0  0  0
 22 25  2  0  0  0  0
 23 26  2  0  0  0  0
 25 20  1  1  0  0  0
 26 18  1  1  0  0  0
M  CHG  2  17  -1  21  -1
M  END
>  <CHROM.1>
-80.34049147,174.07115540,-170.94955962,-134.28132010,-178.50730741,-81.06333663
89.81434901,-155.05170024,0.63327950,-18.70662896,18.91208379,-2.85173790
0.32174432,2.66402710

>  <Name>
ligand

>  <RI>
0

>  <Rbt.Current_Directory>
/home/itssahil/PROJECTS/Mol_Feturizer/New_Systems/rnas/3D2X

>  <Rbt.Executable>
rbdock ($Id: //depot/dev/client3/rdock/2013.1/src/exe/rbdock.cxx#4 $)

>  <Rbt.Library>
libRbt.so (2013.1, Build901 2013/11/27)

>  <Rbt.Parameter_File>
/export/apps/rDock/src/rDock_2013.1_src/data/scripts/dock_solv.prm

>  <Rbt.Receptor>
prm/blind_docking_80.prm

>  <SCORE>
-19.133

>  <SCORE.INTER>
-19.9436

>  <SCORE.INTER.CONST>
1

>  <SCORE.INTER.POLAR>
0

>  <SCORE.INTER.ROT>
8

>  <SCORE.INTER.SOLV>
13.4762

>  <SCORE.INTER.VDW>
-26.7211

>  <SCORE.INTER.norm>
-0.767061

>  <SCORE.INTRA>
0.810562

>  <SCORE.INTRA.DIHEDRAL>
-0.404211

>  <SCORE.INTRA.DIHEDRAL.0>
7.88077

>  <SCORE.INTRA.POLAR>
0

>  <SCORE.INTRA.POLAR.0>
0

>  <SCORE.INTRA.REPUL>
0

>  <SCORE.INTRA.REPUL.0>
0

>  <SCORE.INTRA.SOLV>
0.389423

>  <SCORE.INTRA.SOLV.lig_0>
-63.2542

>  <SCORE.INTRA.VDW>
0.817956

>  <SCORE.INTRA.VDW.0>
-3.15072

>  <SCORE.INTRA.norm>
0.0311754

>  <SCORE.RESTR>
0

>  <SCORE.RESTR.CAVITY>
0

>  <SCORE.RESTR.norm>
0

>  <SCORE.SYSTEM>
0

>  <SCORE.SYSTEM.CONST>
0

>  <SCORE.SYSTEM.DIHEDRAL>
0

>  <SCORE.SYSTEM.SOLV>
0

>  <SCORE.SYSTEM.norm>
0

>  <SCORE.heavy>
26

>  <SCORE.norm>
-0.735886

>  <RMSD>
10.449

$$$$
ligand
 OpenBabel11021811473D
libRbt.so/2013.1/901 2013/11/27
 26 27  0  0  0  0  0  0  0  0999 V2000
   -1.8202  -17.7962   17.5006 C   0  0  0  0  0  0  0  0  0  0  0  0
   -4.9944  -17.9247   15.5755 C   0  0  0  0  0  0  0  0  0  0  0  0
   -3.9449  -18.8214   15.4048 C   0  0  0  0  0  0  0  0  0  0  0  0
   -2.6168  -18.4456   14.7433 C   0  0  0  0  0  0  0  0  0  0  0  0
   -1.1066  -18.8456   16.6432 C   0  0  1  0  0  0  0  0  0  0  0  0
   -7.5148  -20.1332   17.3927 C   0  0  0  0  0  0  0  0  0  0  0  0
   -6.2496  -19.6631   16.6734 C   0  0  0  0  0  0  0  0  0  0  0  0
   -4.1101  -20.1175   15.8826 C   0  0  0  0  0  0  0  0  0  0  0  0
   -0.8078  -20.0773   14.7519 C   0  0  0  0  0  0  0  0  0  0  0  0
   -0.0265  -19.5786   17.1202 C   0  0  2  0  0  0  0  0  0  0  0  0
    0.6757  -19.5609   18.4803 C   0  0  0  0  0  0  0  0  0  0  0  0
    1.6896  -18.4222   18.6130 C   0  0  0  0  0  0  0  0  0  0  0  0
   -6.1630  -18.3414   16.2162 N   0  0  0  0  0  0  0  0  0  0  0  0
   -1.4895  -19.1281   15.3948 N   0  0  0  0  0  0  0  0  0  0  0  0
   -5.2192  -20.5005   16.4874 N   0  0  0  0  0  0  0  0  0  0  0  0
   -4.8964  -16.7669   15.1684 O   0  0  0  0  0  0  0  0  0  0  0  0
    2.6463  -16.1851   20.8331 O   0  5  0  0  0  0  0  0  0  0  0  0
    6.7571  -17.7805   20.7285 O   0  0  0  0  0  0  0  0  0  0  0  0
    2.4617  -18.5364   19.8124 O   0  0  0  0  0  0  0  0  0  0  0  0
    4.3290  -17.9741   21.5095 O   0  0  0  0  0  0  0  0  0  0  0  0
    6.1311  -19.5138   22.5439 O   0  5  0  0  0  0  0  0  0  0  0  0
    4.4102  -17.0021   19.1293 O   0  0  0  0  0  0  0  0  0  0  0  0
    5.3697  -19.8470   20.1154 O   0  0  0  0  0  0  0  0  0  0  0  0
    0.4818  -20.5989   15.8034 S   0  0  0  0  0  0  0  0  0  0  0  0
    3.5198  -17.4015   20.2433 P   0  0  2  0  0  0  0  0  0  0  0  0
    5.6801  -18.8227   21.3154 P   0  0  2  0  0  0  0  0  0  0  0  0
  2 16  2  0  0  0  0
  2  3  1  0  0  0  0
  2 13  1  0  0  0  0
  3  8  2  0  0  0  0
  3  4  1  0  0  0  0
  4 14  1  0  0  0  0
  5  1  1  1  0  0  0
  5 14  1  0  0  0  0
  5 10  1  0  0  0  0
  6  7  1  0  0  0  0
  7 13  1  0  0  0  0
  7 15  2  0  0  0  0
  8 15  1  0  0  0  0
  9 14  1  0  0  0  0
  9 24  1  0  0  0  0
 10 24  1  0  0  0  0
 10 11  1  6  0  0  0
 11 12  1  0  0  0  0
 12 19  1  0  0  0  0
 17 25  1  0  0  0  0
 19 25  1  0  0  0  0
 20 26  1  0  0  0  0
 21 26  1  0  0  0  0
 22 25  2  0  0  0  0
 23 26  2  0  0  0  0
 25 20  1  1  0  0  0
 26 18  1  6  0  0  0
M  CHG  2  17  -1  21  -1
M  END
>  <CHROM.1>
143.39209969,-81.47905262,-171.91309164,-67.92565439,-175.24703718,-158.06626268
76.65572646,67.40244493,0.37229705,-18.74022269,18.13804605,2.71648783,0.22314439
-2.18226538

>  <Name>
ligand

>  <RI>
0

>  <Rbt.Current_Directory>
/home/itssahil/PROJECTS/Mol_Feturizer/New_Systems/rnas/3D2X

>  <Rbt.Executable>
rbdock ($Id: //depot/dev/client3/rdock/2013.1/src/exe/rbdock.cxx#4 $)

>  <Rbt.Library>
libRbt.so (2013.1, Build901 2013/11/27)

>  <Rbt.Parameter_File>
/export/apps/rDock/src/rDock_2013.1_src/data/scripts/dock_solv.prm

>  <Rbt.Receptor>
prm/blind_docking_40.prm

>  <SCORE>
-22.2611

>  <SCORE.INTER>
-20.593

>  <SCORE.INTER.CONST>
1

>  <SCORE.INTER.POLAR>
0

>  <SCORE.INTER.ROT>
8

>  <SCORE.INTER.SOLV>
21.2434

>  <SCORE.INTER.VDW>
-29.7431

>  <SCORE.INTER.norm>
-0.79204

>  <SCORE.INTRA>
-1.66806

>  <SCORE.INTRA.DIHEDRAL>
-1.36916

>  <SCORE.INTRA.DIHEDRAL.0>
7.88077

>  <SCORE.INTRA.POLAR>
0

>  <SCORE.INTRA.POLAR.0>
0

>  <SCORE.INTRA.REPUL>
0

>  <SCORE.INTRA.REPUL.0>
0

>  <SCORE.INTRA.SOLV>
-1.27761

>  <SCORE.INTRA.SOLV.lig_0>
-63.2542

>  <SCORE.INTRA.VDW>
-0.34468

>  <SCORE.INTRA.VDW.0>
-3.15072

>  <SCORE.INTRA.norm>
-0.0641563

>  <SCORE.RESTR>
0

>  <SCORE.RESTR.CAVITY>
0

>  <SCORE.RESTR.norm>
0

>  <SCORE.SYSTEM>
0

>  <SCORE.SYSTEM.CONST>
0

>  <SCORE.SYSTEM.DIHEDRAL>
0

>  <SCORE.SYSTEM.SOLV>
0

>  <SCORE.SYSTEM.norm>
0

>  <SCORE.heavy>
26

>  <SCORE.norm>
-0.856196

>  <RMSD>
10.460

$$$$
ligand
 OpenBabel11021811473D
libRbt.so/2013.1/901 2013/11/27
 26 27  0  0  0  0  0  0  0  0999 V2000
   -0.7099  -20.0437   15.9925 C   0  0  0  0  0  0  0  0  0  0  0  0
   -4.4361  -18.6645   16.9378 C   0  0  0  0  0  0  0  0  0  0  0  0
   -3.8569  -18.7845   15.6789 C   0  0  0  0  0  0  0  0  0  0  0  0
   -2.6461  -17.9637   15.2285 C   0  0  0  0  0  0  0  0  0  0  0  0
   -0.8190  -18.6925   16.7053 C   0  0  1  0  0  0  0  0  0  0  0  0
   -7.1826  -21.2974   16.6995 C   0  0  0  0  0  0  0  0  0  0  0  0
   -6.0049  -20.3912   16.3376 C   0  0  0  0  0  0  0  0  0  0  0  0
   -4.3971  -19.7163   14.7984 C   0  0  0  0  0  0  0  0  0  0  0  0
   -1.6906  -16.6124   17.0162 C   0  0  0  0  0  0  0  0  0  0  0  0
    0.0073  -18.3497   17.7688 C   0  0  2  0  0  0  0  0  0  0  0  0
    1.1378  -19.1243   18.4510 C   0  0  0  0  0  0  0  0  0  0  0  0
    2.1874  -18.2101   19.0873 C   0  0  0  0  0  0  0  0  0  0  0  0
   -5.5220  -19.4731   17.2795 N   0  0  0  0  0  0  0  0  0  0  0  0
   -1.7025  -17.7604   16.3373 N   0  0  0  0  0  0  0  0  0  0  0  0
   -5.4238  -20.4760   15.1323 N   0  0  0  0  0  0  0  0  0  0  0  0
   -3.9943  -17.8530   17.7515 O   0  0  0  0  0  0  0  0  0  0  0  0
    5.0903  -19.3531   21.4780 O   0  5  0  0  0  0  0  0  0  0  0  0
    5.9019  -18.8040   17.0576 O   0  0  0  0  0  0  0  0  0  0  0  0
    3.1550  -18.9533   19.8349 O   0  0  0  0  0  0  0  0  0  0  0  0
    5.4825  -17.9085   19.4168 O   0  0  0  0  0  0  0  0  0  0  0  0
    7.6535  -19.2213   18.9150 O   0  5  0  0  0  0  0  0  0  0  0  0
    3.9889  -17.0204   21.3134 O   0  0  0  0  0  0  0  0  0  0  0  0
    5.3871  -20.4246   18.9758 O   0  0  0  0  0  0  0  0  0  0  0  0
   -0.5027  -16.7659   18.2834 S   0  0  0  0  0  0  0  0  0  0  0  0
    4.3970  -18.2280   20.5593 P   0  0  2  0  0  0  0  0  0  0  0  0
    6.2108  -19.0930   18.6106 P   0  0  2  0  0  0  0  0  0  0  0  0
  2 16  2  0  0  0  0
  2  3  1  0  0  0  0
  2 13  1  0  0  0  0
  3  8  2  0  0  0  0
  3  4  1  0  0  0  0
  4 14  1  0  0  0  0
  5  1  1  6  0  0  0
  5 14  1  0  0  0  0
  5 10  1  0  0  0  0
  6  7  1  0  0  0  0
  7 13  1  0  0  0  0
  7 15  2  0  0  0  0
  8 15  1  0  0  0  0
  9 14  1  0  0  0  0
  9 24  1  0  0  0  0
 10 24  1  0  0  0  0
 10 11  1  1  0  0  0
 11 12  1  0  0  0  0
 12 19  1  0  0  0  0
 17 25  1  0  0  0  0
 19 25  1  0  0  0  0
 20 26  1  0  0  0  0
 21 26  1  0  0  0  0
 22 25  2  0  0  0  0
 23 26  2  0  0  0  0
 25 20  1  6  0  0  0
 26 18  1  6  0  0  0
M  CHG  2  17  -1  21  -1
M  END
>  <CHROM.1>
36.68831096,152.66856347,173.94584094,80.87514210,177.79116925,47.95916712
170.77394399,123.43016287,0.70000935,-18.72103693,18.02230298,-2.86665872
-0.15408001,0.90106366

>  <Name>
ligand

>  <RI>
0

>  <Rbt.Current_Directory>
/home/itssahil/PROJECTS/Mol_Feturizer/New_Systems/rnas/3D2X

>  <Rbt.Executable>
rbdock ($Id: //depot/dev/client3/rdock/2013.1/src/exe/rbdock.cxx#4 $)

>  <Rbt.Library>
libRbt.so (2013.1, Build901 2013/11/27)

>  <Rbt.Parameter_File>
/export/apps/rDock/src/rDock_2013.1_src/data/scripts/dock_solv.prm

>  <Rbt.Receptor>
prm/blind_docking_100.prm

>  <SCORE>
-22.4617

>  <SCORE.INTER>
-22.8273

>  <SCORE.INTER.CONST>
1

>  <SCORE.INTER.POLAR>
0

>  <SCORE.INTER.ROT>
8

>  <SCORE.INTER.SOLV>
20.5582

>  <SCORE.INTER.VDW>
-31.0043

>  <SCORE.INTER.norm>
-0.877972

>  <SCORE.INTRA>
0.365557

>  <SCORE.INTRA.DIHEDRAL>
-0.187943

>  <SCORE.INTRA.DIHEDRAL.0>
7.88077

>  <SCORE.INTRA.POLAR>
0

>  <SCORE.INTRA.POLAR.0>
0

>  <SCORE.INTRA.REPUL>
0

>  <SCORE.INTRA.REPUL.0>
0

>  <SCORE.INTRA.SOLV>
0.595517

>  <SCORE.INTRA.SOLV.lig_0>
-63.2542

>  <SCORE.INTRA.VDW>
0.16177

>  <SCORE.INTRA.VDW.0>
-3.15072

>  <SCORE.INTRA.norm>
0.0140599

>  <SCORE.RESTR>
0

>  <SCORE.RESTR.CAVITY>
0

>  <SCORE.RESTR.norm>
0

>  <SCORE.SYSTEM>
0

>  <SCORE.SYSTEM.CONST>
0

>  <SCORE.SYSTEM.DIHEDRAL>
0

>  <SCORE.SYSTEM.SOLV>
0

>  <SCORE.SYSTEM.norm>
0

>  <SCORE.heavy>
26

>  <SCORE.norm>
-0.863912

>  <RMSD>
10.497

$$$$
ligand
 OpenBabel11021811473D
libRbt.so/2013.1/901 2013/11/27
 26 27  0  0  0  0  0  0  0  0999 V2000
    2.9629  -18.9753   18.9344 C   0  0  0  0  0  0  0  0  0  0  0  0
    0.6820  -14.2466   20.1762 C   0  0  0  0  0  0  0  0  0  0  0  0
    1.3452  -15.3046   20.7889 C   0  0  0  0  0  0  0  0  0  0  0  0
    2.1260  -16.3693   20.0147 C   0  0  0  0  0  0  0  0  0  0  0  0
    1.5917  -18.3511   18.6592 C   0  0  1  0  0  0  0  0  0  0  0  0
   -0.6752  -12.4086   23.2278 C   0  0  0  0  0  0  0  0  0  0  0  0
    0.0334  -13.4437   22.3529 C   0  0  0  0  0  0  0  0  0  0  0  0
    1.3115  -15.3790   22.1778 C   0  0  0  0  0  0  0  0  0  0  0  0
    0.0030  -16.7350   18.8771 C   0  0  0  0  0  0  0  0  0  0  0  0
    0.6340  -18.9872   17.8784 C   0  0  2  0  0  0  0  0  0  0  0  0
    0.6619  -20.3383   17.1593 C   0  0  0  0  0  0  0  0  0  0  0  0
    0.3357  -20.2267   15.6681 C   0  0  0  0  0  0  0  0  0  0  0  0
    0.0166  -13.3010   20.9590 N   0  0  0  0  0  0  0  0  0  0  0  0
    1.2311  -17.1684   19.1652 N   0  0  0  0  0  0  0  0  0  0  0  0
    0.6798  -14.4789   22.9081 N   0  0  0  0  0  0  0  0  0  0  0  0
    0.6820  -14.1385   18.9498 O   0  0  0  0  0  0  0  0  0  0  0  0
   -1.5363  -22.1846   16.5864 O   0  5  0  0  0  0  0  0  0  0  0  0
   -3.7104  -18.3958   14.9845 O   0  0  0  0  0  0  0  0  0  0  0  0
   -1.0474  -19.9329   15.4483 O   0  0  0  0  0  0  0  0  0  0  0  0
   -3.3440  -20.3904   16.5436 O   0  0  0  0  0  0  0  0  0  0  0  0
   -5.5029  -20.2557   15.1261 O   0  5  0  0  0  0  0  0  0  0  0  0
   -2.6953  -21.5792   14.3567 O   0  0  0  0  0  0  0  0  0  0  0  0
   -5.1367  -18.6547   17.0986 O   0  0  0  0  0  0  0  0  0  0  0  0
   -0.7253  -17.9009   17.8042 S   0  0  0  0  0  0  0  0  0  0  0  0
   -2.1873  -21.0534   15.6446 P   0  0  2  0  0  0  0  0  0  0  0  0
   -4.4916  -19.4815   15.8799 P   0  0  2  0  0  0  0  0  0  0  0  0
  2 16  2  0  0  0  0
  2  3  1  0  0  0  0
  2 13  1  0  0  0  0
  3  8  2  0  0  0  0
  3  4  1  0  0  0  0
  4 14  1  0  0  0  0
  5  1  1  1  0  0  0
  5 14  1  0  0  0  0
  5 10  1  0  0  0  0
  6  7  1  0  0  0  0
  7 13  1  0  0  0  0
  7 15  2  0  0  0  0
  8 15  1  0  0  0  0
  9 14  1  0  0  0  0
  9 24  1  0  0  0  0
 10 24  1  0  0  0  0
 10 11  1  6  0  0  0
 11 12  1  0  0  0  0
 12 19  1  0  0  0  0
 17 25  1  0  0  0  0
 19 25  1  0  0  0  0
 20 26  1  0  0  0  0
 21 26  1  0  0  0  0
 22 25  2  0  0  0  0
 23 26  2  0  0  0  0
 25 20  1  1  0  0  0
 26 18  1  6  0  0  0
M  CHG  2  17  -1  21  -1
M  END
>  <CHROM.1>
-65.02372915,-125.67136464,-71.53068058,-162.73103219,-74.44375402,-164.11313250
20.42452453,-51.12238047,-0.98582473,-18.00947863,17.99669647,-1.11973529
0.24613434,-2.49432586

>  <Name>
ligand

>  <RI>
0

>  <Rbt.Current_Directory>
/home/itssahil/PROJECTS/Mol_Feturizer/New_Systems/rnas/3D2X

>  <Rbt.Executable>
rbdock ($Id: //depot/dev/client3/rdock/2013.1/src/exe/rbdock.cxx#4 $)

>  <Rbt.Library>
libRbt.so (2013.1, Build901 2013/11/27)

>  <Rbt.Parameter_File>
/export/apps/rDock/src/rDock_2013.1_src/data/scripts/dock_solv.prm

>  <Rbt.Receptor>
prm/blind_docking_100.prm

>  <SCORE>
-19.8344

>  <SCORE.INTER>
-20.5295

>  <SCORE.INTER.CONST>
1

>  <SCORE.INTER.POLAR>
0

>  <SCORE.INTER.ROT>
8

>  <SCORE.INTER.SOLV>
16.5102

>  <SCORE.INTER.VDW>
-28.123

>  <SCORE.INTER.norm>
-0.789595

>  <SCORE.INTRA>
0.695057

>  <SCORE.INTRA.DIHEDRAL>
1.66872

>  <SCORE.INTRA.DIHEDRAL.0>
7.88077

>  <SCORE.INTRA.POLAR>
0

>  <SCORE.INTRA.POLAR.0>
0

>  <SCORE.INTRA.REPUL>
0

>  <SCORE.INTRA.REPUL.0>
0

>  <SCORE.INTRA.SOLV>
-1.4379

>  <SCORE.INTRA.SOLV.lig_0>
-63.2542

>  <SCORE.INTRA.VDW>
0.579649

>  <SCORE.INTRA.VDW.0>
-3.15072

>  <SCORE.INTRA.norm>
0.026733

>  <SCORE.RESTR>
0

>  <SCORE.RESTR.CAVITY>
0

>  <SCORE.RESTR.norm>
0

>  <SCORE.SYSTEM>
0

>  <SCORE.SYSTEM.CONST>
0

>  <SCORE.SYSTEM.DIHEDRAL>
0

>  <SCORE.SYSTEM.SOLV>
0

>  <SCORE.SYSTEM.norm>
0

>  <SCORE.heavy>
26

>  <SCORE.norm>
-0.762862

>  <RMSD>
10.525

$$$$
ligand
 OpenBabel11021811473D
libRbt.so/2013.1/901 2013/11/27
 26 27  0  0  0  0  0  0  0  0999 V2000
    1.9667  -18.4588   18.8264 C   0  0  0  0  0  0  0  0  0  0  0  0
    0.6425  -14.4429   22.2307 C   0  0  0  0  0  0  0  0  0  0  0  0
    0.9489  -14.6432   20.8888 C   0  0  0  0  0  0  0  0  0  0  0  0
    1.4186  -15.9863   20.3248 C   0  0  0  0  0  0  0  0  0  0  0  0
    0.7039  -17.6157   18.6264 C   0  0  1  0  0  0  0  0  0  0  0  0
   -0.4473  -10.7905   22.1631 C   0  0  0  0  0  0  0  0  0  0  0  0
    0.0606  -12.1624   21.7171 C   0  0  0  0  0  0  0  0  0  0  0  0
    0.7964  -13.5694   20.0175 C   0  0  0  0  0  0  0  0  0  0  0  0
   -0.6717  -15.8593   19.0802 C   0  0  0  0  0  0  0  0  0  0  0  0
   -0.2860  -17.9724   17.7186 C   0  0  2  0  0  0  0  0  0  0  0  0
   -0.3957  -19.1717   16.7736 C   0  0  0  0  0  0  0  0  0  0  0  0
   -1.7913  -19.3249   16.1643 C   0  0  0  0  0  0  0  0  0  0  0  0
    0.1922  -13.1922   22.6582 N   0  0  0  0  0  0  0  0  0  0  0  0
    0.4733  -16.4989   19.3225 N   0  0  0  0  0  0  0  0  0  0  0  0
    0.3695  -12.3913   20.4326 N   0  0  0  0  0  0  0  0  0  0  0  0
    0.7627  -15.3624   23.0406 O   0  0  0  0  0  0  0  0  0  0  0  0
   -3.3911  -22.6850   14.9575 O   0  5  0  0  0  0  0  0  0  0  0  0
   -6.5292  -20.7416   14.4751 O   0  0  0  0  0  0  0  0  0  0  0  0
   -1.9928  -20.6339   15.6226 O   0  0  0  0  0  0  0  0  0  0  0  0
   -4.5365  -20.7050   16.0787 O   0  0  0  0  0  0  0  0  0  0  0  0
   -6.1763  -22.7044   16.1230 O   0  5  0  0  0  0  0  0  0  0  0  0
   -3.6612  -20.4585   13.6725 O   0  0  0  0  0  0  0  0  0  0  0  0
   -6.9062  -20.4005   16.9876 O   0  0  0  0  0  0  0  0  0  0  0  0
   -1.4878  -16.7144   17.7981 S   0  0  0  0  0  0  0  0  0  0  0  0
   -3.4082  -21.0760   14.9946 P   0  0  2  0  0  0  0  0  0  0  0  0
   -6.0430  -21.2437   15.9250 P   0  0  2  0  0  0  0  0  0  0  0  0
  2 16  2  0  0  0  0
  2  3  1  0  0  0  0
  2 13  1  0  0  0  0
  3  8  2  0  0  0  0
  3  4  1  0  0  0  0
  4 14  1  0  0  0  0
  5  1  1  1  0  0  0
  5 14  1  0  0  0  0
  5 10  1  0  0  0  0
  6  7  1  0  0  0  0
  7 13  1  0  0  0  0
  7 15  2  0  0  0  0
  8 15  1  0  0  0  0
  9 14  1  0  0  0  0
  9 24  1  0  0  0  0
 10 24  1  0  0  0  0
 10 11  1  6  0  0  0
 11 12  1  0  0  0  0
 12 19  1  0  0  0  0
 17 25  1  0  0  0  0
 19 25  1  0  0  0  0
 20 26  1  0  0  0  0
 21 26  1  0  0  0  0
 22 25  2  0  0  0  0
 23 26  2  0  0  0  0
 25 20  1  1  0  0  0
 26 18  1  6  0  0  0
M  CHG  2  17  -1  21  -1
M  END
>  <CHROM.1>
118.21595814,167.82839903,-162.56284078,175.79093337,176.63988344,-56.43399476
-161.70268966,-56.17345311,-1.91884954,-17.93077159,17.95602028,-1.05556045
0.02728690,-2.48747921

>  <Name>
ligand

>  <RI>
0

>  <Rbt.Current_Directory>
/home/itssahil/PROJECTS/Mol_Feturizer/New_Systems/rnas/3D2X

>  <Rbt.Executable>
rbdock ($Id: //depot/dev/client3/rdock/2013.1/src/exe/rbdock.cxx#4 $)

>  <Rbt.Library>
libRbt.so (2013.1, Build901 2013/11/27)

>  <Rbt.Parameter_File>
/export/apps/rDock/src/rDock_2013.1_src/data/scripts/dock_solv.prm

>  <Rbt.Receptor>
prm/blind_docking_40.prm

>  <SCORE>
-16.5045

>  <SCORE.INTER>
-16.3725

>  <SCORE.INTER.CONST>
1

>  <SCORE.INTER.POLAR>
0

>  <SCORE.INTER.ROT>
8

>  <SCORE.INTER.SOLV>
15.0391

>  <SCORE.INTER.VDW>
-24.8613

>  <SCORE.INTER.norm>
-0.62971

>  <SCORE.INTRA>
-0.132066

>  <SCORE.INTRA.DIHEDRAL>
-1.62217

>  <SCORE.INTRA.DIHEDRAL.0>
7.88077

>  <SCORE.INTRA.POLAR>
0

>  <SCORE.INTRA.POLAR.0>
0

>  <SCORE.INTRA.REPUL>
0

>  <SCORE.INTRA.REPUL.0>
0

>  <SCORE.INTRA.SOLV>
-1.72691

>  <SCORE.INTRA.SOLV.lig_0>
-63.2542

>  <SCORE.INTRA.VDW>
1.54247

>  <SCORE.INTRA.VDW.0>
-3.15072

>  <SCORE.INTRA.norm>
-0.00507946

>  <SCORE.RESTR>
0

>  <SCORE.RESTR.CAVITY>
0

>  <SCORE.RESTR.norm>
0

>  <SCORE.SYSTEM>
0

>  <SCORE.SYSTEM.CONST>
0

>  <SCORE.SYSTEM.DIHEDRAL>
0

>  <SCORE.SYSTEM.SOLV>
0

>  <SCORE.SYSTEM.norm>
0

>  <SCORE.heavy>
26

>  <SCORE.norm>
-0.634789

>  <RMSD>
10.558

$$$$
ligand
 OpenBabel11021811473D
libRbt.so/2013.1/901 2013/11/27
 26 27  0  0  0  0  0  0  0  0999 V2000
   -0.8032  -16.4286   18.3055 C   0  0  0  0  0  0  0  0  0  0  0  0
   -4.6631  -18.2082   17.5581 C   0  0  0  0  0  0  0  0  0  0  0  0
   -3.8389  -18.3403   16.4454 C   0  0  0  0  0  0  0  0  0  0  0  0
   -2.5878  -17.4881   16.2195 C   0  0  0  0  0  0  0  0  0  0  0  0
   -0.5470  -17.7462   17.5680 C   0  0  1  0  0  0  0  0  0  0  0  0
   -7.2240  -20.9451   16.8623 C   0  0  0  0  0  0  0  0  0  0  0  0
   -6.0257  -20.0065   16.7137 C   0  0  0  0  0  0  0  0  0  0  0  0
   -4.1622  -19.3143   15.5061 C   0  0  0  0  0  0  0  0  0  0  0  0
   -1.0619  -19.3812   16.0698 C   0  0  0  0  0  0  0  0  0  0  0  0
    0.5554  -18.5455   17.8457 C   0  0  2  0  0  0  0  0  0  0  0  0
    1.6938  -18.3696   18.8539 C   0  0  0  0  0  0  0  0  0  0  0  0
    2.7545  -19.4683   18.7531 C   0  0  0  0  0  0  0  0  0  0  0  0
   -5.7705  -19.0466   17.7020 N   0  0  0  0  0  0  0  0  0  0  0  0
   -1.3745  -18.2107   16.6278 N   0  0  0  0  0  0  0  0  0  0  0  0
   -5.2114  -20.1019   15.6527 N   0  0  0  0  0  0  0  0  0  0  0  0
   -4.4191  -17.3598   18.4162 O   0  0  0  0  0  0  0  0  0  0  0  0
    4.3048  -16.7964   19.0076 O   0  5  0  0  0  0  0  0  0  0  0  0
    7.9631  -17.7253   22.0861 O   0  0  0  0  0  0  0  0  0  0  0  0
    3.8420  -19.2401   19.6548 O   0  0  0  0  0  0  0  0  0  0  0  0
    5.8541  -17.9643   20.6584 O   0  0  0  0  0  0  0  0  0  0  0  0
    7.4424  -19.9856   20.9406 O   0  5  0  0  0  0  0  0  0  0  0  0
    5.8777  -18.6762   18.1867 O   0  0  0  0  0  0  0  0  0  0  0  0
    8.1527  -17.9553   19.5401 O   0  0  0  0  0  0  0  0  0  0  0  0
    0.4602  -19.8946   16.7483 S   0  0  0  0  0  0  0  0  0  0  0  0
    5.0246  -18.2055   19.3021 P   0  0  2  0  0  0  0  0  0  0  0  0
    7.3561  -18.5130   20.8205 P   0  0  2  0  0  0  0  0  0  0  0  0
  2 16  2  0  0  0  0
  2  3  1  0  0  0  0
  2 13  1  0  0  0  0
  3  8  2  0  0  0  0
  3  4  1  0  0  0  0
  4 14  1  0  0  0  0
  5  1  1  1  0  0  0
  5 14  1  0  0  0  0
  5 10  1  0  0  0  0
  6  7  1  0  0  0  0
  7 13  1  0  0  0  0
  7 15  2  0  0  0  0
  8 15  1  0  0  0  0
  9 14  1  0  0  0  0
  9 24  1  0  0  0  0
 10 24  1  0  0  0  0
 10 11  1  6  0  0  0
 11 12  1  0  0  0  0
 12 19  1  0  0  0  0
 17 25  1  0  0  0  0
 19 25  1  0  0  0  0
 20 26  1  0  0  0  0
 21 26  1  0  0  0  0
 22 25  2  0  0  0  0
 23 26  2  0  0  0  0
 25 20  1  1  0  0  0
 26 18  1  1  0  0  0
M  CHG  2  17  -1  21  -1
M  END
>  <CHROM.1>
98.54916179,-176.35579932,176.80755023,-120.79020863,-80.44008923,-136.83914852
55.98036357,164.13299352,1.23188716,-18.62608332,18.35356877,2.92609890,0.22152353
-2.55565006

>  <Name>
ligand

>  <RI>
0

>  <Rbt.Current_Directory>
/home/itssahil/PROJECTS/Mol_Feturizer/New_Systems/rnas/3D2X

>  <Rbt.Executable>
rbdock ($Id: //depot/dev/client3/rdock/2013.1/src/exe/rbdock.cxx#4 $)

>  <Rbt.Library>
libRbt.so (2013.1, Build901 2013/11/27)

>  <Rbt.Parameter_File>
/export/apps/rDock/src/rDock_2013.1_src/data/scripts/dock_solv.prm

>  <Rbt.Receptor>
prm/blind_docking_80.prm

>  <SCORE>
-17.6711

>  <SCORE.INTER>
-19.3719

>  <SCORE.INTER.CONST>
1

>  <SCORE.INTER.POLAR>
0

>  <SCORE.INTER.ROT>
8

>  <SCORE.INTER.SOLV>
21.3929

>  <SCORE.INTER.VDW>
-28.9789

>  <SCORE.INTER.norm>
-0.745073

>  <SCORE.INTRA>
1.70052

>  <SCORE.INTRA.DIHEDRAL>
1.03832

>  <SCORE.INTRA.DIHEDRAL.0>
7.88077

>  <SCORE.INTRA.POLAR>
0

>  <SCORE.INTRA.POLAR.0>
0

>  <SCORE.INTRA.REPUL>
0

>  <SCORE.INTRA.REPUL.0>
0

>  <SCORE.INTRA.SOLV>
1.0297

>  <SCORE.INTRA.SOLV.lig_0>
-63.2542

>  <SCORE.INTRA.VDW>
0.666509

>  <SCORE.INTRA.VDW.0>
-3.15072

>  <SCORE.INTRA.norm>
0.0654046

>  <SCORE.RESTR>
0.000291483

>  <SCORE.RESTR.CAVITY>
0.000291483

>  <SCORE.RESTR.norm>
1.12109e-05

>  <SCORE.SYSTEM>
0

>  <SCORE.SYSTEM.CONST>
0

>  <SCORE.SYSTEM.DIHEDRAL>
0

>  <SCORE.SYSTEM.SOLV>
0

>  <SCORE.SYSTEM.norm>
0

>  <SCORE.heavy>
26

>  <SCORE.norm>
-0.679657

>  <RMSD>
10.562

$$$$
ligand
 OpenBabel11021811473D
libRbt.so/2013.1/901 2013/11/27
 26 27  0  0  0  0  0  0  0  0999 V2000
   -1.7284  -20.7670   15.7989 C   0  0  0  0  0  0  0  0  0  0  0  0
   -1.3778  -23.6292   17.8494 C   0  0  0  0  0  0  0  0  0  0  0  0
   -0.3721  -22.7750   18.2893 C   0  0  0  0  0  0  0  0  0  0  0  0
    0.4879  -21.9317   17.3450 C   0  0  0  0  0  0  0  0  0  0  0  0
   -0.8503  -19.9541   16.7548 C   0  0  1  0  0  0  0  0  0  0  0  0
   -2.6937  -24.9365   21.1799 C   0  0  0  0  0  0  0  0  0  0  0  0
   -1.8623  -24.1776   20.1446 C   0  0  0  0  0  0  0  0  0  0  0  0
   -0.1584  -22.6703   19.6601 C   0  0  0  0  0  0  0  0  0  0  0  0
    0.8299  -19.7043   18.2706 C   0  0  0  0  0  0  0  0  0  0  0  0
   -1.0507  -18.5952   16.9664 C   0  0  2  0  0  0  0  0  0  0  0  0
   -2.0877  -17.6314   16.3840 C   0  0  0  0  0  0  0  0  0  0  0  0
   -3.1063  -17.1538   17.4216 C   0  0  0  0  0  0  0  0  0  0  0  0
   -2.1364  -24.3418   18.7803 N   0  0  0  0  0  0  0  0  0  0  0  0
    0.1476  -20.5055   17.4511 N   0  0  0  0  0  0  0  0  0  0  0  0
   -0.8821  -23.3484   20.5313 N   0  0  0  0  0  0  0  0  0  0  0  0
   -1.6040  -23.7568   16.6459 O   0  0  0  0  0  0  0  0  0  0  0  0
   -5.7471  -17.0962   16.1592 O   0  5  0  0  0  0  0  0  0  0  0  0
   -4.6899  -21.7214   16.5596 O   0  0  0  0  0  0  0  0  0  0  0  0
   -4.0470  -18.1800   17.7528 O   0  0  0  0  0  0  0  0  0  0  0  0
   -4.7521  -19.3650   15.5661 O   0  0  0  0  0  0  0  0  0  0  0  0
   -6.7149  -20.9904   15.1252 O   0  5  0  0  0  0  0  0  0  0  0  0
   -6.4036  -19.1869   17.5301 O   0  0  0  0  0  0  0  0  0  0  0  0
   -4.4260  -21.3838   14.0323 O   0  0  0  0  0  0  0  0  0  0  0  0
    0.1933  -18.0925   18.0768 S   0  0  0  0  0  0  0  0  0  0  0  0
   -5.3080  -18.5035   16.8050 P   0  0  2  0  0  0  0  0  0  0  0  0
   -5.2517  -20.8717   15.3134 P   0  0  2  0  0  0  0  0  0  0  0  0
  2 16  2  0  0  0  0
  2  3  1  0  0  0  0
  2 13  1  0  0  0  0
  3  8  2  0  0  0  0
  3  4  1  0  0  0  0
  4 14  1  0  0  0  0
  5  1  1  1  0  0  0
  5 14  1  0  0  0  0
  5 10  1  0  0  0  0
  6  7  1  0  0  0  0
  7 13  1  0  0  0  0
  7 15  2  0  0  0  0
  8 15  1  0  0  0  0
  9 14  1  0  0  0  0
  9 24  1  0  0  0  0
 10 24  1  0  0  0  0
 10 11  1  6  0  0  0
 11 12  1  0  0  0  0
 12 19  1  0  0  0  0
 17 25  1  0  0  0  0
 19 25  1  0  0  0  0
 20 26  1  0  0  0  0
 21 26  1  0  0  0  0
 22 25  2  0  0  0  0
 23 26  2  0  0  0  0
 25 20  1  6  0  0  0
 26 18  1  1  0  0  0
M  CHG  2  17  -1  21  -1
M  END
>  <CHROM.1>
108.97602544,110.98135643,-73.79984158,-85.37929738,-80.23856031,-130.75181187
-33.48851014,-66.48722493,-2.77424790,-20.56887059,17.25012774,-0.76204440
-0.38775783,-0.25992967

>  <Name>
ligand

>  <RI>
0

>  <Rbt.Current_Directory>
/home/itssahil/PROJECTS/Mol_Feturizer/New_Systems/rnas/3D2X

>  <Rbt.Executable>
rbdock ($Id: //depot/dev/client3/rdock/2013.1/src/exe/rbdock.cxx#4 $)

>  <Rbt.Library>
libRbt.so (2013.1, Build901 2013/11/27)

>  <Rbt.Parameter_File>
/export/apps/rDock/src/rDock_2013.1_src/data/scripts/dock_solv.prm

>  <Rbt.Receptor>
prm/blind_docking_60.prm

>  <SCORE>
-18.6391

>  <SCORE.INTER>
-18.5488

>  <SCORE.INTER.CONST>
1

>  <SCORE.INTER.POLAR>
0

>  <SCORE.INTER.ROT>
8

>  <SCORE.INTER.SOLV>
15.7599

>  <SCORE.INTER.VDW>
-26.5525

>  <SCORE.INTER.norm>
-0.713417

>  <SCORE.INTRA>
-0.0902303

>  <SCORE.INTRA.DIHEDRAL>
2.81908

>  <SCORE.INTRA.DIHEDRAL.0>
7.88077

>  <SCORE.INTRA.POLAR>
0

>  <SCORE.INTRA.POLAR.0>
0

>  <SCORE.INTRA.REPUL>
0

>  <SCORE.INTRA.REPUL.0>
0

>  <SCORE.INTRA.SOLV>
0.351077

>  <SCORE.INTRA.SOLV.lig_0>
-63.2542

>  <SCORE.INTRA.VDW>
-1.67531

>  <SCORE.INTRA.VDW.0>
-3.15072

>  <SCORE.INTRA.norm>
-0.0034704

>  <SCORE.RESTR>
0

>  <SCORE.RESTR.CAVITY>
0

>  <SCORE.RESTR.norm>
0

>  <SCORE.SYSTEM>
0

>  <SCORE.SYSTEM.CONST>
0

>  <SCORE.SYSTEM.DIHEDRAL>
0

>  <SCORE.SYSTEM.SOLV>
0

>  <SCORE.SYSTEM.norm>
0

>  <SCORE.heavy>
26

>  <SCORE.norm>
-0.716887

>  <RMSD>
10.570

$$$$
ligand
 OpenBabel11021811473D
libRbt.so/2013.1/901 2013/11/27
 26 27  0  0  0  0  0  0  0  0999 V2000
   -0.2675  -15.1662   18.7480 C   0  0  0  0  0  0  0  0  0  0  0  0
   -3.3349  -18.8204   16.2056 C   0  0  0  0  0  0  0  0  0  0  0  0
   -3.2007  -17.7075   17.0292 C   0  0  0  0  0  0  0  0  0  0  0  0
   -1.9935  -16.7678   16.9831 C   0  0  0  0  0  0  0  0  0  0  0  0
   -0.0336  -16.6531   18.4650 C   0  0  1  0  0  0  0  0  0  0  0  0
   -6.7509  -20.1022   17.3105 C   0  0  0  0  0  0  0  0  0  0  0  0
   -5.4784  -19.2592   17.2136 C   0  0  0  0  0  0  0  0  0  0  0  0
   -4.2308  -17.4284   17.9216 C   0  0  0  0  0  0  0  0  0  0  0  0
   -0.5462  -18.6552   17.5102 C   0  0  0  0  0  0  0  0  0  0  0  0
    1.0181  -17.3575   19.0387 C   0  0  2  0  0  0  0  0  0  0  0  0
    2.1129  -16.9105   20.0109 C   0  0  0  0  0  0  0  0  0  0  0  0
    3.2719  -17.9058   20.1021 C   0  0  0  0  0  0  0  0  0  0  0  0
   -4.4832  -19.6101   16.2917 N   0  0  0  0  0  0  0  0  0  0  0  0
   -0.8341  -17.3620   17.6641 N   0  0  0  0  0  0  0  0  0  0  0  0
   -5.3124  -18.1817   17.9941 N   0  0  0  0  0  0  0  0  0  0  0  0
   -2.4494  -19.1093   15.4005 O   0  0  0  0  0  0  0  0  0  0  0  0
    5.7011  -18.8673   17.1574 O   0  5  0  0  0  0  0  0  0  0  0  0
    5.5449  -17.7845   21.8749 O   0  0  0  0  0  0  0  0  0  0  0  0
    3.9727  -18.0192   18.8596 O   0  0  0  0  0  0  0  0  0  0  0  0
    6.4140  -18.4829   19.5726 O   0  0  0  0  0  0  0  0  0  0  0  0
    6.2182  -20.2466   21.4541 O   0  5  0  0  0  0  0  0  0  0  0  0
    4.8356  -20.4373   19.0195 O   0  0  0  0  0  0  0  0  0  0  0  0
    8.0110  -18.4131   21.5675 O   0  0  0  0  0  0  0  0  0  0  0  0
    0.9174  -18.9756   18.4024 S   0  0  0  0  0  0  0  0  0  0  0  0
    5.2017  -19.0437   18.6772 P   0  0  2  0  0  0  0  0  0  0  0  0
    6.5194  -18.8324   21.1379 P   0  0  2  0  0  0  0  0  0  0  0  0
  2 16  2  0  0  0  0
  2  3  1  0  0  0  0
  2 13  1  0  0  0  0
  3  8  2  0  0  0  0
  3  4  1  0  0  0  0
  4 14  1  0  0  0  0
  5  1  1  1  0  0  0
  5 14  1  0  0  0  0
  5 10  1  0  0  0  0
  6  7  1  0  0  0  0
  7 13  1  0  0  0  0
  7 15  2  0  0  0  0
  8 15  1  0  0  0  0
  9 14  1  0  0  0  0
  9 24  1  0  0  0  0
 10 24  1  0  0  0  0
 10 11  1  6  0  0  0
 11 12  1  0  0  0  0
 12 19  1  0  0  0  0
 17 25  1  0  0  0  0
 19 25  1  0  0  0  0
 20 26  1  0  0  0  0
 21 26  1  0  0  0  0
 22 25  2  0  0  0  0
 23 26  2  0  0  0  0
 25 20  1  1  0  0  0
 26 18  1  1  0  0  0
M  CHG  2  17  -1  21  -1
M  END
>  <CHROM.1>
-77.34248428,-165.02944587,64.46860341,-138.22907620,-177.71660337,-162.95848627
179.86568757,-82.28040702,1.44611487,-18.42116621,18.68943285,2.98939751
0.27006251,-2.52836632

>  <Name>
ligand

>  <RI>
0

>  <Rbt.Current_Directory>
/home/itssahil/PROJECTS/Mol_Feturizer/New_Systems/rnas/3D2X

>  <Rbt.Executable>
rbdock ($Id: //depot/dev/client3/rdock/2013.1/src/exe/rbdock.cxx#4 $)

>  <Rbt.Library>
libRbt.so (2013.1, Build901 2013/11/27)

>  <Rbt.Parameter_File>
/export/apps/rDock/src/rDock_2013.1_src/data/scripts/dock_solv.prm

>  <Rbt.Receptor>
prm/blind_docking_100.prm

>  <SCORE>
-24.8856

>  <SCORE.INTER>
-23.2278

>  <SCORE.INTER.CONST>
1

>  <SCORE.INTER.POLAR>
0

>  <SCORE.INTER.ROT>
8

>  <SCORE.INTER.SOLV>
22.1405

>  <SCORE.INTER.VDW>
-31.7987

>  <SCORE.INTER.norm>
-0.893378

>  <SCORE.INTRA>
-1.65778

>  <SCORE.INTRA.DIHEDRAL>
-1.8303

>  <SCORE.INTRA.DIHEDRAL.0>
7.88077

>  <SCORE.INTRA.POLAR>
0

>  <SCORE.INTRA.POLAR.0>
0

>  <SCORE.INTRA.REPUL>
0

>  <SCORE.INTRA.REPUL.0>
0

>  <SCORE.INTRA.SOLV>
-1.64333

>  <SCORE.INTRA.SOLV.lig_0>
-63.2542

>  <SCORE.INTRA.VDW>
0.0790401

>  <SCORE.INTRA.VDW.0>
-3.15072

>  <SCORE.INTRA.norm>
-0.0637606

>  <SCORE.RESTR>
0

>  <SCORE.RESTR.CAVITY>
0

>  <SCORE.RESTR.norm>
0

>  <SCORE.SYSTEM>
0

>  <SCORE.SYSTEM.CONST>
0

>  <SCORE.SYSTEM.DIHEDRAL>
0

>  <SCORE.SYSTEM.SOLV>
0

>  <SCORE.SYSTEM.norm>
0

>  <SCORE.heavy>
26

>  <SCORE.norm>
-0.957139

>  <RMSD>
10.575

$$$$
ligand
 OpenBabel11021811473D
libRbt.so/2013.1/901 2013/11/27
 26 27  0  0  0  0  0  0  0  0999 V2000
   -0.6072  -15.3334   19.1407 C   0  0  0  0  0  0  0  0  0  0  0  0
   -4.7398  -17.8699   18.0724 C   0  0  0  0  0  0  0  0  0  0  0  0
   -3.6354  -17.7716   17.2326 C   0  0  0  0  0  0  0  0  0  0  0  0
   -2.5385  -16.7182   17.4054 C   0  0  0  0  0  0  0  0  0  0  0  0
   -0.3661  -16.7294   18.5589 C   0  0  1  0  0  0  0  0  0  0  0  0
   -6.4984  -20.8982   16.5660 C   0  0  0  0  0  0  0  0  0  0  0  0
   -5.4875  -19.7750   16.8016 C   0  0  0  0  0  0  0  0  0  0  0  0
   -3.5174  -18.6955   16.1992 C   0  0  0  0  0  0  0  0  0  0  0  0
   -0.9519  -18.5659   17.3476 C   0  0  0  0  0  0  0  0  0  0  0  0
    0.7926  -17.4497   18.8234 C   0  0  2  0  0  0  0  0  0  0  0  0
    2.0152  -17.1048   19.6777 C   0  0  0  0  0  0  0  0  0  0  0  0
    3.0724  -18.2114   19.6797 C   0  0  0  0  0  0  0  0  0  0  0  0
   -5.6808  -18.8799   17.8623 N   0  0  0  0  0  0  0  0  0  0  0  0
   -1.2602  -17.3415   17.7773 N   0  0  0  0  0  0  0  0  0  0  0  0
   -4.4129  -19.6467   16.0101 N   0  0  0  0  0  0  0  0  0  0  0  0
   -4.8890  -17.0745   19.0003 O   0  0  0  0  0  0  0  0  0  0  0  0
    5.5145  -19.8622   19.1632 O   0  5  0  0  0  0  0  0  0  0  0  0
    9.4113  -17.5728   19.1783 O   0  0  0  0  0  0  0  0  0  0  0  0
    4.3791  -17.6962   19.9530 O   0  0  0  0  0  0  0  0  0  0  0  0
    6.9555  -17.8702   19.8297 O   0  0  0  0  0  0  0  0  0  0  0  0
    8.8107  -18.7524   21.4009 O   0  5  0  0  0  0  0  0  0  0  0  0
    5.6590  -19.1518   21.6443 O   0  0  0  0  0  0  0  0  0  0  0  0
    8.3478  -19.9050   19.1547 O   0  0  0  0  0  0  0  0  0  0  0  0
    0.6506  -18.9361   17.9270 S   0  0  0  0  0  0  0  0  0  0  0  0
    5.6255  -18.6739   20.2430 P   0  0  2  0  0  0  0  0  0  0  0  0
    8.4101  -18.5344   19.9929 P   0  0  2  0  0  0  0  0  0  0  0  0
  2 16  2  0  0  0  0
  2  3  1  0  0  0  0
  2 13  1  0  0  0  0
  3  8  2  0  0  0  0
  3  4  1  0  0  0  0
  4 14  1  0  0  0  0
  5  1  1  1  0  0  0
  5 14  1  0  0  0  0
  5 10  1  0  0  0  0
  6  7  1  0  0  0  0
  7 13  1  0  0  0  0
  7 15  2  0  0  0  0
  8 15  1  0  0  0  0
  9 14  1  0  0  0  0
  9 24  1  0  0  0  0
 10 24  1  0  0  0  0
 10 11  1  6  0  0  0
 11 12  1  0  0  0  0
 12 19  1  0  0  0  0
 17 25  1  0  0  0  0
 19 25  1  0  0  0  0
 20 26  1  0  0  0  0
 21 26  1  0  0  0  0
 22 25  2  0  0  0  0
 23 26  2  0  0  0  0
 25 20  1  6  0  0  0
 26 18  1  6  0  0  0
M  CHG  2  17  -1  21  -1
M  END
>  <CHROM.1>
113.42903303,-179.82671578,154.58686501,-148.00491489,170.12852187,-68.37360810
42.94581721,167.53736825,1.70714283,-18.33781141,18.80872095,3.05779331,0.21224038
-2.72845555

>  <Name>
ligand

>  <RI>
0

>  <Rbt.Current_Directory>
/home/itssahil/PROJECTS/Mol_Feturizer/New_Systems/rnas/3D2X

>  <Rbt.Executable>
rbdock ($Id: //depot/dev/client3/rdock/2013.1/src/exe/rbdock.cxx#4 $)

>  <Rbt.Library>
libRbt.so (2013.1, Build901 2013/11/27)

>  <Rbt.Parameter_File>
/export/apps/rDock/src/rDock_2013.1_src/data/scripts/dock_solv.prm

>  <Rbt.Receptor>
prm/blind_docking_40.prm

>  <SCORE>
-21.6844

>  <SCORE.INTER>
-23.5977

>  <SCORE.INTER.CONST>
1

>  <SCORE.INTER.POLAR>
0

>  <SCORE.INTER.ROT>
8

>  <SCORE.INTER.SOLV>
14.4061

>  <SCORE.INTER.VDW>
-29.4672

>  <SCORE.INTER.norm>
-0.907603

>  <SCORE.INTRA>
1.88792

>  <SCORE.INTRA.DIHEDRAL>
0.115676

>  <SCORE.INTRA.DIHEDRAL.0>
7.88077

>  <SCORE.INTRA.POLAR>
0

>  <SCORE.INTRA.POLAR.0>
0

>  <SCORE.INTRA.REPUL>
0

>  <SCORE.INTRA.REPUL.0>
0

>  <SCORE.INTRA.SOLV>
0.673654

>  <SCORE.INTRA.SOLV.lig_0>
-63.2542

>  <SCORE.INTRA.VDW>
1.49325

>  <SCORE.INTRA.VDW.0>
-3.15072

>  <SCORE.INTRA.norm>
0.0726123

>  <SCORE.RESTR>
0.0253601

>  <SCORE.RESTR.CAVITY>
0.0253601

>  <SCORE.RESTR.norm>
0.000975388

>  <SCORE.SYSTEM>
0

>  <SCORE.SYSTEM.CONST>
0

>  <SCORE.SYSTEM.DIHEDRAL>
0

>  <SCORE.SYSTEM.SOLV>
0

>  <SCORE.SYSTEM.norm>
0

>  <SCORE.heavy>
26

>  <SCORE.norm>
-0.834015

>  <RMSD>
10.579

$$$$
ligand
 OpenBabel11021811473D
libRbt.so/2013.1/901 2013/11/27
 26 27  0  0  0  0  0  0  0  0999 V2000
   -1.2807  -15.5701   18.5635 C   0  0  0  0  0  0  0  0  0  0  0  0
   -5.2516  -17.3850   15.6946 C   0  0  0  0  0  0  0  0  0  0  0  0
   -4.0825  -17.5884   16.4203 C   0  0  0  0  0  0  0  0  0  0  0  0
   -2.8694  -16.6587   16.3386 C   0  0  0  0  0  0  0  0  0  0  0  0
   -0.9127  -16.8553   17.8161 C   0  0  1  0  0  0  0  0  0  0  0  0
   -7.3634  -20.3066   16.9342 C   0  0  0  0  0  0  0  0  0  0  0  0
   -6.1936  -19.3411   16.7383 C   0  0  0  0  0  0  0  0  0  0  0  0
   -4.0296  -18.6818   17.2788 C   0  0  0  0  0  0  0  0  0  0  0  0
   -1.2473  -18.4742   16.2508 C   0  0  0  0  0  0  0  0  0  0  0  0
    0.2061  -17.6091   18.1500 C   0  0  2  0  0  0  0  0  0  0  0  0
    1.2650  -17.4058   19.2366 C   0  0  0  0  0  0  0  0  0  0  0  0
    2.4879  -18.3075   19.0534 C   0  0  0  0  0  0  0  0  0  0  0  0
   -6.3240  -18.2657   15.8495 N   0  0  0  0  0  0  0  0  0  0  0  0
   -1.6525  -17.3341   16.8119 N   0  0  0  0  0  0  0  0  0  0  0  0
   -5.0499  -19.5079   17.4178 N   0  0  0  0  0  0  0  0  0  0  0  0
   -5.3461  -16.4320   14.9208 O   0  0  0  0  0  0  0  0  0  0  0  0
    5.9700  -17.8443   20.7943 O   0  5  0  0  0  0  0  0  0  0  0  0
    5.0508  -22.5097   21.5542 O   0  0  0  0  0  0  0  0  0  0  0  0
    3.5442  -17.9582   19.9533 O   0  0  0  0  0  0  0  0  0  0  0  0
    4.7211  -20.0627   20.8857 O   0  0  0  0  0  0  0  0  0  0  0  0
    3.7690  -21.9384   19.3810 O   0  5  0  0  0  0  0  0  0  0  0  0
    5.4137  -19.0987   18.6037 O   0  0  0  0  0  0  0  0  0  0  0  0
    6.3015  -21.5488   19.5335 O   0  0  0  0  0  0  0  0  0  0  0  0
    0.2493  -18.9330   17.0192 S   0  0  0  0  0  0  0  0  0  0  0  0
    4.9395  -18.7620   19.9657 P   0  0  2  0  0  0  0  0  0  0  0  0
    4.8770  -21.5430   20.2791 P   0  0  2  0  0  0  0  0  0  0  0  0
  2 16  2  0  0  0  0
  2  3  1  0  0  0  0
  2 13  1  0  0  0  0
  3  8  2  0  0  0  0
  3  4  1  0  0  0  0
  4 14  1  0  0  0  0
  5  1  1  1  0  0  0
  5 14  1  0  0  0  0
  5 10  1  0  0  0  0
  6  7  1  0  0  0  0
  7 13  1  0  0  0  0
  7 15  2  0  0  0  0
  8 15  1  0  0  0  0
  9 14  1  0  0  0  0
  9 24  1  0  0  0  0
 10 24  1  0  0  0  0
 10 11  1  6  0  0  0
 11 12  1  0  0  0  0
 12 19  1  0  0  0  0
 17 25  1  0  0  0  0
 19 25  1  0  0  0  0
 20 26  1  0  0  0  0
 21 26  1  0  0  0  0
 22 25  2  0  0  0  0
 23 26  2  0  0  0  0
 25 20  1  1  0  0  0
 26 18  1  1  0  0  0
M  CHG  2  17  -1  21  -1
M  END
>  <CHROM.1>
-160.14381883,-167.37152357,171.08088240,-122.52956325,179.70503572,-129.44182066
165.08525352,162.48725708,0.53404180,-18.87466842,18.33433408,-2.87818056
0.31812248,2.94443176

>  <Name>
ligand

>  <RI>
0

>  <Rbt.Current_Directory>
/home/itssahil/PROJECTS/Mol_Feturizer/New_Systems/rnas/3D2X

>  <Rbt.Executable>
rbdock ($Id: //depot/dev/client3/rdock/2013.1/src/exe/rbdock.cxx#4 $)

>  <Rbt.Library>
libRbt.so (2013.1, Build901 2013/11/27)

>  <Rbt.Parameter_File>
/export/apps/rDock/src/rDock_2013.1_src/data/scripts/dock_solv.prm

>  <Rbt.Receptor>
prm/blind_docking_80.prm

>  <SCORE>
-18.5935

>  <SCORE.INTER>
-19.829

>  <SCORE.INTER.CONST>
1

>  <SCORE.INTER.POLAR>
0

>  <SCORE.INTER.ROT>
8

>  <SCORE.INTER.SOLV>
19.3206

>  <SCORE.INTER.VDW>
-28.5929

>  <SCORE.INTER.norm>
-0.762653

>  <SCORE.INTRA>
1.23549

>  <SCORE.INTRA.DIHEDRAL>
0.223322

>  <SCORE.INTRA.DIHEDRAL.0>
7.88077

>  <SCORE.INTRA.POLAR>
0

>  <SCORE.INTRA.POLAR.0>
0

>  <SCORE.INTRA.REPUL>
0

>  <SCORE.INTRA.REPUL.0>
0

>  <SCORE.INTRA.SOLV>
0.3017

>  <SCORE.INTRA.SOLV.lig_0>
-63.2542

>  <SCORE.INTRA.VDW>
0.972983

>  <SCORE.INTRA.VDW.0>
-3.15072

>  <SCORE.INTRA.norm>
0.047519

>  <SCORE.RESTR>
0

>  <SCORE.RESTR.CAVITY>
0

>  <SCORE.RESTR.norm>
0

>  <SCORE.SYSTEM>
0

>  <SCORE.SYSTEM.CONST>
0

>  <SCORE.SYSTEM.DIHEDRAL>
0

>  <SCORE.SYSTEM.SOLV>
0

>  <SCORE.SYSTEM.norm>
0

>  <SCORE.heavy>
26

>  <SCORE.norm>
-0.715134

>  <RMSD>
10.586

$$$$
ligand
 OpenBabel11021811473D
libRbt.so/2013.1/901 2013/11/27
 26 27  0  0  0  0  0  0  0  0999 V2000
   -1.2669  -17.9197   17.7282 C   0  0  0  0  0  0  0  0  0  0  0  0
   -3.8503  -20.1392   16.2517 C   0  0  0  0  0  0  0  0  0  0  0  0
   -3.7591  -18.8742   15.6806 C   0  0  0  0  0  0  0  0  0  0  0  0
   -2.4699  -18.3170   15.0722 C   0  0  0  0  0  0  0  0  0  0  0  0
   -0.7346  -18.9275   16.7051 C   0  0  1  0  0  0  0  0  0  0  0  0
   -7.5383  -20.2094   17.2142 C   0  0  0  0  0  0  0  0  0  0  0  0
   -6.1862  -19.7347   16.6797 C   0  0  0  0  0  0  0  0  0  0  0  0
   -4.9081  -18.0906   15.6440 C   0  0  0  0  0  0  0  0  0  0  0  0
   -0.7649  -20.0184   14.7071 C   0  0  0  0  0  0  0  0  0  0  0  0
    0.3613  -19.7400   16.9703 C   0  0  2  0  0  0  0  0  0  0  0  0
    1.2447  -19.8584   18.2149 C   0  0  0  0  0  0  0  0  0  0  0  0
    1.9110  -18.5357   18.6009 C   0  0  0  0  0  0  0  0  0  0  0  0
   -5.0735  -20.5826   16.7588 N   0  0  0  0  0  0  0  0  0  0  0  0
   -1.3006  -19.0949   15.5066 N   0  0  0  0  0  0  0  0  0  0  0  0
   -6.0595  -18.5202   16.1260 N   0  0  0  0  0  0  0  0  0  0  0  0
   -2.8607  -20.8693   16.3086 O   0  0  0  0  0  0  0  0  0  0  0  0
    2.6944  -16.3261   20.8083 O   0  5  0  0  0  0  0  0  0  0  0  0
    5.9074  -19.5656   22.9912 O   0  0  0  0  0  0  0  0  0  0  0  0
    2.7305  -18.6748   19.7656 O   0  0  0  0  0  0  0  0  0  0  0  0
    4.4397  -18.0100   21.5878 O   0  0  0  0  0  0  0  0  0  0  0  0
    5.3578  -20.1897   20.5416 O   0  5  0  0  0  0  0  0  0  0  0  0
    4.6176  -17.0127   19.2234 O   0  0  0  0  0  0  0  0  0  0  0  0
    6.9310  -18.2285   21.0584 O   0  0  0  0  0  0  0  0  0  0  0  0
    0.6286  -20.6742   15.5249 S   0  0  0  0  0  0  0  0  0  0  0  0
    3.6820  -17.4786   20.2728 P   0  0  2  0  0  0  0  0  0  0  0  0
    5.6343  -19.0800   21.4811 P   0  0  2  0  0  0  0  0  0  0  0  0
  2 16  2  0  0  0  0
  2  3  1  0  0  0  0
  2 13  1  0  0  0  0
  3  8  2  0  0  0  0
  3  4  1  0  0  0  0
  4 14  1  0  0  0  0
  5  1  1  1  0  0  0
  5 14  1  0  0  0  0
  5 10  1  0  0  0  0
  6  7  1  0  0  0  0
  7 13  1  0  0  0  0
  7 15  2  0  0  0  0
  8 15  1  0  0  0  0
  9 14  1  0  0  0  0
  9 24  1  0  0  0  0
 10 24  1  0  0  0  0
 10 11  1  6  0  0  0
 11 12  1  0  0  0  0
 12 19  1  0  0  0  0
 17 25  1  0  0  0  0
 19 25  1  0  0  0  0
 20 26  1  0  0  0  0
 21 26  1  0  0  0  0
 22 25  2  0  0  0  0
 23 26  2  0  0  0  0
 25 20  1  1  0  0  0
 26 18  1  1  0  0  0
M  CHG  2  17  -1  21  -1
M  END
>  <CHROM.1>
-16.29923481,-57.95443266,-179.96769318,-79.25341999,172.38124664,-173.94140042
69.03249871,-168.79525014,0.59619716,-19.00962731,18.25426480,2.66352332
0.12943193,-2.03273348

>  <Name>
ligand

>  <RI>
0

>  <Rbt.Current_Directory>
/home/itssahil/PROJECTS/Mol_Feturizer/New_Systems/rnas/3D2X

>  <Rbt.Executable>
rbdock ($Id: //depot/dev/client3/rdock/2013.1/src/exe/rbdock.cxx#4 $)

>  <Rbt.Library>
libRbt.so (2013.1, Build901 2013/11/27)

>  <Rbt.Parameter_File>
/export/apps/rDock/src/rDock_2013.1_src/data/scripts/dock_solv.prm

>  <Rbt.Receptor>
prm/blind_docking_100.prm

>  <SCORE>
-20.5314

>  <SCORE.INTER>
-19.2665

>  <SCORE.INTER.CONST>
1

>  <SCORE.INTER.POLAR>
0

>  <SCORE.INTER.ROT>
8

>  <SCORE.INTER.SOLV>
21.627

>  <SCORE.INTER.VDW>
-28.9867

>  <SCORE.INTER.norm>
-0.74102

>  <SCORE.INTRA>
-1.2649

>  <SCORE.INTRA.DIHEDRAL>
-2.45532

>  <SCORE.INTRA.DIHEDRAL.0>
7.88077

>  <SCORE.INTRA.POLAR>
0

>  <SCORE.INTRA.POLAR.0>
0

>  <SCORE.INTRA.REPUL>
0

>  <SCORE.INTRA.REPUL.0>
0

>  <SCORE.INTRA.SOLV>
-0.0541639

>  <SCORE.INTRA.SOLV.lig_0>
-63.2542

>  <SCORE.INTRA.VDW>
-0.0101578

>  <SCORE.INTRA.VDW.0>
-3.15072

>  <SCORE.INTRA.norm>
-0.04865

>  <SCORE.RESTR>
0

>  <SCORE.RESTR.CAVITY>
0

>  <SCORE.RESTR.norm>
0

>  <SCORE.SYSTEM>
0

>  <SCORE.SYSTEM.CONST>
0

>  <SCORE.SYSTEM.DIHEDRAL>
0

>  <SCORE.SYSTEM.SOLV>
0

>  <SCORE.SYSTEM.norm>
0

>  <SCORE.heavy>
26

>  <SCORE.norm>
-0.78967

>  <RMSD>
10.628

$$$$
ligand
 OpenBabel11021811473D
libRbt.so/2013.1/901 2013/11/27
 26 27  0  0  0  0  0  0  0  0999 V2000
   -0.0717  -20.0513   16.8791 C   0  0  0  0  0  0  0  0  0  0  0  0
   -3.8034  -20.4762   16.1962 C   0  0  0  0  0  0  0  0  0  0  0  0
   -3.5552  -19.1302   15.9483 C   0  0  0  0  0  0  0  0  0  0  0  0
   -2.2040  -18.5995   15.4633 C   0  0  0  0  0  0  0  0  0  0  0  0
   -0.4867  -18.6181   17.2242 C   0  0  1  0  0  0  0  0  0  0  0  0
   -7.4783  -20.3380   17.2003 C   0  0  0  0  0  0  0  0  0  0  0  0
   -6.0752  -19.9123   16.7653 C   0  0  0  0  0  0  0  0  0  0  0  0
   -4.6000  -18.2299   16.1309 C   0  0  0  0  0  0  0  0  0  0  0  0
   -1.7141  -16.7223   16.9367 C   0  0  0  0  0  0  0  0  0  0  0  0
    0.1314  -17.8937   18.2365 C   0  0  2  0  0  0  0  0  0  0  0  0
    1.2756  -18.2672   19.1824 C   0  0  0  0  0  0  0  0  0  0  0  0
    2.3862  -19.0609   18.4904 C   0  0  0  0  0  0  0  0  0  0  0  0
   -5.0745  -20.8806   16.6091 N   0  0  0  0  0  0  0  0  0  0  0  0
   -1.4545  -17.9763   16.5637 N   0  0  0  0  0  0  0  0  0  0  0  0
   -5.7981  -18.6234   16.5211 N   0  0  0  0  0  0  0  0  0  0  0  0
   -2.9103  -21.3110   16.0501 O   0  0  0  0  0  0  0  0  0  0  0  0
    3.7224  -17.9263   21.4985 O   0  5  0  0  0  0  0  0  0  0  0  0
    7.5445  -20.4949   19.4459 O   0  0  0  0  0  0  0  0  0  0  0  0
    3.4564  -19.3694   19.3887 O   0  0  0  0  0  0  0  0  0  0  0  0
    5.7989  -18.8624   20.3578 O   0  0  0  0  0  0  0  0  0  0  0  0
    6.3486  -18.8661   17.8307 O   0  5  0  0  0  0  0  0  0  0  0  0
    4.4511  -17.0050   19.1960 O   0  0  0  0  0  0  0  0  0  0  0  0
    8.0539  -17.9841   19.5343 O   0  0  0  0  0  0  0  0  0  0  0  0
   -0.6882  -16.3583   18.2989 S   0  0  0  0  0  0  0  0  0  0  0  0
    4.3610  -18.2123   20.0490 P   0  0  2  0  0  0  0  0  0  0  0  0
    6.8936  -19.0443   19.1951 P   0  0  2  0  0  0  0  0  0  0  0  0
  2 16  2  0  0  0  0
  2  3  1  0  0  0  0
  2 13  1  0  0  0  0
  3  8  2  0  0  0  0
  3  4  1  0  0  0  0
  4 14  1  0  0  0  0
  5  1  1  6  0  0  0
  5 14  1  0  0  0  0
  5 10  1  0  0  0  0
  6  7  1  0  0  0  0
  7 13  1  0  0  0  0
  7 15  2  0  0  0  0
  8 15  1  0  0  0  0
  9 14  1  0  0  0  0
  9 24  1  0  0  0  0
 10 24  1  0  0  0  0
 10 11  1  1  0  0  0
 11 12  1  0  0  0  0
 12 19  1  0  0  0  0
 17 25  1  0  0  0  0
 19 25  1  0  0  0  0
 20 26  1  0  0  0  0
 21 26  1  0  0  0  0
 22 25  2  0  0  0  0
 23 26  2  0  0  0  0
 25 20  1  1  0  0  0
 26 18  1  1  0  0  0
M  CHG  2  17  -1  21  -1
M  END
>  <CHROM.1>
-102.59590644,40.10010979,178.63121847,99.01878764,-64.23976091,-168.13507587
96.09926936,-138.57173561,0.95843924,-18.74483905,18.13027281,-2.98693073
-0.24076431,0.35564584

>  <Name>
ligand

>  <RI>
0

>  <Rbt.Current_Directory>
/home/itssahil/PROJECTS/Mol_Feturizer/New_Systems/rnas/3D2X

>  <Rbt.Executable>
rbdock ($Id: //depot/dev/client3/rdock/2013.1/src/exe/rbdock.cxx#4 $)

>  <Rbt.Library>
libRbt.so (2013.1, Build901 2013/11/27)

>  <Rbt.Parameter_File>
/export/apps/rDock/src/rDock_2013.1_src/data/scripts/dock_solv.prm

>  <Rbt.Receptor>
prm/blind_docking_40.prm

>  <SCORE>
-16.3945

>  <SCORE.INTER>
-18.264

>  <SCORE.INTER.CONST>
1

>  <SCORE.INTER.POLAR>
0

>  <SCORE.INTER.ROT>
8

>  <SCORE.INTER.SOLV>
26.3612

>  <SCORE.INTER.VDW>
-29.8964

>  <SCORE.INTER.norm>
-0.702462

>  <SCORE.INTRA>
1.45793

>  <SCORE.INTRA.DIHEDRAL>
0.703979

>  <SCORE.INTRA.DIHEDRAL.0>
7.88077

>  <SCORE.INTRA.POLAR>
0

>  <SCORE.INTRA.POLAR.0>
0

>  <SCORE.INTRA.REPUL>
0

>  <SCORE.INTRA.REPUL.0>
0

>  <SCORE.INTRA.SOLV>
0.766685

>  <SCORE.INTRA.SOLV.lig_0>
-63.2542

>  <SCORE.INTRA.VDW>
0.722594

>  <SCORE.INTRA.VDW.0>
-3.15072

>  <SCORE.INTRA.norm>
0.0560741

>  <SCORE.RESTR>
0.41156

>  <SCORE.RESTR.CAVITY>
0.41156

>  <SCORE.RESTR.norm>
0.0158292

>  <SCORE.SYSTEM>
0

>  <SCORE.SYSTEM.CONST>
0

>  <SCORE.SYSTEM.DIHEDRAL>
0

>  <SCORE.SYSTEM.SOLV>
0

>  <SCORE.SYSTEM.norm>
0

>  <SCORE.heavy>
26

>  <SCORE.norm>
-0.630558

>  <RMSD>
10.665

$$$$
ligand
 OpenBabel11021811473D
libRbt.so/2013.1/901 2013/11/27
 26 27  0  0  0  0  0  0  0  0999 V2000
   -1.4358  -21.3777   14.9771 C   0  0  0  0  0  0  0  0  0  0  0  0
   -1.4855  -23.5539   17.8655 C   0  0  0  0  0  0  0  0  0  0  0  0
   -0.4385  -22.7117   18.2251 C   0  0  0  0  0  0  0  0  0  0  0  0
    0.3994  -21.9308   17.2098 C   0  0  0  0  0  0  0  0  0  0  0  0
   -0.9840  -20.3114   15.9793 C   0  0  1  0  0  0  0  0  0  0  0  0
   -2.6818  -24.6913   21.3018 C   0  0  0  0  0  0  0  0  0  0  0  0
   -1.8788  -23.9975   20.2004 C   0  0  0  0  0  0  0  0  0  0  0  0
   -0.1598  -22.5591   19.5795 C   0  0  0  0  0  0  0  0  0  0  0  0
    0.1518  -19.5835   17.8132 C   0  0  0  0  0  0  0  0  0  0  0  0
   -1.4245  -18.9953   15.9062 C   0  0  2  0  0  0  0  0  0  0  0  0
   -2.3815  -18.3107   14.9270 C   0  0  0  0  0  0  0  0  0  0  0  0
   -3.2685  -17.2589   15.5974 C   0  0  0  0  0  0  0  0  0  0  0  0
   -2.2193  -24.2075   18.8575 N   0  0  0  0  0  0  0  0  0  0  0  0
   -0.1540  -20.5868   16.9893 N   0  0  0  0  0  0  0  0  0  0  0  0
   -0.8605  -23.1816   20.5090 N   0  0  0  0  0  0  0  0  0  0  0  0
   -1.7697  -23.7223   16.6795 O   0  0  0  0  0  0  0  0  0  0  0  0
   -4.9094  -18.0204   18.2845 O   0  5  0  0  0  0  0  0  0  0  0  0
   -8.4624  -19.6533   15.0528 O   0  0  0  0  0  0  0  0  0  0  0  0
   -4.6148  -17.7192   15.7493 O   0  0  0  0  0  0  0  0  0  0  0  0
   -6.5815  -19.1038   16.6972 O   0  0  0  0  0  0  0  0  0  0  0  0
   -6.0901  -20.6018   14.6471 O   0  5  0  0  0  0  0  0  0  0  0  0
   -4.1806  -20.0192   16.8164 O   0  0  0  0  0  0  0  0  0  0  0  0
   -7.5225  -21.4781   16.5883 O   0  0  0  0  0  0  0  0  0  0  0  0
   -0.6250  -18.1476   17.2005 S   0  0  0  0  0  0  0  0  0  0  0  0
   -5.0136  -18.7962   16.8782 P   0  0  2  0  0  0  0  0  0  0  0  0
   -7.0925  -20.2300   15.6705 P   0  0  2  0  0  0  0  0  0  0  0  0
  2 16  2  0  0  0  0
  2  3  1  0  0  0  0
  2 13  1  0  0  0  0
  3  8  2  0  0  0  0
  3  4  1  0  0  0  0
  4 14  1  0  0  0  0
  5  1  1  1  0  0  0
  5 14  1  0  0  0  0
  5 10  1  0  0  0  0
  6  7  1  0  0  0  0
  7 13  1  0  0  0  0
  7 15  2  0  0  0  0
  8 15  1  0  0  0  0
  9 14  1  0  0  0  0
  9 24  1  0  0  0  0
 10 24  1  0  0  0  0
 10 11  1  6  0  0  0
 11 12  1  0  0  0  0
 12 19  1  0  0  0  0
 17 25  1  0  0  0  0
 19 25  1  0  0  0  0
 20 26  1  0  0  0  0
 21 26  1  0  0  0  0
 22 25  2  0  0  0  0
 23 26  2  0  0  0  0
 25 20  1  6  0  0  0
 26 18  1  6  0  0  0
M  CHG  2  17  -1  21  -1
M  END
>  <CHROM.1>
92.47849342,143.08259458,-105.73794037,-95.36952952,75.16158270,-161.44907867
71.04061721,-143.96214060,-3.22816185,-20.53329112,17.03828685,-0.66950768
-0.15098905,-0.50875299

>  <Name>
ligand

>  <RI>
0

>  <Rbt.Current_Directory>
/home/itssahil/PROJECTS/Mol_Feturizer/New_Systems/rnas/3D2X

>  <Rbt.Executable>
rbdock ($Id: //depot/dev/client3/rdock/2013.1/src/exe/rbdock.cxx#4 $)

>  <Rbt.Library>
libRbt.so (2013.1, Build901 2013/11/27)

>  <Rbt.Parameter_File>
/export/apps/rDock/src/rDock_2013.1_src/data/scripts/dock_solv.prm

>  <Rbt.Receptor>
prm/blind_docking_60.prm

>  <SCORE>
-15.0585

>  <SCORE.INTER>
-17.6967

>  <SCORE.INTER.CONST>
1

>  <SCORE.INTER.POLAR>
0

>  <SCORE.INTER.ROT>
8

>  <SCORE.INTER.SOLV>
20.402

>  <SCORE.INTER.VDW>
-27.5318

>  <SCORE.INTER.norm>
-0.680643

>  <SCORE.INTRA>
2.63825

>  <SCORE.INTRA.DIHEDRAL>
5.48053

>  <SCORE.INTRA.DIHEDRAL.0>
7.88077

>  <SCORE.INTRA.POLAR>
0

>  <SCORE.INTRA.POLAR.0>
0

>  <SCORE.INTRA.REPUL>
0

>  <SCORE.INTRA.REPUL.0>
0

>  <SCORE.INTRA.SOLV>
1.85619

>  <SCORE.INTRA.SOLV.lig_0>
-63.2542

>  <SCORE.INTRA.VDW>
-1.0301

>  <SCORE.INTRA.VDW.0>
-3.15072

>  <SCORE.INTRA.norm>
0.101471

>  <SCORE.RESTR>
0

>  <SCORE.RESTR.CAVITY>
0

>  <SCORE.RESTR.norm>
0

>  <SCORE.SYSTEM>
0

>  <SCORE.SYSTEM.CONST>
0

>  <SCORE.SYSTEM.DIHEDRAL>
0

>  <SCORE.SYSTEM.SOLV>
0

>  <SCORE.SYSTEM.norm>
0

>  <SCORE.heavy>
26

>  <SCORE.norm>
-0.579171

>  <RMSD>
10.671

$$$$
ligand
 OpenBabel11021811473D
libRbt.so/2013.1/901 2013/11/27
 26 27  0  0  0  0  0  0  0  0999 V2000
    0.1330  -16.0119   19.1899 C   0  0  0  0  0  0  0  0  0  0  0  0
   -3.1658  -18.8604   16.0679 C   0  0  0  0  0  0  0  0  0  0  0  0
   -2.9006  -17.9025   17.0409 C   0  0  0  0  0  0  0  0  0  0  0  0
   -1.6166  -17.0701   17.0738 C   0  0  0  0  0  0  0  0  0  0  0  0
    0.3203  -17.3930   18.5551 C   0  0  1  0  0  0  0  0  0  0  0  0
   -6.6379  -20.0095   17.1435 C   0  0  0  0  0  0  0  0  0  0  0  0
   -5.2996  -19.2700   17.1083 C   0  0  0  0  0  0  0  0  0  0  0  0
   -3.8664  -17.6796   18.0172 C   0  0  0  0  0  0  0  0  0  0  0  0
   -0.2446  -19.0822   17.1371 C   0  0  0  0  0  0  0  0  0  0  0  0
    1.3370  -18.2549   18.9486 C   0  0  2  0  0  0  0  0  0  0  0  0
    2.4296  -18.0993   20.0095 C   0  0  0  0  0  0  0  0  0  0  0  0
    3.5148  -17.0986   19.6052 C   0  0  0  0  0  0  0  0  0  0  0  0
   -4.3762  -19.5561   16.0939 N   0  0  0  0  0  0  0  0  0  0  0  0
   -0.4903  -17.8553   17.5991 N   0  0  0  0  0  0  0  0  0  0  0  0
   -5.0076  -18.3429   18.0319 N   0  0  0  0  0  0  0  0  0  0  0  0
   -2.3416  -19.0943   15.1837 O   0  0  0  0  0  0  0  0  0  0  0  0
    6.1442  -19.0528   17.4236 O   0  5  0  0  0  0  0  0  0  0  0  0
    7.6468  -18.0051   22.0914 O   0  0  0  0  0  0  0  0  0  0  0  0
    4.3449  -17.6106   18.5580 O   0  0  0  0  0  0  0  0  0  0  0  0
    6.4653  -18.3359   19.8469 O   0  0  0  0  0  0  0  0  0  0  0  0
    5.0626  -17.9494   21.9850 O   0  5  0  0  0  0  0  0  0  0  0  0
    4.6474  -20.0630   19.2732 O   0  0  0  0  0  0  0  0  0  0  0  0
    6.3276  -20.1555   21.6370 O   0  0  0  0  0  0  0  0  0  0  0  0
    1.1915  -19.6647   17.9365 S   0  0  0  0  0  0  0  0  0  0  0  0
    5.3489  -18.8447   18.8073 P   0  0  2  0  0  0  0  0  0  0  0  0
    6.2898  -18.5617   21.4285 P   0  0  2  0  0  0  0  0  0  0  0  0
  2 16  2  0  0  0  0
  2  3  1  0  0  0  0
  2 13  1  0  0  0  0
  3  8  2  0  0  0  0
  3  4  1  0  0  0  0
  4 14  1  0  0  0  0
  5  1  1  1  0  0  0
  5 14  1  0  0  0  0
  5 10  1  0  0  0  0
  6  7  1  0  0  0  0
  7 13  1  0  0  0  0
  7 15  2  0  0  0  0
  8 15  1  0  0  0  0
  9 14  1  0  0  0  0
  9 24  1  0  0  0  0
 10 24  1  0  0  0  0
 10 11  1  6  0  0  0
 11 12  1  0  0  0  0
 12 19  1  0  0  0  0
 17 25  1  0  0  0  0
 19 25  1  0  0  0  0
 20 26  1  0  0  0  0
 21 26  1  0  0  0  0
 22 25  2  0  0  0  0
 23 26  2  0  0  0  0
 25 20  1  1  0  0  0
 26 18  1  1  0  0  0
M  CHG  2  17  -1  21  -1
M  END
>  <CHROM.1>
-77.43417814,-71.84404299,-71.32949065,-131.27790147,-68.23889235,-154.99043564
-176.96211937,176.35728636,1.59440846,-18.54046144,18.70068884,2.83354154
0.15159466,-2.04738000

>  <Name>
ligand

>  <RI>
0

>  <Rbt.Current_Directory>
/home/itssahil/PROJECTS/Mol_Feturizer/New_Systems/rnas/3D2X

>  <Rbt.Executable>
rbdock ($Id: //depot/dev/client3/rdock/2013.1/src/exe/rbdock.cxx#4 $)

>  <Rbt.Library>
libRbt.so (2013.1, Build901 2013/11/27)

>  <Rbt.Parameter_File>
/export/apps/rDock/src/rDock_2013.1_src/data/scripts/dock_solv.prm

>  <Rbt.Receptor>
prm/blind_docking_40.prm

>  <SCORE>
-22.0722

>  <SCORE.INTER>
-21.9099

>  <SCORE.INTER.CONST>
1

>  <SCORE.INTER.POLAR>
0

>  <SCORE.INTER.ROT>
8

>  <SCORE.INTER.SOLV>
22.0328

>  <SCORE.INTER.VDW>
-30.8842

>  <SCORE.INTER.norm>
-0.842689

>  <SCORE.INTRA>
-0.162268

>  <SCORE.INTRA.DIHEDRAL>
-1.27318

>  <SCORE.INTRA.DIHEDRAL.0>
7.88077

>  <SCORE.INTRA.POLAR>
0

>  <SCORE.INTRA.POLAR.0>
0

>  <SCORE.INTRA.REPUL>
0

>  <SCORE.INTRA.REPUL.0>
0

>  <SCORE.INTRA.SOLV>
2.75225

>  <SCORE.INTRA.SOLV.lig_0>
-63.2542

>  <SCORE.INTRA.VDW>
-0.901801

>  <SCORE.INTRA.VDW.0>
-3.15072

>  <SCORE.INTRA.norm>
-0.00624107

>  <SCORE.RESTR>
0

>  <SCORE.RESTR.CAVITY>
0

>  <SCORE.RESTR.norm>
0

>  <SCORE.SYSTEM>
0

>  <SCORE.SYSTEM.CONST>
0

>  <SCORE.SYSTEM.DIHEDRAL>
0

>  <SCORE.SYSTEM.SOLV>
0

>  <SCORE.SYSTEM.norm>
0

>  <SCORE.heavy>
26

>  <SCORE.norm>
-0.84893

>  <RMSD>
10.727

$$$$
ligand
 OpenBabel11021811473D
libRbt.so/2013.1/901 2013/11/27
 26 27  0  0  0  0  0  0  0  0999 V2000
   -0.8019  -16.4158   17.7756 C   0  0  0  0  0  0  0  0  0  0  0  0
   -3.7639  -20.1087   15.8756 C   0  0  0  0  0  0  0  0  0  0  0  0
   -3.3193  -18.8449   16.2494 C   0  0  0  0  0  0  0  0  0  0  0  0
   -1.9755  -18.2610   15.8067 C   0  0  0  0  0  0  0  0  0  0  0  0
   -0.3404  -17.8657   17.6012 C   0  0  1  0  0  0  0  0  0  0  0  0
   -7.1837  -20.1749   17.5588 C   0  0  0  0  0  0  0  0  0  0  0  0
   -5.8010  -19.7110   17.0985 C   0  0  0  0  0  0  0  0  0  0  0  0
   -4.1542  -18.0693   17.0476 C   0  0  0  0  0  0  0  0  0  0  0  0
   -0.4245  -19.9359   16.6576 C   0  0  0  0  0  0  0  0  0  0  0  0
    0.6707  -18.4175   18.3788 C   0  0  2  0  0  0  0  0  0  0  0  0
    1.5113  -17.8141   19.5070 C   0  0  0  0  0  0  0  0  0  0  0  0
    3.0145  -17.8682   19.2248 C   0  0  0  0  0  0  0  0  0  0  0  0
   -5.0174  -20.5545   16.2999 N   0  0  0  0  0  0  0  0  0  0  0  0
   -0.8920  -18.6876   16.7039 N   0  0  0  0  0  0  0  0  0  0  0  0
   -5.3376  -18.5007   17.4425 N   0  0  0  0  0  0  0  0  0  0  0  0
   -3.0604  -20.8329   15.1710 O   0  0  0  0  0  0  0  0  0  0  0  0
    5.3005  -19.0494   17.4595 O   0  5  0  0  0  0  0  0  0  0  0  0
    7.2485  -17.9306   21.9900 O   0  0  0  0  0  0  0  0  0  0  0  0
    3.5222  -19.2035   19.3085 O   0  0  0  0  0  0  0  0  0  0  0  0
    5.9614  -18.5563   19.8698 O   0  0  0  0  0  0  0  0  0  0  0  0
    4.6618  -17.9082   22.0098 O   0  5  0  0  0  0  0  0  0  0  0  0
    5.3887  -20.9695   19.1879 O   0  0  0  0  0  0  0  0  0  0  0  0
    5.9384  -20.1313   21.8831 O   0  0  0  0  0  0  0  0  0  0  0  0
    0.8847  -20.0475   17.8040 S   0  0  0  0  0  0  0  0  0  0  0  0
    5.0606  -19.5414   18.9731 P   0  0  2  0  0  0  0  0  0  0  0  0
    5.8680  -18.5779   21.4743 P   0  0  2  0  0  0  0  0  0  0  0  0
  2 16  2  0  0  0  0
  2  3  1  0  0  0  0
  2 13  1  0  0  0  0
  3  8  2  0  0  0  0
  3  4  1  0  0  0  0
  4 14  1  0  0  0  0
  5  1  1  1  0  0  0
  5 14  1  0  0  0  0
  5 10  1  0  0  0  0
  6  7  1  0  0  0  0
  7 13  1  0  0  0  0
  7 15  2  0  0  0  0
  8 15  1  0  0  0  0
  9 14  1  0  0  0  0
  9 24  1  0  0  0  0
 10 24  1  0  0  0  0
 10 11  1  6  0  0  0
 11 12  1  0  0  0  0
 12 19  1  0  0  0  0
 17 25  1  0  0  0  0
 19 25  1  0  0  0  0
 20 26  1  0  0  0  0
 21 26  1  0  0  0  0
 22 25  2  0  0  0  0
 23 26  2  0  0  0  0
 25 20  1  1  0  0  0
 26 18  1  1  0  0  0
M  CHG  2  17  -1  21  -1
M  END
>  <CHROM.1>
-85.45173932,-122.14987034,-71.30126476,-105.46517604,176.54789790,172.02899968
-58.32438928,158.55926235,1.13890363,-19.05796477,18.47621713,2.81647355
0.19757919,-2.22135212

>  <Name>
ligand

>  <RI>
0

>  <Rbt.Current_Directory>
/home/itssahil/PROJECTS/Mol_Feturizer/New_Systems/rnas/3D2X

>  <Rbt.Executable>
rbdock ($Id: //depot/dev/client3/rdock/2013.1/src/exe/rbdock.cxx#4 $)

>  <Rbt.Library>
libRbt.so (2013.1, Build901 2013/11/27)

>  <Rbt.Parameter_File>
/export/apps/rDock/src/rDock_2013.1_src/data/scripts/dock_solv.prm

>  <Rbt.Receptor>
prm/blind_docking_60.prm

>  <SCORE>
-21.3757

>  <SCORE.INTER>
-19.4551

>  <SCORE.INTER.CONST>
1

>  <SCORE.INTER.POLAR>
0

>  <SCORE.INTER.ROT>
8

>  <SCORE.INTER.SOLV>
22.5143

>  <SCORE.INTER.VDW>
-29.4082

>  <SCORE.INTER.norm>
-0.748272

>  <SCORE.INTRA>
-1.9206

>  <SCORE.INTRA.DIHEDRAL>
-1.62162

>  <SCORE.INTRA.DIHEDRAL.0>
7.88077

>  <SCORE.INTRA.POLAR>
0

>  <SCORE.INTRA.POLAR.0>
0

>  <SCORE.INTRA.REPUL>
0

>  <SCORE.INTRA.REPUL.0>
0

>  <SCORE.INTRA.SOLV>
0.390639

>  <SCORE.INTRA.SOLV.lig_0>
-63.2542

>  <SCORE.INTRA.VDW>
-1.30511

>  <SCORE.INTRA.VDW.0>
-3.15072

>  <SCORE.INTRA.norm>
-0.0738693

>  <SCORE.RESTR>
0

>  <SCORE.RESTR.CAVITY>
0

>  <SCORE.RESTR.norm>
0

>  <SCORE.SYSTEM>
0

>  <SCORE.SYSTEM.CONST>
0

>  <SCORE.SYSTEM.DIHEDRAL>
0

>  <SCORE.SYSTEM.SOLV>
0

>  <SCORE.SYSTEM.norm>
0

>  <SCORE.heavy>
26

>  <SCORE.norm>
-0.822142

>  <RMSD>
10.734

$$$$
ligand
 OpenBabel11021811473D
libRbt.so/2013.1/901 2013/11/27
 26 27  0  0  0  0  0  0  0  0999 V2000
   -3.9326  -17.5903   17.9206 C   0  0  0  0  0  0  0  0  0  0  0  0
    0.0300  -17.8486   18.3161 C   0  0  0  0  0  0  0  0  0  0  0  0
   -0.8911  -17.6270   17.2977 C   0  0  0  0  0  0  0  0  0  0  0  0
   -1.4849  -16.2513   16.9854 C   0  0  0  0  0  0  0  0  0  0  0  0
   -3.7890  -16.9781   16.5241 C   0  0  1  0  0  0  0  0  0  0  0  0
    0.6828  -21.5780   17.8714 C   0  0  0  0  0  0  0  0  0  0  0  0
    0.1169  -20.1702   17.6791 C   0  0  0  0  0  0  0  0  0  0  0  0
   -1.2695  -18.7116   16.5130 C   0  0  0  0  0  0  0  0  0  0  0  0
   -2.6676  -15.8531   14.8931 C   0  0  0  0  0  0  0  0  0  0  0  0
   -4.8230  -17.0056   15.5959 C   0  0  2  0  0  0  0  0  0  0  0  0
   -6.2397  -17.5780   15.6889 C   0  0  0  0  0  0  0  0  0  0  0  0
   -6.3402  -18.7681   16.6460 C   0  0  0  0  0  0  0  0  0  0  0  0
    0.5452  -19.1309   18.5158 N   0  0  0  0  0  0  0  0  0  0  0  0
   -2.6694  -16.3697   16.1228 N   0  0  0  0  0  0  0  0  0  0  0  0
   -0.7756  -19.9198   16.7104 N   0  0  0  0  0  0  0  0  0  0  0  0
    0.3950  -16.9205   19.0381 O   0  0  0  0  0  0  0  0  0  0  0  0
   -8.1294  -19.9916   14.6165 O   0  5  0  0  0  0  0  0  0  0  0  0
   -3.9053  -20.9830   14.3586 O   0  0  0  0  0  0  0  0  0  0  0  0
   -5.9690  -19.9942   16.0085 O   0  0  0  0  0  0  0  0  0  0  0  0
   -6.3390  -21.7391   14.1371 O   0  0  0  0  0  0  0  0  0  0  0  0
   -4.6597  -23.2039   15.4498 O   0  5  0  0  0  0  0  0  0  0  0  0
   -7.6876  -21.8824   16.3228 O   0  0  0  0  0  0  0  0  0  0  0  0
   -4.4962  -23.0035   12.8961 O   0  0  0  0  0  0  0  0  0  0  0  0
   -4.1992  -16.2464   14.1580 S   0  0  0  0  0  0  0  0  0  0  0  0
   -7.0693  -20.9622   15.3408 P   0  0  2  0  0  0  0  0  0  0  0  0
   -4.8386  -22.2929   14.2971 P   0  0  2  0  0  0  0  0  0  0  0  0
  2 16  2  0  0  0  0
  2  3  1  0  0  0  0
  2 13  1  0  0  0  0
  3  8  2  0  0  0  0
  3  4  1  0  0  0  0
  4 14  1  0  0  0  0
  5  1  1  1  0  0  0
  5 14  1  0  0  0  0
  5 10  1  0  0  0  0
  6  7  1  0  0  0  0
  7 13  1  0  0  0  0
  7 15  2  0  0  0  0
  8 15  1  0  0  0  0
  9 14  1  0  0  0  0
  9 24  1  0  0  0  0
 10 24  1  0  0  0  0
 10 11  1  6  0  0  0
 11 12  1  0  0  0  0
 12 19  1  0  0  0  0
 17 25  1  0  0  0  0
 19 25  1  0  0  0  0
 20 26  1  0  0  0  0
 21 26  1  0  0  0  0
 22 25  2  0  0  0  0
 23 26  2  0  0  0  0
 25 20  1  6  0  0  0
 26 18  1  1  0  0  0
M  CHG  2  17  -1  21  -1
M  END
>  <CHROM.1>
-164.89730493,-28.95356268,-83.88967734,64.56902008,-94.29015295,152.73352185
39.75789561,-69.07982477,-3.81325532,-19.36619366,15.91754002,0.54477925
-0.40370753,0.08326871

>  <Name>
ligand

>  <RI>
0

>  <Rbt.Current_Directory>
/home/itssahil/PROJECTS/Mol_Feturizer/New_Systems/rnas/3D2X

>  <Rbt.Executable>
rbdock ($Id: //depot/dev/client3/rdock/2013.1/src/exe/rbdock.cxx#4 $)

>  <Rbt.Library>
libRbt.so (2013.1, Build901 2013/11/27)

>  <Rbt.Parameter_File>
/export/apps/rDock/src/rDock_2013.1_src/data/scripts/dock_solv.prm

>  <Rbt.Receptor>
prm/blind_docking_60.prm

>  <SCORE>
-4.86969

>  <SCORE.INTER>
-8.00496

>  <SCORE.INTER.CONST>
1

>  <SCORE.INTER.POLAR>
0

>  <SCORE.INTER.ROT>
8

>  <SCORE.INTER.SOLV>
15.2808

>  <SCORE.INTER.VDW>
-19.3636

>  <SCORE.INTER.norm>
-0.307883

>  <SCORE.INTRA>
3.12495

>  <SCORE.INTRA.DIHEDRAL>
5.04431

>  <SCORE.INTRA.DIHEDRAL.0>
7.88077

>  <SCORE.INTRA.POLAR>
0

>  <SCORE.INTRA.POLAR.0>
0

>  <SCORE.INTRA.REPUL>
0

>  <SCORE.INTRA.REPUL.0>
0

>  <SCORE.INTRA.SOLV>
-2.04805

>  <SCORE.INTRA.SOLV.lig_0>
-63.2542

>  <SCORE.INTRA.VDW>
1.62681

>  <SCORE.INTRA.VDW.0>
-3.15072

>  <SCORE.INTRA.norm>
0.12019

>  <SCORE.RESTR>
0.0103292

>  <SCORE.RESTR.CAVITY>
0.0103292

>  <SCORE.RESTR.norm>
0.000397276

>  <SCORE.SYSTEM>
0

>  <SCORE.SYSTEM.CONST>
0

>  <SCORE.SYSTEM.DIHEDRAL>
0

>  <SCORE.SYSTEM.SOLV>
0

>  <SCORE.SYSTEM.norm>
0

>  <SCORE.heavy>
26

>  <SCORE.norm>
-0.187296

>  <RMSD>
10.749

$$$$
ligand
 OpenBabel11021811473D
libRbt.so/2013.1/901 2013/11/27
 26 27  0  0  0  0  0  0  0  0999 V2000
   -1.7372  -17.4601   17.3447 C   0  0  0  0  0  0  0  0  0  0  0  0
   -5.0002  -17.9987   15.6211 C   0  0  0  0  0  0  0  0  0  0  0  0
   -4.0166  -18.8458   15.1214 C   0  0  0  0  0  0  0  0  0  0  0  0
   -2.6301  -18.3622   14.6899 C   0  0  0  0  0  0  0  0  0  0  0  0
   -1.1457  -18.6763   16.6259 C   0  0  1  0  0  0  0  0  0  0  0  0
   -7.7784  -20.5048   16.3516 C   0  0  0  0  0  0  0  0  0  0  0  0
   -6.4440  -19.9062   15.9043 C   0  0  0  0  0  0  0  0  0  0  0  0
   -4.3078  -20.2033   15.0337 C   0  0  0  0  0  0  0  0  0  0  0  0
   -0.9981  -20.1582   14.9039 C   0  0  0  0  0  0  0  0  0  0  0  0
   -0.1408  -19.4518   17.1916 C   0  0  2  0  0  0  0  0  0  0  0  0
    0.5762  -19.3375   18.5394 C   0  0  0  0  0  0  0  0  0  0  0  0
    2.0360  -18.8987   18.4026 C   0  0  0  0  0  0  0  0  0  0  0  0
   -6.2301  -18.5262   16.0198 N   0  0  0  0  0  0  0  0  0  0  0  0
   -1.5708  -19.0710   15.4224 N   0  0  0  0  0  0  0  0  0  0  0  0
   -5.4740  -20.6913   15.4140 N   0  0  0  0  0  0  0  0  0  0  0  0
   -4.7904  -16.7893   15.7167 O   0  0  0  0  0  0  0  0  0  0  0  0
    4.3082  -17.7299   21.3857 O   0  5  0  0  0  0  0  0  0  0  0  0
    6.5852  -19.8129   21.5208 O   0  0  0  0  0  0  0  0  0  0  0  0
    2.6542  -18.7078   19.6790 O   0  0  0  0  0  0  0  0  0  0  0  0
    5.1903  -19.1669   19.4762 O   0  0  0  0  0  0  0  0  0  0  0  0
    7.7066  -19.6927   19.1926 O   0  5  0  0  0  0  0  0  0  0  0  0
    4.2557  -16.8257   18.9647 O   0  0  0  0  0  0  0  0  0  0  0  0
    6.9490  -17.5466   20.3794 O   0  0  0  0  0  0  0  0  0  0  0  0
    0.2440  -20.6752   16.0133 S   0  0  0  0  0  0  0  0  0  0  0  0
    4.1075  -18.0279   19.8168 P   0  0  2  0  0  0  0  0  0  0  0  0
    6.6788  -19.1029   20.0793 P   0  0  2  0  0  0  0  0  0  0  0  0
  2 16  2  0  0  0  0
  2  3  1  0  0  0  0
  2 13  1  0  0  0  0
  3  8  2  0  0  0  0
  3  4  1  0  0  0  0
  4 14  1  0  0  0  0
  5  1  1  1  0  0  0
  5 14  1  0  0  0  0
  5 10  1  0  0  0  0
  6  7  1  0  0  0  0
  7 13  1  0  0  0  0
  7 15  2  0  0  0  0
  8 15  1  0  0  0  0
  9 14  1  0  0  0  0
  9 24  1  0  0  0  0
 10 24  1  0  0  0  0
 10 11  1  6  0  0  0
 11 12  1  0  0  0  0
 12 19  1  0  0  0  0
 17 25  1  0  0  0  0
 19 25  1  0  0  0  0
 20 26  1  0  0  0  0
 21 26  1  0  0  0  0
 22 25  2  0  0  0  0
 23 26  2  0  0  0  0
 25 20  1  6  0  0  0
 26 18  1  1  0  0  0
M  CHG  2  17  -1  21  -1
M  END
>  <CHROM.1>
123.15648810,-110.01716536,175.84922267,-85.25786335,-170.28068920,-41.62451647
168.95679532,86.32967857,0.65082259,-18.93797094,17.75909193,2.86470649,0.29284678
-2.48965609

>  <Name>
ligand

>  <RI>
0

>  <Rbt.Current_Directory>
/home/itssahil/PROJECTS/Mol_Feturizer/New_Systems/rnas/3D2X

>  <Rbt.Executable>
rbdock ($Id: //depot/dev/client3/rdock/2013.1/src/exe/rbdock.cxx#4 $)

>  <Rbt.Library>
libRbt.so (2013.1, Build901 2013/11/27)

>  <Rbt.Parameter_File>
/export/apps/rDock/src/rDock_2013.1_src/data/scripts/dock_solv.prm

>  <Rbt.Receptor>
prm/blind_docking_60.prm

>  <SCORE>
-17.4067

>  <SCORE.INTER>
-17.1064

>  <SCORE.INTER.CONST>
1

>  <SCORE.INTER.POLAR>
0

>  <SCORE.INTER.ROT>
8

>  <SCORE.INTER.SOLV>
21.7401

>  <SCORE.INTER.VDW>
-27.5843

>  <SCORE.INTER.norm>
-0.657938

>  <SCORE.INTRA>
-0.34411

>  <SCORE.INTRA.DIHEDRAL>
0.0999988

>  <SCORE.INTRA.DIHEDRAL.0>
7.88077

>  <SCORE.INTRA.POLAR>
0

>  <SCORE.INTRA.POLAR.0>
0

>  <SCORE.INTRA.REPUL>
0

>  <SCORE.INTRA.REPUL.0>
0

>  <SCORE.INTRA.SOLV>
-0.164658

>  <SCORE.INTRA.SOLV.lig_0>
-63.2542

>  <SCORE.INTRA.VDW>
-0.31178

>  <SCORE.INTRA.VDW.0>
-3.15072

>  <SCORE.INTRA.norm>
-0.013235

>  <SCORE.RESTR>
0.0437513

>  <SCORE.RESTR.CAVITY>
0.0437513

>  <SCORE.RESTR.norm>
0.00168274

>  <SCORE.SYSTEM>
0

>  <SCORE.SYSTEM.CONST>
0

>  <SCORE.SYSTEM.DIHEDRAL>
0

>  <SCORE.SYSTEM.SOLV>
0

>  <SCORE.SYSTEM.norm>
0

>  <SCORE.heavy>
26

>  <SCORE.norm>
-0.66949

>  <RMSD>
10.792

$$$$
ligand
 OpenBabel11021811473D
libRbt.so/2013.1/901 2013/11/27
 26 27  0  0  0  0  0  0  0  0999 V2000
   -0.0710  -22.1081   17.9606 C   0  0  0  0  0  0  0  0  0  0  0  0
    1.4754  -18.0797   18.7064 C   0  0  0  0  0  0  0  0  0  0  0  0
    0.7665  -18.5078   17.5888 C   0  0  0  0  0  0  0  0  0  0  0  0
    1.1676  -19.7268   16.7546 C   0  0  0  0  0  0  0  0  0  0  0  0
   -0.5858  -21.4500   16.6770 C   0  0  1  0  0  0  0  0  0  0  0  0
   -0.6586  -15.1148   19.7963 C   0  0  0  0  0  0  0  0  0  0  0  0
   -0.1395  -16.3176   19.0071 C   0  0  0  0  0  0  0  0  0  0  0  0
   -0.3767  -17.8004   17.2310 C   0  0  0  0  0  0  0  0  0  0  0  0
   -0.5600  -19.8653   15.0426 C   0  0  0  0  0  0  0  0  0  0  0  0
   -1.6939  -21.9343   15.9921 C   0  0  2  0  0  0  0  0  0  0  0  0
   -2.6181  -23.1181   16.2886 C   0  0  0  0  0  0  0  0  0  0  0  0
   -4.0605  -22.8756   15.8380 C   0  0  0  0  0  0  0  0  0  0  0  0
    1.0243  -16.9737   19.4297 N   0  0  0  0  0  0  0  0  0  0  0  0
   -0.0106  -20.3654   16.1504 N   0  0  0  0  0  0  0  0  0  0  0  0
   -0.7943  -16.7563   17.9225 N   0  0  0  0  0  0  0  0  0  0  0  0
    2.4942  -18.6724   19.0620 O   0  0  0  0  0  0  0  0  0  0  0  0
   -4.9917  -20.0535   14.9593 O   0  5  0  0  0  0  0  0  0  0  0  0
   -6.8456  -17.8077   18.7384 O   0  0  0  0  0  0  0  0  0  0  0  0
   -4.7309  -21.9385   16.6866 O   0  0  0  0  0  0  0  0  0  0  0  0
   -5.7038  -19.6430   17.3704 O   0  0  0  0  0  0  0  0  0  0  0  0
   -4.3163  -17.6342   18.2237 O   0  5  0  0  0  0  0  0  0  0  0  0
   -3.2025  -19.8734   16.8162 O   0  0  0  0  0  0  0  0  0  0  0  0
   -6.0449  -17.3234   16.3519 O   0  0  0  0  0  0  0  0  0  0  0  0
   -1.8766  -20.9159   14.5911 S   0  0  0  0  0  0  0  0  0  0  0  0
   -4.5645  -20.3498   16.4825 P   0  0  2  0  0  0  0  0  0  0  0  0
   -5.6339  -18.0742   17.7130 P   0  0  2  0  0  0  0  0  0  0  0  0
  2 16  2  0  0  0  0
  2  3  1  0  0  0  0
  2 13  1  0  0  0  0
  3  8  2  0  0  0  0
  3  4  1  0  0  0  0
  4 14  1  0  0  0  0
  5  1  1  1  0  0  0
  5 14  1  0  0  0  0
  5 10  1  0  0  0  0
  6  7  1  0  0  0  0
  7 13  1  0  0  0  0
  7 15  2  0  0  0  0
  8 15  1  0  0  0  0
  9 14  1  0  0  0  0
  9 24  1  0  0  0  0
 10 24  1  0  0  0  0
 10 11  1  6  0  0  0
 11 12  1  0  0  0  0
 12 19  1  0  0  0  0
 17 25  1  0  0  0  0
 19 25  1  0  0  0  0
 20 26  1  0  0  0  0
 21 26  1  0  0  0  0
 22 25  2  0  0  0  0
 23 26  2  0  0  0  0
 25 20  1  1  0  0  0
 26 18  1  1  0  0  0
M  CHG  2  17  -1  21  -1
M  END
>  <CHROM.1>
149.93326184,147.39856905,-72.78946887,-99.21177873,82.92883452,-83.25878744
55.91169635,-173.84735263,-2.39875627,-19.40717967,17.09740253,-0.36386879
0.08715202,-2.61756585

>  <Name>
ligand

>  <RI>
0

>  <Rbt.Current_Directory>
/home/itssahil/PROJECTS/Mol_Feturizer/New_Systems/rnas/3D2X

>  <Rbt.Executable>
rbdock ($Id: //depot/dev/client3/rdock/2013.1/src/exe/rbdock.cxx#4 $)

>  <Rbt.Library>
libRbt.so (2013.1, Build901 2013/11/27)

>  <Rbt.Parameter_File>
/export/apps/rDock/src/rDock_2013.1_src/data/scripts/dock_solv.prm

>  <Rbt.Receptor>
prm/blind_docking_80.prm

>  <SCORE>
-18.9764

>  <SCORE.INTER>
-20.661

>  <SCORE.INTER.CONST>
1

>  <SCORE.INTER.POLAR>
0

>  <SCORE.INTER.ROT>
8

>  <SCORE.INTER.SOLV>
20.1844

>  <SCORE.INTER.VDW>
-29.4354

>  <SCORE.INTER.norm>
-0.794652

>  <SCORE.INTRA>
1.65813

>  <SCORE.INTRA.DIHEDRAL>
0.799084

>  <SCORE.INTRA.DIHEDRAL.0>
7.88077

>  <SCORE.INTRA.POLAR>
0

>  <SCORE.INTRA.POLAR.0>
0

>  <SCORE.INTRA.REPUL>
0

>  <SCORE.INTRA.REPUL.0>
0

>  <SCORE.INTRA.SOLV>
4.42756

>  <SCORE.INTRA.SOLV.lig_0>
-63.2542

>  <SCORE.INTRA.VDW>
-0.955191

>  <SCORE.INTRA.VDW.0>
-3.15072

>  <SCORE.INTRA.norm>
0.0637743

>  <SCORE.RESTR>
0.0264675

>  <SCORE.RESTR.CAVITY>
0.0264675

>  <SCORE.RESTR.norm>
0.00101798

>  <SCORE.SYSTEM>
0

>  <SCORE.SYSTEM.CONST>
0

>  <SCORE.SYSTEM.DIHEDRAL>
0

>  <SCORE.SYSTEM.SOLV>
0

>  <SCORE.SYSTEM.norm>
0

>  <SCORE.heavy>
26

>  <SCORE.norm>
-0.72986

>  <RMSD>
10.793

$$$$
ligand
 OpenBabel11021811473D
libRbt.so/2013.1/901 2013/11/27
 26 27  0  0  0  0  0  0  0  0999 V2000
   -1.7881  -17.5789   17.4654 C   0  0  0  0  0  0  0  0  0  0  0  0
   -4.2100  -20.3758   14.9722 C   0  0  0  0  0  0  0  0  0  0  0  0
   -3.8067  -19.0716   15.2392 C   0  0  0  0  0  0  0  0  0  0  0  0
   -2.4793  -18.4854   14.7525 C   0  0  0  0  0  0  0  0  0  0  0  0
   -1.0090  -18.6641   16.7163 C   0  0  1  0  0  0  0  0  0  0  0  0
   -7.6351  -20.4069   16.6457 C   0  0  0  0  0  0  0  0  0  0  0  0
   -6.2649  -19.9404   16.1516 C   0  0  0  0  0  0  0  0  0  0  0  0
   -4.6694  -18.2581   15.9669 C   0  0  0  0  0  0  0  0  0  0  0  0
   -0.6075  -20.0331   14.9422 C   0  0  0  0  0  0  0  0  0  0  0  0
    0.0855  -19.3093   17.2796 C   0  0  2  0  0  0  0  0  0  0  0  0
    0.7474  -19.1504   18.6507 C   0  0  0  0  0  0  0  0  0  0  0  0
    1.2379  -17.7248   18.9143 C   0  0  0  0  0  0  0  0  0  0  0  0
   -5.4513  -20.8232   15.4291 N   0  0  0  0  0  0  0  0  0  0  0  0
   -1.3446  -19.0640   15.4866 N   0  0  0  0  0  0  0  0  0  0  0  0
   -5.8410  -18.6915   16.3936 N   0  0  0  0  0  0  0  0  0  0  0  0
   -3.4807  -21.1343   14.3331 O   0  0  0  0  0  0  0  0  0  0  0  0
    3.5898  -19.9298   19.3701 O   0  5  0  0  0  0  0  0  0  0  0  0
    6.3062  -20.1301   18.7360 O   0  0  0  0  0  0  0  0  0  0  0  0
    2.6562  -17.6146   18.7593 O   0  0  0  0  0  0  0  0  0  0  0  0
    5.1584  -17.9230   19.3314 O   0  0  0  0  0  0  0  0  0  0  0  0
    7.7260  -18.1310   19.5606 O   0  5  0  0  0  0  0  0  0  0  0  0
    3.3788  -18.0970   21.1806 O   0  0  0  0  0  0  0  0  0  0  0  0
    6.1681  -19.3708   21.1805 O   0  0  0  0  0  0  0  0  0  0  0  0
    0.6715  -20.4118   16.0654 S   0  0  0  0  0  0  0  0  0  0  0  0
    3.6726  -18.3691   19.7548 P   0  0  2  0  0  0  0  0  0  0  0  0
    6.4316  -18.8374   19.6867 P   0  0  2  0  0  0  0  0  0  0  0  0
  2 16  2  0  0  0  0
  2  3  1  0  0  0  0
  2 13  1  0  0  0  0
  3  8  2  0  0  0  0
  3  4  1  0  0  0  0
  4 14  1  0  0  0  0
  5  1  1  1  0  0  0
  5 14  1  0  0  0  0
  5 10  1  0  0  0  0
  6  7  1  0  0  0  0
  7 13  1  0  0  0  0
  7 15  2  0  0  0  0
  8 15  1  0  0  0  0
  9 14  1  0  0  0  0
  9 24  1  0  0  0  0
 10 24  1  0  0  0  0
 10 11  1  6  0  0  0
 11 12  1  0  0  0  0
 12 19  1  0  0  0  0
 17 25  1  0  0  0  0
 19 25  1  0  0  0  0
 20 26  1  0  0  0  0
 21 26  1  0  0  0  0
 22 25  2  0  0  0  0
 23 26  2  0  0  0  0
 25 20  1  6  0  0  0
 26 18  1  6  0  0  0
M  CHG  2  17  -1  21  -1
M  END
>  <CHROM.1>
-71.51993405,-58.30714032,-103.18722507,-78.79783793,-66.05374201,-44.71054969
72.76121382,70.49500716,0.63514527,-19.13500404,17.66004629,2.76540388,0.12933343
-2.12116856

>  <Name>
ligand

>  <RI>
0

>  <Rbt.Current_Directory>
/home/itssahil/PROJECTS/Mol_Feturizer/New_Systems/rnas/3D2X

>  <Rbt.Executable>
rbdock ($Id: //depot/dev/client3/rdock/2013.1/src/exe/rbdock.cxx#4 $)

>  <Rbt.Library>
libRbt.so (2013.1, Build901 2013/11/27)

>  <Rbt.Parameter_File>
/export/apps/rDock/src/rDock_2013.1_src/data/scripts/dock_solv.prm

>  <Rbt.Receptor>
prm/blind_docking_60.prm

>  <SCORE>
-19.6561

>  <SCORE.INTER>
-21.0519

>  <SCORE.INTER.CONST>
1

>  <SCORE.INTER.POLAR>
0

>  <SCORE.INTER.ROT>
8

>  <SCORE.INTER.SOLV>
18.9381

>  <SCORE.INTER.VDW>
-29.2806

>  <SCORE.INTER.norm>
-0.809687

>  <SCORE.INTRA>
1.39574

>  <SCORE.INTRA.DIHEDRAL>
2.45745

>  <SCORE.INTRA.DIHEDRAL.0>
7.88077

>  <SCORE.INTRA.POLAR>
0

>  <SCORE.INTRA.POLAR.0>
0

>  <SCORE.INTRA.REPUL>
0

>  <SCORE.INTRA.REPUL.0>
0

>  <SCORE.INTRA.SOLV>
1.00578

>  <SCORE.INTRA.SOLV.lig_0>
-63.2542

>  <SCORE.INTRA.VDW>
-0.335878

>  <SCORE.INTRA.VDW.0>
-3.15072

>  <SCORE.INTRA.norm>
0.0536821

>  <SCORE.RESTR>
0

>  <SCORE.RESTR.CAVITY>
0

>  <SCORE.RESTR.norm>
0

>  <SCORE.SYSTEM>
0

>  <SCORE.SYSTEM.CONST>
0

>  <SCORE.SYSTEM.DIHEDRAL>
0

>  <SCORE.SYSTEM.SOLV>
0

>  <SCORE.SYSTEM.norm>
0

>  <SCORE.heavy>
26

>  <SCORE.norm>
-0.756005

>  <RMSD>
10.798

$$$$
ligand
 OpenBabel11021811473D
libRbt.so/2013.1/901 2013/11/27
 26 27  0  0  0  0  0  0  0  0999 V2000
    0.3366  -19.8934   15.8990 C   0  0  0  0  0  0  0  0  0  0  0  0
   -3.6735  -21.9025   15.6448 C   0  0  0  0  0  0  0  0  0  0  0  0
   -3.6662  -20.5634   15.2685 C   0  0  0  0  0  0  0  0  0  0  0  0
   -2.4028  -19.8207   14.8270 C   0  0  0  0  0  0  0  0  0  0  0  0
   -0.7228  -18.8895   16.3634 C   0  0  1  0  0  0  0  0  0  0  0  0
   -7.3836  -22.4096   16.3591 C   0  0  0  0  0  0  0  0  0  0  0  0
   -6.0541  -21.7542   15.9824 C   0  0  0  0  0  0  0  0  0  0  0  0
   -4.8765  -19.8775   15.2747 C   0  0  0  0  0  0  0  0  0  0  0  0
   -2.7901  -17.9369   16.3223 C   0  0  0  0  0  0  0  0  0  0  0  0
   -0.4544  -17.9260   17.3282 C   0  0  2  0  0  0  0  0  0  0  0  0
    0.8259  -17.6169   18.1085 C   0  0  0  0  0  0  0  0  0  0  0  0
    1.2453  -18.7557   19.0409 C   0  0  0  0  0  0  0  0  0  0  0  0
   -4.8762  -22.5127   16.0067 N   0  0  0  0  0  0  0  0  0  0  0  0
   -1.9594  -18.8715   15.8582 N   0  0  0  0  0  0  0  0  0  0  0  0
   -6.0078  -20.4646   15.6183 N   0  0  0  0  0  0  0  0  0  0  0  0
   -2.6273  -22.5515   15.6565 O   0  0  0  0  0  0  0  0  0  0  0  0
    4.1669  -17.7028   21.4527 O   0  5  0  0  0  0  0  0  0  0  0  0
    6.5898  -18.3401   19.9100 O   0  0  0  0  0  0  0  0  0  0  0  0
    2.0388  -18.2818   20.1335 O   0  0  0  0  0  0  0  0  0  0  0  0
    4.2933  -19.4146   19.5704 O   0  0  0  0  0  0  0  0  0  0  0  0
    6.4303  -20.8311   19.2307 O   0  5  0  0  0  0  0  0  0  0  0  0
    3.9136  -16.9359   18.9972 O   0  0  0  0  0  0  0  0  0  0  0  0
    5.8083  -18.9879   17.5561 O   0  0  0  0  0  0  0  0  0  0  0  0
   -1.9440  -17.0556   17.5666 S   0  0  0  0  0  0  0  0  0  0  0  0
    3.6180  -18.0115   19.9715 P   0  0  2  0  0  0  0  0  0  0  0  0
    5.8234  -19.4893   19.0837 P   0  0  2  0  0  0  0  0  0  0  0  0
  2 16  2  0  0  0  0
  2  3  1  0  0  0  0
  2 13  1  0  0  0  0
  3  8  2  0  0  0  0
  3  4  1  0  0  0  0
  4 14  1  0  0  0  0
  5  1  1  6  0  0  0
  5 14  1  0  0  0  0
  5 10  1  0  0  0  0
  6  7  1  0  0  0  0
  7 13  1  0  0  0  0
  7 15  2  0  0  0  0
  8 15  1  0  0  0  0
  9 14  1  0  0  0  0
  9 24  1  0  0  0  0
 10 24  1  0  0  0  0
 10 11  1  1  0  0  0
 11 12  1  0  0  0  0
 12 19  1  0  0  0  0
 17 25  1  0  0  0  0
 19 25  1  0  0  0  0
 20 26  1  0  0  0  0
 21 26  1  0  0  0  0
 22 25  2  0  0  0  0
 23 26  2  0  0  0  0
 25 20  1  6  0  0  0
 26 18  1  1  0  0  0
M  CHG  2  17  -1  21  -1
M  END
>  <CHROM.1>
-107.59793254,-64.89098490,-155.00959082,125.33169954,-81.93077661,-78.30700125
-172.00588683,33.66092351,0.38627832,-19.31050711,17.70252484,-2.82843227
-0.28121064,0.34460913

>  <Name>
ligand

>  <RI>
0

>  <Rbt.Current_Directory>
/home/itssahil/PROJECTS/Mol_Feturizer/New_Systems/rnas/3D2X

>  <Rbt.Executable>
rbdock ($Id: //depot/dev/client3/rdock/2013.1/src/exe/rbdock.cxx#4 $)

>  <Rbt.Library>
libRbt.so (2013.1, Build901 2013/11/27)

>  <Rbt.Parameter_File>
/export/apps/rDock/src/rDock_2013.1_src/data/scripts/dock_solv.prm

>  <Rbt.Receptor>
prm/blind_docking_80.prm

>  <SCORE>
-15.2502

>  <SCORE.INTER>
-15.6075

>  <SCORE.INTER.CONST>
1

>  <SCORE.INTER.POLAR>
0

>  <SCORE.INTER.ROT>
8

>  <SCORE.INTER.SOLV>
24.7093

>  <SCORE.INTER.VDW>
-27.5748

>  <SCORE.INTER.norm>
-0.600289

>  <SCORE.INTRA>
0.357341

>  <SCORE.INTRA.DIHEDRAL>
1.953

>  <SCORE.INTRA.DIHEDRAL.0>
7.88077

>  <SCORE.INTRA.POLAR>
0

>  <SCORE.INTRA.POLAR.0>
0

>  <SCORE.INTRA.REPUL>
0

>  <SCORE.INTRA.REPUL.0>
0

>  <SCORE.INTRA.SOLV>
-0.754632

>  <SCORE.INTRA.SOLV.lig_0>
-63.2542

>  <SCORE.INTRA.VDW>
-0.241844

>  <SCORE.INTRA.VDW.0>
-3.15072

>  <SCORE.INTRA.norm>
0.0137439

>  <SCORE.RESTR>
0

>  <SCORE.RESTR.CAVITY>
0

>  <SCORE.RESTR.norm>
0

>  <SCORE.SYSTEM>
0

>  <SCORE.SYSTEM.CONST>
0

>  <SCORE.SYSTEM.DIHEDRAL>
0

>  <SCORE.SYSTEM.SOLV>
0

>  <SCORE.SYSTEM.norm>
0

>  <SCORE.heavy>
26

>  <SCORE.norm>
-0.586545

>  <RMSD>
10.798

$$$$
ligand
 OpenBabel11021811473D
libRbt.so/2013.1/901 2013/11/27
 26 27  0  0  0  0  0  0  0  0999 V2000
    0.2580  -22.1311   18.4690 C   0  0  0  0  0  0  0  0  0  0  0  0
    2.3233  -17.5924   19.6532 C   0  0  0  0  0  0  0  0  0  0  0  0
    1.4896  -18.2787   18.7764 C   0  0  0  0  0  0  0  0  0  0  0  0
    1.8264  -19.6560   18.1999 C   0  0  0  0  0  0  0  0  0  0  0  0
    0.1285  -21.1779   17.2773 C   0  0  1  0  0  0  0  0  0  0  0  0
    0.2311  -14.4750   20.3142 C   0  0  0  0  0  0  0  0  0  0  0  0
    0.6901  -15.8248   19.7607 C   0  0  0  0  0  0  0  0  0  0  0  0
    0.2797  -17.6866   18.4284 C   0  0  0  0  0  0  0  0  0  0  0  0
    0.6333  -19.2911   16.1075 C   0  0  0  0  0  0  0  0  0  0  0  0
   -0.7579  -21.4162   16.2338 C   0  0  2  0  0  0  0  0  0  0  0  0
   -1.7509  -22.5580   16.0021 C   0  0  0  0  0  0  0  0  0  0  0  0
   -3.1565  -22.0638   15.6522 C   0  0  0  0  0  0  0  0  0  0  0  0
    1.9269  -16.3516   20.1561 N   0  0  0  0  0  0  0  0  0  0  0  0
    0.8474  -20.0561   17.1789 N   0  0  0  0  0  0  0  0  0  0  0  0
   -0.0852  -16.5131   18.9104 N   0  0  0  0  0  0  0  0  0  0  0  0
    3.4048  -18.0747   19.9899 O   0  0  0  0  0  0  0  0  0  0  0  0
   -6.0607  -20.4753   17.0418 O   0  5  0  0  0  0  0  0  0  0  0  0
   -4.5394  -16.0536   17.0369 O   0  0  0  0  0  0  0  0  0  0  0  0
   -3.6030  -21.0500   16.5580 O   0  0  0  0  0  0  0  0  0  0  0  0
   -4.3742  -18.5895   16.7439 O   0  0  0  0  0  0  0  0  0  0  0  0
   -6.2469  -17.2817   15.5308 O   0  5  0  0  0  0  0  0  0  0  0  0
   -5.0539  -20.0067   14.7077 O   0  0  0  0  0  0  0  0  0  0  0  0
   -6.3101  -17.5867   18.0786 O   0  0  0  0  0  0  0  0  0  0  0  0
   -0.5287  -20.1137   15.1007 S   0  0  0  0  0  0  0  0  0  0  0  0
   -4.7866  -20.0316   16.1641 P   0  0  2  0  0  0  0  0  0  0  0  0
   -5.4216  -17.3703   16.7561 P   0  0  2  0  0  0  0  0  0  0  0  0
  2 16  2  0  0  0  0
  2  3  1  0  0  0  0
  2 13  1  0  0  0  0
  3  8  2  0  0  0  0
  3  4  1  0  0  0  0
  4 14  1  0  0  0  0
  5  1  1  1  0  0  0
  5 14  1  0  0  0  0
  5 10  1  0  0  0  0
  6  7  1  0  0  0  0
  7 13  1  0  0  0  0
  7 15  2  0  0  0  0
  8 15  1  0  0  0  0
  9 14  1  0  0  0  0
  9 24  1  0  0  0  0
 10 24  1  0  0  0  0
 10 11  1  6  0  0  0
 11 12  1  0  0  0  0
 12 19  1  0  0  0  0
 17 25  1  0  0  0  0
 19 25  1  0  0  0  0
 20 26  1  0  0  0  0
 21 26  1  0  0  0  0
 22 25  2  0  0  0  0
 23 26  2  0  0  0  0
 25 20  1  1  0  0  0
 26 18  1  1  0  0  0
M  CHG  2  17  -1  21  -1
M  END
>  <CHROM.1>
-172.86877024,129.95635872,-48.55642533,-121.92682448,159.44877054,-57.78769607
108.02185575,-165.70070353,-1.89973523,-18.93873426,17.27819065,-0.32936971
0.27787888,-2.67099476

>  <Name>
ligand

>  <RI>
0

>  <Rbt.Current_Directory>
/home/itssahil/PROJECTS/Mol_Feturizer/New_Systems/rnas/3D2X

>  <Rbt.Executable>
rbdock ($Id: //depot/dev/client3/rdock/2013.1/src/exe/rbdock.cxx#4 $)

>  <Rbt.Library>
libRbt.so (2013.1, Build901 2013/11/27)

>  <Rbt.Parameter_File>
/export/apps/rDock/src/rDock_2013.1_src/data/scripts/dock_solv.prm

>  <Rbt.Receptor>
prm/blind_docking_60.prm

>  <SCORE>
-17.101

>  <SCORE.INTER>
-18.5087

>  <SCORE.INTER.CONST>
1

>  <SCORE.INTER.POLAR>
0

>  <SCORE.INTER.ROT>
8

>  <SCORE.INTER.SOLV>
20.5711

>  <SCORE.INTER.VDW>
-28.1295

>  <SCORE.INTER.norm>
-0.711873

>  <SCORE.INTRA>
1.40765

>  <SCORE.INTRA.DIHEDRAL>
2.16294

>  <SCORE.INTRA.DIHEDRAL.0>
7.88077

>  <SCORE.INTRA.POLAR>
0

>  <SCORE.INTRA.POLAR.0>
0

>  <SCORE.INTRA.REPUL>
0

>  <SCORE.INTRA.REPUL.0>
0

>  <SCORE.INTRA.SOLV>
0.334267

>  <SCORE.INTRA.SOLV.lig_0>
-63.2542

>  <SCORE.INTRA.VDW>
0.159044

>  <SCORE.INTRA.VDW.0>
-3.15072

>  <SCORE.INTRA.norm>
0.0541403

>  <SCORE.RESTR>
0

>  <SCORE.RESTR.CAVITY>
0

>  <SCORE.RESTR.norm>
0

>  <SCORE.SYSTEM>
0

>  <SCORE.SYSTEM.CONST>
0

>  <SCORE.SYSTEM.DIHEDRAL>
0

>  <SCORE.SYSTEM.SOLV>
0

>  <SCORE.SYSTEM.norm>
0

>  <SCORE.heavy>
26

>  <SCORE.norm>
-0.657733

>  <RMSD>
10.802

$$$$
ligand
 OpenBabel11021811473D
libRbt.so/2013.1/901 2013/11/27
 26 27  0  0  0  0  0  0  0  0999 V2000
   -1.7982  -20.5102   14.8288 C   0  0  0  0  0  0  0  0  0  0  0  0
   -0.2650  -17.9363   17.1909 C   0  0  0  0  0  0  0  0  0  0  0  0
    0.7372  -18.9003   17.1608 C   0  0  0  0  0  0  0  0  0  0  0  0
    0.8030  -20.0126   16.1115 C   0  0  0  0  0  0  0  0  0  0  0  0
   -1.2215  -21.3985   15.9352 C   0  0  1  0  0  0  0  0  0  0  0  0
    0.8714  -15.8364   20.1628 C   0  0  0  0  0  0  0  0  0  0  0  0
    0.8119  -16.9324   19.0976 C   0  0  0  0  0  0  0  0  0  0  0  0
    1.7394  -18.8297   18.1231 C   0  0  0  0  0  0  0  0  0  0  0  0
    0.3760  -22.0115   17.4370 C   0  0  0  0  0  0  0  0  0  0  0  0
   -1.8928  -22.5203   16.4067 C   0  0  2  0  0  0  0  0  0  0  0  0
   -3.2379  -23.1285   16.0015 C   0  0  0  0  0  0  0  0  0  0  0  0
   -4.3132  -22.0727   15.7343 C   0  0  0  0  0  0  0  0  0  0  0  0
   -0.2348  -16.9374   18.1662 N   0  0  0  0  0  0  0  0  0  0  0  0
   -0.0350  -21.1564   16.4995 N   0  0  0  0  0  0  0  0  0  0  0  0
    1.7583  -17.8805   19.0403 N   0  0  0  0  0  0  0  0  0  0  0  0
   -1.1743  -17.9576   16.3611 O   0  0  0  0  0  0  0  0  0  0  0  0
   -6.7903  -20.2609   17.1877 O   0  5  0  0  0  0  0  0  0  0  0  0
   -4.0039  -16.4389   18.4557 O   0  0  0  0  0  0  0  0  0  0  0  0
   -4.4002  -21.1225   16.8007 O   0  0  0  0  0  0  0  0  0  0  0  0
   -4.8142  -18.7760   17.8036 O   0  0  0  0  0  0  0  0  0  0  0  0
   -5.5088  -16.7367   16.3727 O   0  5  0  0  0  0  0  0  0  0  0  0
   -5.3253  -19.2303   15.3239 O   0  0  0  0  0  0  0  0  0  0  0  0
   -6.4744  -17.0661   18.7280 O   0  0  0  0  0  0  0  0  0  0  0  0
   -0.8962  -23.1804   17.6733 S   0  0  0  0  0  0  0  0  0  0  0  0
   -5.3284  -19.8116   16.6861 P   0  0  2  0  0  0  0  0  0  0  0  0
   -5.2153  -17.2208   17.7402 P   0  0  2  0  0  0  0  0  0  0  0  0
  2 16  2  0  0  0  0
  2  3  1  0  0  0  0
  2 13  1  0  0  0  0
  3  8  2  0  0  0  0
  3  4  1  0  0  0  0
  4 14  1  0  0  0  0
  5  1  1  6  0  0  0
  5 14  1  0  0  0  0
  5 10  1  0  0  0  0
  6  7  1  0  0  0  0
  7 13  1  0  0  0  0
  7 15  2  0  0  0  0
  8 15  1  0  0  0  0
  9 14  1  0  0  0  0
  9 24  1  0  0  0  0
 10 24  1  0  0  0  0
 10 11  1  1  0  0  0
 11 12  1  0  0  0  0
 12 19  1  0  0  0  0
 17 25  1  0  0  0  0
 19 25  1  0  0  0  0
 20 26  1  0  0  0  0
 21 26  1  0  0  0  0
 22 25  2  0  0  0  0
 23 26  2  0  0  0  0
 25 20  1  1  0  0  0
 26 18  1  1  0  0  0
M  CHG  2  17  -1  21  -1
M  END
>  <CHROM.1>
-84.48442381,-40.13013782,-49.80899913,103.97929491,172.60209834,-84.79963893
87.12459910,-151.48960135,-2.51153770,-19.41848861,17.20977507,0.06999016
0.13992278,-2.79899167

>  <Name>
ligand

>  <RI>
0

>  <Rbt.Current_Directory>
/home/itssahil/PROJECTS/Mol_Feturizer/New_Systems/rnas/3D2X

>  <Rbt.Executable>
rbdock ($Id: //depot/dev/client3/rdock/2013.1/src/exe/rbdock.cxx#4 $)

>  <Rbt.Library>
libRbt.so (2013.1, Build901 2013/11/27)

>  <Rbt.Parameter_File>
/export/apps/rDock/src/rDock_2013.1_src/data/scripts/dock_solv.prm

>  <Rbt.Receptor>
prm/blind_docking_40.prm

>  <SCORE>
-20.4287

>  <SCORE.INTER>
-20.9609

>  <SCORE.INTER.CONST>
1

>  <SCORE.INTER.POLAR>
0

>  <SCORE.INTER.ROT>
8

>  <SCORE.INTER.SOLV>
18.4803

>  <SCORE.INTER.VDW>
-29.0674

>  <SCORE.INTER.norm>
-0.806187

>  <SCORE.INTRA>
0.503709

>  <SCORE.INTRA.DIHEDRAL>
0.39813

>  <SCORE.INTRA.DIHEDRAL.0>
7.88077

>  <SCORE.INTRA.POLAR>
0

>  <SCORE.INTRA.POLAR.0>
0

>  <SCORE.INTRA.REPUL>
0

>  <SCORE.INTRA.REPUL.0>
0

>  <SCORE.INTRA.SOLV>
1.24015

>  <SCORE.INTRA.SOLV.lig_0>
-63.2542

>  <SCORE.INTRA.VDW>
-0.315432

>  <SCORE.INTRA.VDW.0>
-3.15072

>  <SCORE.INTRA.norm>
0.0193734

>  <SCORE.RESTR>
0.0284872

>  <SCORE.RESTR.CAVITY>
0.0284872

>  <SCORE.RESTR.norm>
0.00109566

>  <SCORE.SYSTEM>
0

>  <SCORE.SYSTEM.CONST>
0

>  <SCORE.SYSTEM.DIHEDRAL>
0

>  <SCORE.SYSTEM.SOLV>
0

>  <SCORE.SYSTEM.norm>
0

>  <SCORE.heavy>
26

>  <SCORE.norm>
-0.785718

>  <RMSD>
10.810

$$$$
ligand
 OpenBabel11021811473D
libRbt.so/2013.1/901 2013/11/27
 26 27  0  0  0  0  0  0  0  0999 V2000
   -0.3198  -20.2523   15.7677 C   0  0  0  0  0  0  0  0  0  0  0  0
   -4.9300  -17.9828   15.6718 C   0  0  0  0  0  0  0  0  0  0  0  0
   -3.8307  -18.8282   15.5642 C   0  0  0  0  0  0  0  0  0  0  0  0
   -2.4641  -18.3693   15.0500 C   0  0  0  0  0  0  0  0  0  0  0  0
   -0.5683  -18.9365   16.5111 C   0  0  1  0  0  0  0  0  0  0  0  0
   -7.5107  -20.3729   17.1418 C   0  0  0  0  0  0  0  0  0  0  0  0
   -6.2053  -19.8195   16.5682 C   0  0  0  0  0  0  0  0  0  0  0  0
   -3.9829  -20.1509   15.9676 C   0  0  0  0  0  0  0  0  0  0  0  0
   -1.6520  -16.9666   16.8688 C   0  0  0  0  0  0  0  0  0  0  0  0
    0.2195  -18.5336   17.5827 C   0  0  2  0  0  0  0  0  0  0  0  0
    1.4260  -19.2011   18.2478 C   0  0  0  0  0  0  0  0  0  0  0  0
    2.1978  -18.2543   19.1699 C   0  0  0  0  0  0  0  0  0  0  0  0
   -6.1343  -18.4754   16.1788 N   0  0  0  0  0  0  0  0  0  0  0  0
   -1.5450  -18.0937   16.1638 N   0  0  0  0  0  0  0  0  0  0  0  0
   -5.1261  -20.6057   16.4460 N   0  0  0  0  0  0  0  0  0  0  0  0
   -4.8452  -16.8042   15.3263 O   0  0  0  0  0  0  0  0  0  0  0  0
    3.3794  -17.4214   21.9208 O   0  5  0  0  0  0  0  0  0  0  0  0
    5.6761  -21.7357   21.6474 O   0  0  0  0  0  0  0  0  0  0  0  0
    3.2718  -18.9233   19.8382 O   0  0  0  0  0  0  0  0  0  0  0  0
    5.1390  -19.2352   21.5989 O   0  0  0  0  0  0  0  0  0  0  0  0
    5.6025  -20.4863   19.3833 O   0  5  0  0  0  0  0  0  0  0  0  0
    5.1501  -17.1789   20.0534 O   0  0  0  0  0  0  0  0  0  0  0  0
    7.5026  -20.0392   21.0500 O   0  0  0  0  0  0  0  0  0  0  0  0
   -0.4523  -17.0239   18.1330 S   0  0  0  0  0  0  0  0  0  0  0  0
    4.2911  -18.1279   20.7982 P   0  0  2  0  0  0  0  0  0  0  0  0
    5.9491  -20.3832   20.8185 P   0  0  2  0  0  0  0  0  0  0  0  0
  2 16  2  0  0  0  0
  2  3  1  0  0  0  0
  2 13  1  0  0  0  0
  3  8  2  0  0  0  0
  3  4  1  0  0  0  0
  4 14  1  0  0  0  0
  5  1  1  6  0  0  0
  5 14  1  0  0  0  0
  5 10  1  0  0  0  0
  6  7  1  0  0  0  0
  7 13  1  0  0  0  0
  7 15  2  0  0  0  0
  8 15  1  0  0  0  0
  9 14  1  0  0  0  0
  9 24  1  0  0  0  0
 10 24  1  0  0  0  0
 10 11  1  1  0  0  0
 11 12  1  0  0  0  0
 12 19  1  0  0  0  0
 17 25  1  0  0  0  0
 19 25  1  0  0  0  0
 20 26  1  0  0  0  0
 21 26  1  0  0  0  0
 22 25  2  0  0  0  0
 23 26  2  0  0  0  0
 25 20  1  1  0  0  0
 26 18  1  1  0  0  0
M  CHG  2  17  -1  21  -1
M  END
>  <CHROM.1>
99.13697968,165.85139016,176.57935328,103.47138249,176.32055655,166.82466440
56.89461453,-137.48861871,0.62876341,-18.88981122,18.40704720,3.06273580
-0.43609066,-0.05908976

>  <Name>
ligand

>  <RI>
0

>  <Rbt.Current_Directory>
/home/itssahil/PROJECTS/Mol_Feturizer/New_Systems/rnas/3D2X

>  <Rbt.Executable>
rbdock ($Id: //depot/dev/client3/rdock/2013.1/src/exe/rbdock.cxx#4 $)

>  <Rbt.Library>
libRbt.so (2013.1, Build901 2013/11/27)

>  <Rbt.Parameter_File>
/export/apps/rDock/src/rDock_2013.1_src/data/scripts/dock_solv.prm

>  <Rbt.Receptor>
prm/blind_docking_80.prm

>  <SCORE>
-19.0082

>  <SCORE.INTER>
-18.2687

>  <SCORE.INTER.CONST>
1

>  <SCORE.INTER.POLAR>
0

>  <SCORE.INTER.ROT>
8

>  <SCORE.INTER.SOLV>
18.4227

>  <SCORE.INTER.VDW>
-27.2534

>  <SCORE.INTER.norm>
-0.702642

>  <SCORE.INTRA>
-0.739525

>  <SCORE.INTRA.DIHEDRAL>
-0.817669

>  <SCORE.INTRA.DIHEDRAL.0>
7.88077

>  <SCORE.INTRA.POLAR>
0

>  <SCORE.INTRA.POLAR.0>
0

>  <SCORE.INTRA.REPUL>
0

>  <SCORE.INTRA.REPUL.0>
0

>  <SCORE.INTRA.SOLV>
-0.854123

>  <SCORE.INTRA.SOLV.lig_0>
-63.2542

>  <SCORE.INTRA.VDW>
0.0963705

>  <SCORE.INTRA.VDW.0>
-3.15072

>  <SCORE.INTRA.norm>
-0.0284433

>  <SCORE.RESTR>
0

>  <SCORE.RESTR.CAVITY>
0

>  <SCORE.RESTR.norm>
0

>  <SCORE.SYSTEM>
0

>  <SCORE.SYSTEM.CONST>
0

>  <SCORE.SYSTEM.DIHEDRAL>
0

>  <SCORE.SYSTEM.SOLV>
0

>  <SCORE.SYSTEM.norm>
0

>  <SCORE.heavy>
26

>  <SCORE.norm>
-0.731085

>  <RMSD>
10.820

$$$$
ligand
 OpenBabel11021811473D
libRbt.so/2013.1/901 2013/11/27
 26 27  0  0  0  0  0  0  0  0999 V2000
    0.3696  -20.0372   17.2323 C   0  0  0  0  0  0  0  0  0  0  0  0
   -3.6603  -20.6202   16.2351 C   0  0  0  0  0  0  0  0  0  0  0  0
   -3.2597  -19.2908   16.1522 C   0  0  0  0  0  0  0  0  0  0  0  0
   -1.8583  -18.8607   15.7121 C   0  0  0  0  0  0  0  0  0  0  0  0
   -0.1674  -18.6250   17.4829 C   0  0  1  0  0  0  0  0  0  0  0  0
   -7.2907  -20.1920   17.3166 C   0  0  0  0  0  0  0  0  0  0  0  0
   -5.8497  -19.8775   16.9121 C   0  0  0  0  0  0  0  0  0  0  0  0
   -4.1929  -18.3076   16.4649 C   0  0  0  0  0  0  0  0  0  0  0  0
   -1.5446  -16.8604   17.0669 C   0  0  0  0  0  0  0  0  0  0  0  0
    0.3757  -17.7895   18.4516 C   0  0  2  0  0  0  0  0  0  0  0  0
    1.5351  -18.0058   19.4274 C   0  0  0  0  0  0  0  0  0  0  0  0
    2.7262  -18.7235   18.7883 C   0  0  0  0  0  0  0  0  0  0  0  0
   -4.9679  -20.9260   16.6179 N   0  0  0  0  0  0  0  0  0  0  0  0
   -1.1770  -18.1091   16.7761 N   0  0  0  0  0  0  0  0  0  0  0  0
   -5.4268  -18.6081   16.8252 N   0  0  0  0  0  0  0  0  0  0  0  0
   -2.8701  -21.5263   15.9696 O   0  0  0  0  0  0  0  0  0  0  0  0
    5.7863  -19.1780   18.1890 O   0  5  0  0  0  0  0  0  0  0  0  0
    7.0228  -17.5762   20.1226 O   0  0  0  0  0  0  0  0  0  0  0  0
    3.7492  -19.0106   19.7468 O   0  0  0  0  0  0  0  0  0  0  0  0
    6.0207  -19.8748   20.6280 O   0  0  0  0  0  0  0  0  0  0  0  0
    5.2821  -17.8242   22.0202 O   0  5  0  0  0  0  0  0  0  0  0  0
    4.6175  -21.3240   19.0319 O   0  0  0  0  0  0  0  0  0  0  0  0
    7.6408  -18.8006   22.2882 O   0  0  0  0  0  0  0  0  0  0  0  0
   -0.5694  -16.3272   18.4106 S   0  0  0  0  0  0  0  0  0  0  0  0
    5.0120  -19.9389   19.3773 P   0  0  2  0  0  0  0  0  0  0  0  0
    6.4077  -18.4718   21.3101 P   0  0  2  0  0  0  0  0  0  0  0  0
  2 16  2  0  0  0  0
  2  3  1  0  0  0  0
  2 13  1  0  0  0  0
  3  8  2  0  0  0  0
  3  4  1  0  0  0  0
  4 14  1  0  0  0  0
  5  1  1  6  0  0  0
  5 14  1  0  0  0  0
  5 10  1  0  0  0  0
  6  7  1  0  0  0  0
  7 13  1  0  0  0  0
  7 15  2  0  0  0  0
  8 15  1  0  0  0  0
  9 14  1  0  0  0  0
  9 24  1  0  0  0  0
 10 24  1  0  0  0  0
 10 11  1  1  0  0  0
 11 12  1  0  0  0  0
 12 19  1  0  0  0  0
 17 25  1  0  0  0  0
 19 25  1  0  0  0  0
 20 26  1  0  0  0  0
 21 26  1  0  0  0  0
 22 25  2  0  0  0  0
 23 26  2  0  0  0  0
 25 20  1  1  0  0  0
 26 18  1  6  0  0  0
M  CHG  2  17  -1  21  -1
M  END
>  <CHROM.1>
-119.27412448,41.11220730,-175.22002625,107.61639643,171.31882662,65.31617782
61.70056641,-57.12069540,1.14029856,-18.95252243,18.52256675,-2.98946122
-0.33479212,0.30569471

>  <Name>
ligand

>  <RI>
0

>  <Rbt.Current_Directory>
/home/itssahil/PROJECTS/Mol_Feturizer/New_Systems/rnas/3D2X

>  <Rbt.Executable>
rbdock ($Id: //depot/dev/client3/rdock/2013.1/src/exe/rbdock.cxx#4 $)

>  <Rbt.Library>
libRbt.so (2013.1, Build901 2013/11/27)

>  <Rbt.Parameter_File>
/export/apps/rDock/src/rDock_2013.1_src/data/scripts/dock_solv.prm

>  <Rbt.Receptor>
prm/blind_docking_60.prm

>  <SCORE>
-20.4049

>  <SCORE.INTER>
-18.6238

>  <SCORE.INTER.CONST>
1

>  <SCORE.INTER.POLAR>
0

>  <SCORE.INTER.ROT>
8

>  <SCORE.INTER.SOLV>
22.8357

>  <SCORE.INTER.VDW>
-28.9611

>  <SCORE.INTER.norm>
-0.716299

>  <SCORE.INTRA>
-1.78994

>  <SCORE.INTRA.DIHEDRAL>
-2.47704

>  <SCORE.INTRA.DIHEDRAL.0>
7.88077

>  <SCORE.INTRA.POLAR>
0

>  <SCORE.INTRA.POLAR.0>
0

>  <SCORE.INTRA.REPUL>
0

>  <SCORE.INTRA.REPUL.0>
0

>  <SCORE.INTRA.SOLV>
-1.78009

>  <SCORE.INTRA.SOLV.lig_0>
-63.2542

>  <SCORE.INTRA.VDW>
0.338629

>  <SCORE.INTRA.VDW.0>
-3.15072

>  <SCORE.INTRA.norm>
-0.0688437

>  <SCORE.RESTR>
0.00885601

>  <SCORE.RESTR.CAVITY>
0.00885601

>  <SCORE.RESTR.norm>
0.000340616

>  <SCORE.SYSTEM>
0

>  <SCORE.SYSTEM.CONST>
0

>  <SCORE.SYSTEM.DIHEDRAL>
0

>  <SCORE.SYSTEM.SOLV>
0

>  <SCORE.SYSTEM.norm>
0

>  <SCORE.heavy>
26

>  <SCORE.norm>
-0.784802

>  <RMSD>
10.841

$$$$
ligand
 OpenBabel11021811473D
libRbt.so/2013.1/901 2013/11/27
 26 27  0  0  0  0  0  0  0  0999 V2000
   -1.2245  -16.6817   18.0701 C   0  0  0  0  0  0  0  0  0  0  0  0
   -4.5515  -18.1983   17.1985 C   0  0  0  0  0  0  0  0  0  0  0  0
   -3.8149  -18.5025   16.0585 C   0  0  0  0  0  0  0  0  0  0  0  0
   -2.5294  -17.7696   15.6674 C   0  0  0  0  0  0  0  0  0  0  0  0
   -0.7379  -17.9395   17.3443 C   0  0  1  0  0  0  0  0  0  0  0  0
   -7.3256  -20.8019   16.9558 C   0  0  0  0  0  0  0  0  0  0  0  0
   -6.0818  -19.9716   16.6353 C   0  0  0  0  0  0  0  0  0  0  0  0
   -4.2635  -19.5420   15.2500 C   0  0  0  0  0  0  0  0  0  0  0  0
   -0.8509  -19.5343   15.7235 C   0  0  0  0  0  0  0  0  0  0  0  0
    0.3617  -18.6669   17.7838 C   0  0  2  0  0  0  0  0  0  0  0  0
    1.2906  -18.4554   18.9821 C   0  0  0  0  0  0  0  0  0  0  0  0
    2.7164  -18.9489   18.7255 C   0  0  0  0  0  0  0  0  0  0  0  0
   -5.6986  -18.9362   17.4981 N   0  0  0  0  0  0  0  0  0  0  0  0
   -1.3498  -18.4186   16.2576 N   0  0  0  0  0  0  0  0  0  0  0  0
   -5.3492  -20.2333   15.5433 N   0  0  0  0  0  0  0  0  0  0  0  0
   -4.1955  -17.2861   17.9447 O   0  0  0  0  0  0  0  0  0  0  0  0
    5.4442  -19.6797   21.4540 O   0  5  0  0  0  0  0  0  0  0  0  0
    4.4659  -22.0693   21.2996 O   0  0  0  0  0  0  0  0  0  0  0  0
    3.4767  -19.0262   19.9353 O   0  0  0  0  0  0  0  0  0  0  0  0
    5.1861  -20.8164   19.1889 O   0  0  0  0  0  0  0  0  0  0  0  0
    2.9595  -22.1319   19.1975 O   0  5  0  0  0  0  0  0  0  0  0  0
    5.8688  -18.3382   19.2857 O   0  0  0  0  0  0  0  0  0  0  0  0
    5.2065  -23.3724   19.2200 O   0  0  0  0  0  0  0  0  0  0  0  0
    0.5681  -19.9649   16.6411 S   0  0  0  0  0  0  0  0  0  0  0  0
    5.0450  -19.3919   19.9216 P   0  0  2  0  0  0  0  0  0  0  0  0
    4.3532  -22.0948   19.6942 P   0  0  2  0  0  0  0  0  0  0  0  0
  2 16  2  0  0  0  0
  2  3  1  0  0  0  0
  2 13  1  0  0  0  0
  3  8  2  0  0  0  0
  3  4  1  0  0  0  0
  4 14  1  0  0  0  0
  5  1  1  1  0  0  0
  5 14  1  0  0  0  0
  5 10  1  0  0  0  0
  6  7  1  0  0  0  0
  7 13  1  0  0  0  0
  7 15  2  0  0  0  0
  8 15  1  0  0  0  0
  9 14  1  0  0  0  0
  9 24  1  0  0  0  0
 10 24  1  0  0  0  0
 10 11  1  6  0  0  0
 11 12  1  0  0  0  0
 12 19  1  0  0  0  0
 17 25  1  0  0  0  0
 19 25  1  0  0  0  0
 20 26  1  0  0  0  0
 21 26  1  0  0  0  0
 22 25  2  0  0  0  0
 23 26  2  0  0  0  0
 25 20  1  6  0  0  0
 26 18  1  1  0  0  0
M  CHG  2  17  -1  21  -1
M  END
>  <CHROM.1>
89.60787876,-149.20408295,-166.66284691,-101.40551037,-174.47193690,57.61620707
-168.38588235,-43.53991645,0.57808154,-19.66046878,18.17940605,-2.96100480
0.33520067,3.09657733

>  <Name>
ligand

>  <RI>
0

>  <Rbt.Current_Directory>
/home/itssahil/PROJECTS/Mol_Feturizer/New_Systems/rnas/3D2X

>  <Rbt.Executable>
rbdock ($Id: //depot/dev/client3/rdock/2013.1/src/exe/rbdock.cxx#4 $)

>  <Rbt.Library>
libRbt.so (2013.1, Build901 2013/11/27)

>  <Rbt.Parameter_File>
/export/apps/rDock/src/rDock_2013.1_src/data/scripts/dock_solv.prm

>  <Rbt.Receptor>
prm/blind_docking_80.prm

>  <SCORE>
-20.5033

>  <SCORE.INTER>
-19.4515

>  <SCORE.INTER.CONST>
1

>  <SCORE.INTER.POLAR>
0

>  <SCORE.INTER.ROT>
8

>  <SCORE.INTER.SOLV>
18.1995

>  <SCORE.INTER.VDW>
-27.9675

>  <SCORE.INTER.norm>
-0.748133

>  <SCORE.INTRA>
-1.44058

>  <SCORE.INTRA.DIHEDRAL>
-1.42659

>  <SCORE.INTRA.DIHEDRAL.0>
7.88077

>  <SCORE.INTRA.POLAR>
0

>  <SCORE.INTRA.POLAR.0>
0

>  <SCORE.INTRA.REPUL>
0

>  <SCORE.INTRA.REPUL.0>
0

>  <SCORE.INTRA.SOLV>
-0.97876

>  <SCORE.INTRA.SOLV.lig_0>
-63.2542

>  <SCORE.INTRA.VDW>
-0.237907

>  <SCORE.INTRA.VDW.0>
-3.15072

>  <SCORE.INTRA.norm>
-0.055407

>  <SCORE.RESTR>
0.38878

>  <SCORE.RESTR.CAVITY>
0.38878

>  <SCORE.RESTR.norm>
0.0149531

>  <SCORE.SYSTEM>
0

>  <SCORE.SYSTEM.CONST>
0

>  <SCORE.SYSTEM.DIHEDRAL>
0

>  <SCORE.SYSTEM.SOLV>
0

>  <SCORE.SYSTEM.norm>
0

>  <SCORE.heavy>
26

>  <SCORE.norm>
-0.788587

>  <RMSD>
10.843

$$$$
ligand
 OpenBabel11021811473D
libRbt.so/2013.1/901 2013/11/27
 26 27  0  0  0  0  0  0  0  0999 V2000
   -1.8384  -18.9210   15.5225 C   0  0  0  0  0  0  0  0  0  0  0  0
   -5.2436  -17.3406   15.6993 C   0  0  0  0  0  0  0  0  0  0  0  0
   -4.1462  -17.3358   16.5540 C   0  0  0  0  0  0  0  0  0  0  0  0
   -2.9765  -16.3585   16.4154 C   0  0  0  0  0  0  0  0  0  0  0  0
   -1.2236  -18.0696   16.6373 C   0  0  1  0  0  0  0  0  0  0  0  0
   -7.3298  -20.1274   17.2529 C   0  0  0  0  0  0  0  0  0  0  0  0
   -6.1932  -19.1379   16.9920 C   0  0  0  0  0  0  0  0  0  0  0  0
   -4.1292  -18.2541   17.5989 C   0  0  0  0  0  0  0  0  0  0  0  0
   -1.1194  -16.2396   17.9876 C   0  0  0  0  0  0  0  0  0  0  0  0
   -0.0653  -18.4508   17.3041 C   0  0  2  0  0  0  0  0  0  0  0  0
    0.8318  -19.6795   17.1343 C   0  0  0  0  0  0  0  0  0  0  0  0
    0.1435  -20.9821   17.5487 C   0  0  0  0  0  0  0  0  0  0  0  0
   -6.2832  -18.2478   15.9136 N   0  0  0  0  0  0  0  0  0  0  0  0
   -1.7548  -16.9059   17.0226 N   0  0  0  0  0  0  0  0  0  0  0  0
   -5.1180  -19.1070   17.7924 N   0  0  0  0  0  0  0  0  0  0  0  0
   -5.3039  -16.5479   14.7592 O   0  0  0  0  0  0  0  0  0  0  0  0
    1.9842  -23.9970   19.2277 O   0  5  0  0  0  0  0  0  0  0  0  0
   -2.1582  -24.6097   19.4806 O   0  0  0  0  0  0  0  0  0  0  0  0
    1.0919  -22.0031   17.8739 O   0  0  0  0  0  0  0  0  0  0  0  0
   -0.2488  -22.9526   19.8700 O   0  0  0  0  0  0  0  0  0  0  0  0
   -0.4200  -25.0740   21.3394 O   0  5  0  0  0  0  0  0  0  0  0  0
   -0.0662  -24.2920   17.6815 O   0  0  0  0  0  0  0  0  0  0  0  0
   -2.1189  -23.1675   21.5994 O   0  0  0  0  0  0  0  0  0  0  0  0
    0.2279  -17.2203   18.5012 S   0  0  0  0  0  0  0  0  0  0  0  0
    0.6424  -23.3694   18.5980 P   0  0  2  0  0  0  0  0  0  0  0  0
   -1.1796  -24.0282   20.6185 P   0  0  2  0  0  0  0  0  0  0  0  0
  2 16  2  0  0  0  0
  2  3  1  0  0  0  0
  2 13  1  0  0  0  0
  3  8  2  0  0  0  0
  3  4  1  0  0  0  0
  4 14  1  0  0  0  0
  5  1  1  6  0  0  0
  5 14  1  0  0  0  0
  5 10  1  0  0  0  0
  6  7  1  0  0  0  0
  7 13  1  0  0  0  0
  7 15  2  0  0  0  0
  8 15  1  0  0  0  0
  9 14  1  0  0  0  0
  9 24  1  0  0  0  0
 10 24  1  0  0  0  0
 10 11  1  1  0  0  0
 11 12  1  0  0  0  0
 12 19  1  0  0  0  0
 17 25  1  0  0  0  0
 19 25  1  0  0  0  0
 20 26  1  0  0  0  0
 21 26  1  0  0  0  0
 22 25  2  0  0  0  0
 23 26  2  0  0  0  0
 25 20  1  1  0  0  0
 26 18  1  6  0  0  0
M  CHG  2  17  -1  21  -1
M  END
>  <CHROM.1>
-155.69601747,-67.45492271,-157.71509666,57.86327187,168.41462879,-83.68272719
-161.24118918,-56.79579676,-1.76332583,-20.43686293,18.04567803,-2.08601468
0.09024834,2.71916103

>  <Name>
ligand

>  <RI>
0

>  <Rbt.Current_Directory>
/home/itssahil/PROJECTS/Mol_Feturizer/New_Systems/rnas/3D2X

>  <Rbt.Executable>
rbdock ($Id: //depot/dev/client3/rdock/2013.1/src/exe/rbdock.cxx#4 $)

>  <Rbt.Library>
libRbt.so (2013.1, Build901 2013/11/27)

>  <Rbt.Parameter_File>
/export/apps/rDock/src/rDock_2013.1_src/data/scripts/dock_solv.prm

>  <Rbt.Receptor>
prm/blind_docking_60.prm

>  <SCORE>
-19.3555

>  <SCORE.INTER>
-19.1415

>  <SCORE.INTER.CONST>
1

>  <SCORE.INTER.POLAR>
0

>  <SCORE.INTER.ROT>
8

>  <SCORE.INTER.SOLV>
17.4724

>  <SCORE.INTER.VDW>
-27.5185

>  <SCORE.INTER.norm>
-0.736212

>  <SCORE.INTRA>
-0.213951

>  <SCORE.INTRA.DIHEDRAL>
-0.00518338

>  <SCORE.INTRA.DIHEDRAL.0>
7.88077

>  <SCORE.INTRA.POLAR>
0

>  <SCORE.INTRA.POLAR.0>
0

>  <SCORE.INTRA.REPUL>
0

>  <SCORE.INTRA.REPUL.0>
0

>  <SCORE.INTRA.SOLV>
-1.7207

>  <SCORE.INTRA.SOLV.lig_0>
-63.2542

>  <SCORE.INTRA.VDW>
0.648989

>  <SCORE.INTRA.VDW.0>
-3.15072

>  <SCORE.INTRA.norm>
-0.00822889

>  <SCORE.RESTR>
0

>  <SCORE.RESTR.CAVITY>
0

>  <SCORE.RESTR.norm>
0

>  <SCORE.SYSTEM>
0

>  <SCORE.SYSTEM.CONST>
0

>  <SCORE.SYSTEM.DIHEDRAL>
0

>  <SCORE.SYSTEM.SOLV>
0

>  <SCORE.SYSTEM.norm>
0

>  <SCORE.heavy>
26

>  <SCORE.norm>
-0.744441

>  <RMSD>
10.845

$$$$
ligand
 OpenBabel11021811473D
libRbt.so/2013.1/901 2013/11/27
 26 27  0  0  0  0  0  0  0  0999 V2000
    0.1680  -20.0545   16.9386 C   0  0  0  0  0  0  0  0  0  0  0  0
   -4.4430  -17.9940   16.0564 C   0  0  0  0  0  0  0  0  0  0  0  0
   -3.4061  -18.9202   16.0148 C   0  0  0  0  0  0  0  0  0  0  0  0
   -1.9802  -18.5676   15.5846 C   0  0  0  0  0  0  0  0  0  0  0  0
   -0.2481  -18.6334   17.3299 C   0  0  1  0  0  0  0  0  0  0  0  0
   -7.2807  -20.1772   17.3658 C   0  0  0  0  0  0  0  0  0  0  0  0
   -5.9050  -19.7259   16.8727 C   0  0  0  0  0  0  0  0  0  0  0  0
   -3.6818  -20.2261   16.4073 C   0  0  0  0  0  0  0  0  0  0  0  0
   -1.4832  -16.7337   17.1093 C   0  0  0  0  0  0  0  0  0  0  0  0
    0.3764  -17.9378   18.3582 C   0  0  2  0  0  0  0  0  0  0  0  0
    1.5296  -18.3358   19.2830 C   0  0  0  0  0  0  0  0  0  0  0  0
    2.7107  -18.9537   18.5310 C   0  0  0  0  0  0  0  0  0  0  0  0
   -5.7094  -18.3925   16.4893 N   0  0  0  0  0  0  0  0  0  0  0  0
   -1.2232  -17.9752   16.6969 N   0  0  0  0  0  0  0  0  0  0  0  0
   -4.8828  -20.5917   16.8153 N   0  0  0  0  0  0  0  0  0  0  0  0
   -4.2487  -16.8264   15.7176 O   0  0  0  0  0  0  0  0  0  0  0  0
    3.7072  -17.9693   21.3747 O   0  5  0  0  0  0  0  0  0  0  0  0
    5.7800  -19.8178   22.8018 O   0  0  0  0  0  0  0  0  0  0  0  0
    3.9401  -18.2876   18.8352 O   0  0  0  0  0  0  0  0  0  0  0  0
    4.7539  -20.1112   20.4770 O   0  0  0  0  0  0  0  0  0  0  0  0
    5.5617  -22.1883   21.7891 O   0  5  0  0  0  0  0  0  0  0  0  0
    6.0412  -17.8942   20.2663 O   0  0  0  0  0  0  0  0  0  0  0  0
    7.2538  -20.5168   20.8243 O   0  0  0  0  0  0  0  0  0  0  0  0
   -0.4468  -16.4073   18.4732 S   0  0  0  0  0  0  0  0  0  0  0  0
    4.7003  -18.5223   20.2353 P   0  0  2  0  0  0  0  0  0  0  0  0
    5.8137  -20.7595   21.4968 P   0  0  2  0  0  0  0  0  0  0  0  0
  2 16  2  0  0  0  0
  2  3  1  0  0  0  0
  2 13  1  0  0  0  0
  3  8  2  0  0  0  0
  3  4  1  0  0  0  0
  4 14  1  0  0  0  0
  5  1  1  6  0  0  0
  5 14  1  0  0  0  0
  5 10  1  0  0  0  0
  6  7  1  0  0  0  0
  7 13  1  0  0  0  0
  7 15  2  0  0  0  0
  8 15  1  0  0  0  0
  9 14  1  0  0  0  0
  9 24  1  0  0  0  0
 10 24  1  0  0  0  0
 10 11  1  1  0  0  0
 11 12  1  0  0  0  0
 12 19  1  0  0  0  0
 17 25  1  0  0  0  0
 19 25  1  0  0  0  0
 20 26  1  0  0  0  0
 21 26  1  0  0  0  0
 22 25  2  0  0  0  0
 23 26  2  0  0  0  0
 25 20  1  1  0  0  0
 26 18  1  1  0  0  0
M  CHG  2  17  -1  21  -1
M  END
>  <CHROM.1>
82.26513455,47.04730375,126.61291560,107.77353445,75.54281166,-87.60810077
-63.72935103,44.08401292,0.87929877,-18.91753531,18.70874481,2.91943339,-0.38039486
-0.31757172

>  <Name>
ligand

>  <RI>
0

>  <Rbt.Current_Directory>
/home/itssahil/PROJECTS/Mol_Feturizer/New_Systems/rnas/3D2X

>  <Rbt.Executable>
rbdock ($Id: //depot/dev/client3/rdock/2013.1/src/exe/rbdock.cxx#4 $)

>  <Rbt.Library>
libRbt.so (2013.1, Build901 2013/11/27)

>  <Rbt.Parameter_File>
/export/apps/rDock/src/rDock_2013.1_src/data/scripts/dock_solv.prm

>  <Rbt.Receptor>
prm/blind_docking_100.prm

>  <SCORE>
-16.8398

>  <SCORE.INTER>
-18.8785

>  <SCORE.INTER.CONST>
1

>  <SCORE.INTER.POLAR>
0

>  <SCORE.INTER.ROT>
8

>  <SCORE.INTER.SOLV>
14.5532

>  <SCORE.INTER.VDW>
-26.3701

>  <SCORE.INTER.norm>
-0.726097

>  <SCORE.INTRA>
2.03874

>  <SCORE.INTRA.DIHEDRAL>
4.3218

>  <SCORE.INTRA.DIHEDRAL.0>
7.88077

>  <SCORE.INTRA.POLAR>
0

>  <SCORE.INTRA.POLAR.0>
0

>  <SCORE.INTRA.REPUL>
0

>  <SCORE.INTRA.REPUL.0>
0

>  <SCORE.INTRA.SOLV>
-0.472306

>  <SCORE.INTRA.SOLV.lig_0>
-63.2542

>  <SCORE.INTRA.VDW>
0.113992

>  <SCORE.INTRA.VDW.0>
-3.15072

>  <SCORE.INTRA.norm>
0.0784131

>  <SCORE.RESTR>
0

>  <SCORE.RESTR.CAVITY>
0

>  <SCORE.RESTR.norm>
0

>  <SCORE.SYSTEM>
0

>  <SCORE.SYSTEM.CONST>
0

>  <SCORE.SYSTEM.DIHEDRAL>
0

>  <SCORE.SYSTEM.SOLV>
0

>  <SCORE.SYSTEM.norm>
0

>  <SCORE.heavy>
26

>  <SCORE.norm>
-0.647684

>  <RMSD>
10.860

$$$$
ligand
 OpenBabel11021811473D
libRbt.so/2013.1/901 2013/11/27
 26 27  0  0  0  0  0  0  0  0999 V2000
   -0.8773  -17.0024   17.4704 C   0  0  0  0  0  0  0  0  0  0  0  0
   -4.4027  -18.1024   16.0344 C   0  0  0  0  0  0  0  0  0  0  0  0
   -3.4205  -19.0753   15.8816 C   0  0  0  0  0  0  0  0  0  0  0  0
   -2.0000  -18.7683   15.4015 C   0  0  0  0  0  0  0  0  0  0  0  0
   -0.4723  -18.4703   17.3061 C   0  0  1  0  0  0  0  0  0  0  0  0
   -7.2877  -20.2192   17.3492 C   0  0  0  0  0  0  0  0  0  0  0  0
   -5.9150  -19.8073   16.8151 C   0  0  0  0  0  0  0  0  0  0  0  0
   -3.7470  -20.3883   16.2055 C   0  0  0  0  0  0  0  0  0  0  0  0
   -0.5883  -20.5235   16.3294 C   0  0  0  0  0  0  0  0  0  0  0  0
    0.4579  -19.0776   18.1412 C   0  0  2  0  0  0  0  0  0  0  0  0
    1.2478  -18.5271   19.3313 C   0  0  0  0  0  0  0  0  0  0  0  0
    2.5638  -17.8640   18.9178 C   0  0  0  0  0  0  0  0  0  0  0  0
   -5.6664  -18.4633   16.5061 N   0  0  0  0  0  0  0  0  0  0  0  0
   -0.9998  -19.2553   16.3625 N   0  0  0  0  0  0  0  0  0  0  0  0
   -4.9450  -20.7182   16.6512 N   0  0  0  0  0  0  0  0  0  0  0  0
   -4.1623  -16.9266   15.7595 O   0  0  0  0  0  0  0  0  0  0  0  0
    4.4633  -21.0359   19.4354 O   0  5  0  0  0  0  0  0  0  0  0  0
    7.2005  -17.4240   20.4664 O   0  0  0  0  0  0  0  0  0  0  0  0
    3.5359  -18.8283   18.5021 O   0  0  0  0  0  0  0  0  0  0  0  0
    6.0687  -19.1246   18.9267 O   0  0  0  0  0  0  0  0  0  0  0  0
    7.4666  -19.9535   20.9385 O   0  5  0  0  0  0  0  0  0  0  0  0
    4.4423  -18.9117   20.9081 O   0  0  0  0  0  0  0  0  0  0  0  0
    8.6138  -18.8861   18.9056 O   0  0  0  0  0  0  0  0  0  0  0  0
    0.6346  -20.7094   17.5586 S   0  0  0  0  0  0  0  0  0  0  0  0
    4.6126  -19.4364   19.5337 P   0  0  2  0  0  0  0  0  0  0  0  0
    7.3409  -18.9193   19.8874 P   0  0  2  0  0  0  0  0  0  0  0  0
  2 16  2  0  0  0  0
  2  3  1  0  0  0  0
  2 13  1  0  0  0  0
  3  8  2  0  0  0  0
  3  4  1  0  0  0  0
  4 14  1  0  0  0  0
  5  1  1  1  0  0  0
  5 14  1  0  0  0  0
  5 10  1  0  0  0  0
  6  7  1  0  0  0  0
  7 13  1  0  0  0  0
  7 15  2  0  0  0  0
  8 15  1  0  0  0  0
  9 14  1  0  0  0  0
  9 24  1  0  0  0  0
 10 24  1  0  0  0  0
 10 11  1  6  0  0  0
 11 12  1  0  0  0  0
 12 19  1  0  0  0  0
 17 25  1  0  0  0  0
 19 25  1  0  0  0  0
 20 26  1  0  0  0  0
 21 26  1  0  0  0  0
 22 25  2  0  0  0  0
 23 26  2  0  0  0  0
 25 20  1  6  0  0  0
 26 18  1  1  0  0  0
M  CHG  2  17  -1  21  -1
M  END
>  <CHROM.1>
124.59881814,-87.41634355,-72.16177609,-95.09075988,-93.22750395,-97.35428490
125.93182932,-78.04047838,1.22642277,-19.15047329,18.12455002,-3.11128838
0.29941204,2.99933757

>  <Name>
ligand

>  <RI>
0

>  <Rbt.Current_Directory>
/home/itssahil/PROJECTS/Mol_Feturizer/New_Systems/rnas/3D2X

>  <Rbt.Executable>
rbdock ($Id: //depot/dev/client3/rdock/2013.1/src/exe/rbdock.cxx#4 $)

>  <Rbt.Library>
libRbt.so (2013.1, Build901 2013/11/27)

>  <Rbt.Parameter_File>
/export/apps/rDock/src/rDock_2013.1_src/data/scripts/dock_solv.prm

>  <Rbt.Receptor>
prm/blind_docking_80.prm

>  <SCORE>
-16.519

>  <SCORE.INTER>
-18.2974

>  <SCORE.INTER.CONST>
1

>  <SCORE.INTER.POLAR>
0

>  <SCORE.INTER.ROT>
8

>  <SCORE.INTER.SOLV>
16.6673

>  <SCORE.INTER.VDW>
-26.6873

>  <SCORE.INTER.norm>
-0.703745

>  <SCORE.INTRA>
1.77838

>  <SCORE.INTRA.DIHEDRAL>
5.70982

>  <SCORE.INTRA.DIHEDRAL.0>
7.88077

>  <SCORE.INTRA.POLAR>
0

>  <SCORE.INTRA.POLAR.0>
0

>  <SCORE.INTRA.REPUL>
0

>  <SCORE.INTRA.REPUL.0>
0

>  <SCORE.INTRA.SOLV>
-0.481405

>  <SCORE.INTRA.SOLV.lig_0>
-63.2542

>  <SCORE.INTRA.VDW>
-0.835826

>  <SCORE.INTRA.VDW.0>
-3.15072

>  <SCORE.INTRA.norm>
0.0683993

>  <SCORE.RESTR>
0

>  <SCORE.RESTR.CAVITY>
0

>  <SCORE.RESTR.norm>
0

>  <SCORE.SYSTEM>
0

>  <SCORE.SYSTEM.CONST>
0

>  <SCORE.SYSTEM.DIHEDRAL>
0

>  <SCORE.SYSTEM.SOLV>
0

>  <SCORE.SYSTEM.norm>
0

>  <SCORE.heavy>
26

>  <SCORE.norm>
-0.635346

>  <RMSD>
10.868

$$$$
ligand
 OpenBabel11021811473D
libRbt.so/2013.1/901 2013/11/27
 26 27  0  0  0  0  0  0  0  0999 V2000
   -0.8550  -20.4010   15.3681 C   0  0  0  0  0  0  0  0  0  0  0  0
   -5.1385  -17.9905   15.6208 C   0  0  0  0  0  0  0  0  0  0  0  0
   -4.1624  -18.8049   15.0564 C   0  0  0  0  0  0  0  0  0  0  0  0
   -2.7794  -18.2966   14.6421 C   0  0  0  0  0  0  0  0  0  0  0  0
   -1.0191  -19.1006   16.1604 C   0  0  1  0  0  0  0  0  0  0  0  0
   -7.9146  -20.5342   16.2173 C   0  0  0  0  0  0  0  0  0  0  0  0
   -6.5837  -19.9100   15.7952 C   0  0  0  0  0  0  0  0  0  0  0  0
   -4.4577  -20.1534   14.8838 C   0  0  0  0  0  0  0  0  0  0  0  0
   -1.9347  -17.0550   16.5604 C   0  0  0  0  0  0  0  0  0  0  0  0
   -0.2525  -18.8193   17.2849 C   0  0  2  0  0  0  0  0  0  0  0  0
    0.8530  -19.6245   17.9725 C   0  0  0  0  0  0  0  0  0  0  0  0
    1.9747  -18.7437   18.5279 C   0  0  0  0  0  0  0  0  0  0  0  0
   -6.3653  -18.5408   15.9978 N   0  0  0  0  0  0  0  0  0  0  0  0
   -1.8960  -18.1561   15.8087 N   0  0  0  0  0  0  0  0  0  0  0  0
   -5.6208  -20.6631   15.2444 N   0  0  0  0  0  0  0  0  0  0  0  0
   -4.9248  -16.7902   15.7925 O   0  0  0  0  0  0  0  0  0  0  0  0
    3.9511  -17.4560   20.3363 O   0  5  0  0  0  0  0  0  0  0  0  0
    6.1831  -20.2527   23.0313 O   0  0  0  0  0  0  0  0  0  0  0  0
    3.0109  -19.5232   19.1332 O   0  0  0  0  0  0  0  0  0  0  0  0
    4.9149  -19.7537   20.8666 O   0  0  0  0  0  0  0  0  0  0  0  0
    7.4700  -19.3665   20.9696 O   0  5  0  0  0  0  0  0  0  0  0  0
    5.3790  -18.6909   18.5706 O   0  0  0  0  0  0  0  0  0  0  0  0
    5.8659  -17.8301   22.2559 O   0  0  0  0  0  0  0  0  0  0  0  0
   -0.8102  -17.2782   17.8742 S   0  0  0  0  0  0  0  0  0  0  0  0
    4.3782  -18.8482   19.6509 P   0  0  2  0  0  0  0  0  0  0  0  0
    6.1991  -19.3111   21.7260 P   0  0  2  0  0  0  0  0  0  0  0  0
  2 16  2  0  0  0  0
  2  3  1  0  0  0  0
  2 13  1  0  0  0  0
  3  8  2  0  0  0  0
  3  4  1  0  0  0  0
  4 14  1  0  0  0  0
  5  1  1  6  0  0  0
  5 14  1  0  0  0  0
  5 10  1  0  0  0  0
  6  7  1  0  0  0  0
  7 13  1  0  0  0  0
  7 15  2  0  0  0  0
  8 15  1  0  0  0  0
  9 14  1  0  0  0  0
  9 24  1  0  0  0  0
 10 24  1  0  0  0  0
 10 11  1  1  0  0  0
 11 12  1  0  0  0  0
 12 19  1  0  0  0  0
 17 25  1  0  0  0  0
 19 25  1  0  0  0  0
 20 26  1  0  0  0  0
 21 26  1  0  0  0  0
 22 25  2  0  0  0  0
 23 26  2  0  0  0  0
 25 20  1  1  0  0  0
 26 18  1  1  0  0  0
M  CHG  2  17  -1  21  -1
M  END
>  <CHROM.1>
78.60052994,143.48816172,-178.44914302,96.86922813,173.29925398,-62.34097495
40.18313017,166.31536728,0.48253696,-18.86392799,18.12895564,2.99655240,-0.45148877
-0.30958850

>  <Name>
ligand

>  <RI>
0

>  <Rbt.Current_Directory>
/home/itssahil/PROJECTS/Mol_Feturizer/New_Systems/rnas/3D2X

>  <Rbt.Executable>
rbdock ($Id: //depot/dev/client3/rdock/2013.1/src/exe/rbdock.cxx#4 $)

>  <Rbt.Library>
libRbt.so (2013.1, Build901 2013/11/27)

>  <Rbt.Parameter_File>
/export/apps/rDock/src/rDock_2013.1_src/data/scripts/dock_solv.prm

>  <Rbt.Receptor>
prm/blind_docking_40.prm

>  <SCORE>
-18.3045

>  <SCORE.INTER>
-17.7526

>  <SCORE.INTER.CONST>
1

>  <SCORE.INTER.POLAR>
0

>  <SCORE.INTER.ROT>
8

>  <SCORE.INTER.SOLV>
17.8447

>  <SCORE.INTER.VDW>
-26.7167

>  <SCORE.INTER.norm>
-0.682794

>  <SCORE.INTRA>
-0.551863

>  <SCORE.INTRA.DIHEDRAL>
-1.74947

>  <SCORE.INTRA.DIHEDRAL.0>
7.88077

>  <SCORE.INTRA.POLAR>
0

>  <SCORE.INTRA.POLAR.0>
0

>  <SCORE.INTRA.REPUL>
0

>  <SCORE.INTRA.REPUL.0>
0

>  <SCORE.INTRA.SOLV>
0.851227

>  <SCORE.INTRA.SOLV.lig_0>
-63.2542

>  <SCORE.INTRA.VDW>
-0.102744

>  <SCORE.INTRA.VDW.0>
-3.15072

>  <SCORE.INTRA.norm>
-0.0212255

>  <SCORE.RESTR>
0

>  <SCORE.RESTR.CAVITY>
0

>  <SCORE.RESTR.norm>
0

>  <SCORE.SYSTEM>
0

>  <SCORE.SYSTEM.CONST>
0

>  <SCORE.SYSTEM.DIHEDRAL>
0

>  <SCORE.SYSTEM.SOLV>
0

>  <SCORE.SYSTEM.norm>
0

>  <SCORE.heavy>
26

>  <SCORE.norm>
-0.704019

>  <RMSD>
10.872

$$$$
ligand
 OpenBabel11021811473D
libRbt.so/2013.1/901 2013/11/27
 26 27  0  0  0  0  0  0  0  0999 V2000
   -0.1156  -20.3525   15.6459 C   0  0  0  0  0  0  0  0  0  0  0  0
   -4.0124  -20.6418   15.6722 C   0  0  0  0  0  0  0  0  0  0  0  0
   -3.7997  -19.2902   15.4220 C   0  0  0  0  0  0  0  0  0  0  0  0
   -2.4624  -18.7248   14.9375 C   0  0  0  0  0  0  0  0  0  0  0  0
   -0.5304  -19.0943   16.4143 C   0  0  1  0  0  0  0  0  0  0  0  0
   -7.6908  -20.5991   16.6720 C   0  0  0  0  0  0  0  0  0  0  0  0
   -6.2990  -20.1372   16.2378 C   0  0  0  0  0  0  0  0  0  0  0  0
   -4.8681  -18.4175   15.6018 C   0  0  0  0  0  0  0  0  0  0  0  0
   -1.8484  -17.2782   16.7990 C   0  0  0  0  0  0  0  0  0  0  0  0
    0.1896  -18.6251   17.5065 C   0  0  2  0  0  0  0  0  0  0  0  0
    1.4594  -19.1581   18.1750 C   0  0  0  0  0  0  0  0  0  0  0  0
    2.1509  -18.1161   19.0573 C   0  0  0  0  0  0  0  0  0  0  0  0
   -5.2728  -21.0789   16.0845 N   0  0  0  0  0  0  0  0  0  0  0  0
   -1.5973  -18.3672   16.0710 N   0  0  0  0  0  0  0  0  0  0  0  0
   -6.0558  -18.8419   15.9914 N   0  0  0  0  0  0  0  0  0  0  0  0
   -3.0974  -21.4530   15.5286 O   0  0  0  0  0  0  0  0  0  0  0  0
    3.2589  -16.7263   21.4572 O   0  5  0  0  0  0  0  0  0  0  0  0
    6.1832  -20.5849   22.9154 O   0  0  0  0  0  0  0  0  0  0  0  0
    3.2427  -18.6816   19.7894 O   0  0  0  0  0  0  0  0  0  0  0  0
    4.8060  -18.7120   21.8482 O   0  0  0  0  0  0  0  0  0  0  0  0
    5.0521  -20.9757   20.6220 O   0  5  0  0  0  0  0  0  0  0  0  0
    5.2782  -17.1120   19.8902 O   0  0  0  0  0  0  0  0  0  0  0  0
    7.0520  -19.3798   20.8264 O   0  0  0  0  0  0  0  0  0  0  0  0
   -0.6664  -17.2208   18.0798 S   0  0  0  0  0  0  0  0  0  0  0  0
    4.2165  -17.7668   20.6885 P   0  0  2  0  0  0  0  0  0  0  0  0
    5.7210  -19.9854   21.4950 P   0  0  2  0  0  0  0  0  0  0  0  0
  2 16  2  0  0  0  0
  2  3  1  0  0  0  0
  2 13  1  0  0  0  0
  3  8  2  0  0  0  0
  3  4  1  0  0  0  0
  4 14  1  0  0  0  0
  5  1  1  6  0  0  0
  5 14  1  0  0  0  0
  5 10  1  0  0  0  0
  6  7  1  0  0  0  0
  7 13  1  0  0  0  0
  7 15  2  0  0  0  0
  8 15  1  0  0  0  0
  9 14  1  0  0  0  0
  9 24  1  0  0  0  0
 10 24  1  0  0  0  0
 10 11  1  1  0  0  0
 11 12  1  0  0  0  0
 12 19  1  0  0  0  0
 17 25  1  0  0  0  0
 19 25  1  0  0  0  0
 20 26  1  0  0  0  0
 21 26  1  0  0  0  0
 22 25  2  0  0  0  0
 23 26  2  0  0  0  0
 25 20  1  1  0  0  0
 26 18  1  1  0  0  0
M  CHG  2  17  -1  21  -1
M  END
>  <CHROM.1>
-89.25391410,162.03317650,173.25511746,106.40705385,174.40201337,174.58682490
42.11866794,176.03030783,0.61457401,-19.03684730,18.43976322,-3.09955225
-0.49272303,-0.03416046

>  <Name>
ligand

>  <RI>
0

>  <Rbt.Current_Directory>
/home/itssahil/PROJECTS/Mol_Feturizer/New_Systems/rnas/3D2X

>  <Rbt.Executable>
rbdock ($Id: //depot/dev/client3/rdock/2013.1/src/exe/rbdock.cxx#4 $)

>  <Rbt.Library>
libRbt.so (2013.1, Build901 2013/11/27)

>  <Rbt.Parameter_File>
/export/apps/rDock/src/rDock_2013.1_src/data/scripts/dock_solv.prm

>  <Rbt.Receptor>
prm/blind_docking_40.prm

>  <SCORE>
-19.4105

>  <SCORE.INTER>
-18.2647

>  <SCORE.INTER.CONST>
1

>  <SCORE.INTER.POLAR>
0

>  <SCORE.INTER.ROT>
8

>  <SCORE.INTER.SOLV>
18.8513

>  <SCORE.INTER.VDW>
-27.3936

>  <SCORE.INTER.norm>
-0.702489

>  <SCORE.INTRA>
-1.19932

>  <SCORE.INTRA.DIHEDRAL>
-2.0817

>  <SCORE.INTRA.DIHEDRAL.0>
7.88077

>  <SCORE.INTRA.POLAR>
0

>  <SCORE.INTRA.POLAR.0>
0

>  <SCORE.INTRA.REPUL>
0

>  <SCORE.INTRA.REPUL.0>
0

>  <SCORE.INTRA.SOLV>
-0.362572

>  <SCORE.INTRA.SOLV.lig_0>
-63.2542

>  <SCORE.INTRA.VDW>
0.0228168

>  <SCORE.INTRA.VDW.0>
-3.15072

>  <SCORE.INTRA.norm>
-0.0461278

>  <SCORE.RESTR>
0.0535006

>  <SCORE.RESTR.CAVITY>
0.0535006

>  <SCORE.RESTR.norm>
0.00205771

>  <SCORE.SYSTEM>
0

>  <SCORE.SYSTEM.CONST>
0

>  <SCORE.SYSTEM.DIHEDRAL>
0

>  <SCORE.SYSTEM.SOLV>
0

>  <SCORE.SYSTEM.norm>
0

>  <SCORE.heavy>
26

>  <SCORE.norm>
-0.746559

>  <RMSD>
10.883

$$$$
ligand
 OpenBabel11021811473D
libRbt.so/2013.1/901 2013/11/27
 26 27  0  0  0  0  0  0  0  0999 V2000
   -1.6200  -19.4285   15.0528 C   0  0  0  0  0  0  0  0  0  0  0  0
    1.7245  -18.5980   18.4906 C   0  0  0  0  0  0  0  0  0  0  0  0
    0.9408  -18.6152   17.3416 C   0  0  0  0  0  0  0  0  0  0  0  0
    1.0461  -19.7010   16.2679 C   0  0  0  0  0  0  0  0  0  0  0  0
   -1.2062  -20.6245   15.9154 C   0  0  1  0  0  0  0  0  0  0  0  0
    0.3485  -15.4979   20.2310 C   0  0  0  0  0  0  0  0  0  0  0  0
    0.5720  -16.6049   19.1996 C   0  0  0  0  0  0  0  0  0  0  0  0
    0.0001  -17.6033   17.1783 C   0  0  0  0  0  0  0  0  0  0  0  0
    0.2674  -21.8273   17.1663 C   0  0  0  0  0  0  0  0  0  0  0  0
   -2.0709  -21.6805   16.1772 C   0  0  2  0  0  0  0  0  0  0  0  0
   -3.5124  -21.9320   15.7273 C   0  0  0  0  0  0  0  0  0  0  0  0
   -4.5019  -20.9148   16.3005 C   0  0  0  0  0  0  0  0  0  0  0  0
    1.5445  -17.5858   19.4355 N   0  0  0  0  0  0  0  0  0  0  0  0
    0.0124  -20.7298   16.4526 N   0  0  0  0  0  0  0  0  0  0  0  0
   -0.1619  -16.6515   18.0785 N   0  0  0  0  0  0  0  0  0  0  0  0
    2.5716  -19.4712   18.6795 O   0  0  0  0  0  0  0  0  0  0  0  0
   -6.8294  -19.9854   17.7474 O   0  5  0  0  0  0  0  0  0  0  0  0
   -4.4192  -18.4058   14.9770 O   0  0  0  0  0  0  0  0  0  0  0  0
   -5.7614  -20.9599   15.6228 O   0  0  0  0  0  0  0  0  0  0  0  0
   -6.8926  -18.6356   15.5879 O   0  0  0  0  0  0  0  0  0  0  0  0
   -5.7697  -16.3069   15.6573 O   0  5  0  0  0  0  0  0  0  0  0  0
   -8.3212  -20.7655   15.7859 O   0  0  0  0  0  0  0  0  0  0  0  0
   -5.1789  -18.0914   17.4050 O   0  0  0  0  0  0  0  0  0  0  0  0
   -1.1995  -22.7685   17.2212 S   0  0  0  0  0  0  0  0  0  0  0  0
   -7.0350  -20.1325   16.1579 P   0  0  2  0  0  0  0  0  0  0  0  0
   -5.5796  -17.7570   15.8842 P   0  0  2  0  0  0  0  0  0  0  0  0
  2 16  2  0  0  0  0
  2  3  1  0  0  0  0
  2 13  1  0  0  0  0
  3  8  2  0  0  0  0
  3  4  1  0  0  0  0
  4 14  1  0  0  0  0
  5  1  1  6  0  0  0
  5 14  1  0  0  0  0
  5 10  1  0  0  0  0
  6  7  1  0  0  0  0
  7 13  1  0  0  0  0
  7 15  2  0  0  0  0
  8 15  1  0  0  0  0
  9 14  1  0  0  0  0
  9 24  1  0  0  0  0
 10 24  1  0  0  0  0
 10 11  1  1  0  0  0
 11 12  1  0  0  0  0
 12 19  1  0  0  0  0
 17 25  1  0  0  0  0
 19 25  1  0  0  0  0
 20 26  1  0  0  0  0
 21 26  1  0  0  0  0
 22 25  2  0  0  0  0
 23 26  2  0  0  0  0
 25 20  1  6  0  0  0
 26 18  1  6  0  0  0
M  CHG  2  17  -1  21  -1
M  END
>  <CHROM.1>
97.61443078,-65.59499959,165.66458689,87.86141451,171.71903010,55.67932339
-27.65580839,72.52066338,-2.79205940,-19.38344368,16.82493988,-0.17117939
0.24524657,-2.88573209

>  <Name>
ligand

>  <RI>
0

>  <Rbt.Current_Directory>
/home/itssahil/PROJECTS/Mol_Feturizer/New_Systems/rnas/3D2X

>  <Rbt.Executable>
rbdock ($Id: //depot/dev/client3/rdock/2013.1/src/exe/rbdock.cxx#4 $)

>  <Rbt.Library>
libRbt.so (2013.1, Build901 2013/11/27)

>  <Rbt.Parameter_File>
/export/apps/rDock/src/rDock_2013.1_src/data/scripts/dock_solv.prm

>  <Rbt.Receptor>
prm/blind_docking_60.prm

>  <SCORE>
-18.0694

>  <SCORE.INTER>
-18.1598

>  <SCORE.INTER.CONST>
1

>  <SCORE.INTER.POLAR>
0

>  <SCORE.INTER.ROT>
8

>  <SCORE.INTER.SOLV>
20.1405

>  <SCORE.INTER.VDW>
-27.7534

>  <SCORE.INTER.norm>
-0.698453

>  <SCORE.INTRA>
0.0903525

>  <SCORE.INTRA.DIHEDRAL>
-0.728633

>  <SCORE.INTRA.DIHEDRAL.0>
7.88077

>  <SCORE.INTRA.POLAR>
0

>  <SCORE.INTRA.POLAR.0>
0

>  <SCORE.INTRA.REPUL>
0

>  <SCORE.INTRA.REPUL.0>
0

>  <SCORE.INTRA.SOLV>
0.274603

>  <SCORE.INTRA.SOLV.lig_0>
-63.2542

>  <SCORE.INTRA.VDW>
0.317368

>  <SCORE.INTRA.VDW.0>
-3.15072

>  <SCORE.INTRA.norm>
0.0034751

>  <SCORE.RESTR>
0

>  <SCORE.RESTR.CAVITY>
0

>  <SCORE.RESTR.norm>
0

>  <SCORE.SYSTEM>
0

>  <SCORE.SYSTEM.CONST>
0

>  <SCORE.SYSTEM.DIHEDRAL>
0

>  <SCORE.SYSTEM.SOLV>
0

>  <SCORE.SYSTEM.norm>
0

>  <SCORE.heavy>
26

>  <SCORE.norm>
-0.694978

>  <RMSD>
10.886

$$$$
ligand
 OpenBabel11021811473D
libRbt.so/2013.1/901 2013/11/27
 26 27  0  0  0  0  0  0  0  0999 V2000
   -1.9996  -17.6011   17.3979 C   0  0  0  0  0  0  0  0  0  0  0  0
   -4.8250  -17.9454   15.4930 C   0  0  0  0  0  0  0  0  0  0  0  0
   -3.8374  -18.7987   15.0122 C   0  0  0  0  0  0  0  0  0  0  0  0
   -2.4494  -18.3197   14.5801 C   0  0  0  0  0  0  0  0  0  0  0  0
   -1.1694  -18.6515   16.6541 C   0  0  1  0  0  0  0  0  0  0  0  0
   -7.6026  -20.4443   16.2500 C   0  0  0  0  0  0  0  0  0  0  0  0
   -6.2670  -19.8506   15.7998 C   0  0  0  0  0  0  0  0  0  0  0  0
   -4.1258  -20.1581   14.9452 C   0  0  0  0  0  0  0  0  0  0  0  0
   -0.6243  -19.9125   14.8387 C   0  0  0  0  0  0  0  0  0  0  0  0
   -0.1405  -19.3523   17.2718 C   0  0  2  0  0  0  0  0  0  0  0  0
    0.3940  -19.2939   18.7051 C   0  0  0  0  0  0  0  0  0  0  0  0
    1.5577  -18.3133   18.8678 C   0  0  0  0  0  0  0  0  0  0  0  0
   -6.0560  -18.4686   15.8939 N   0  0  0  0  0  0  0  0  0  0  0  0
   -1.3953  -18.9658   15.3755 N   0  0  0  0  0  0  0  0  0  0  0  0
   -5.2930  -20.6418   15.3274 N   0  0  0  0  0  0  0  0  0  0  0  0
   -4.6177  -16.7342   15.5700 O   0  0  0  0  0  0  0  0  0  0  0  0
    3.9037  -18.1625   21.1448 O   0  5  0  0  0  0  0  0  0  0  0  0
    5.4183  -20.6630   21.5193 O   0  0  0  0  0  0  0  0  0  0  0  0
    2.8131  -18.9923   18.9707 O   0  0  0  0  0  0  0  0  0  0  0  0
    5.3513  -19.2777   19.3699 O   0  0  0  0  0  0  0  0  0  0  0  0
    4.0481  -21.5081   19.4943 O   0  5  0  0  0  0  0  0  0  0  0  0
    4.3691  -16.9447   18.9128 O   0  0  0  0  0  0  0  0  0  0  0  0
    6.6136  -21.5002   19.4119 O   0  0  0  0  0  0  0  0  0  0  0  0
    0.5402  -20.3867   16.0470 S   0  0  0  0  0  0  0  0  0  0  0  0
    4.1222  -18.2571   19.5530 P   0  0  2  0  0  0  0  0  0  0  0  0
    5.2668  -20.7850   19.9216 P   0  0  2  0  0  0  0  0  0  0  0  0
  2 16  2  0  0  0  0
  2  3  1  0  0  0  0
  2 13  1  0  0  0  0
  3  8  2  0  0  0  0
  3  4  1  0  0  0  0
  4 14  1  0  0  0  0
  5  1  1  1  0  0  0
  5 14  1  0  0  0  0
  5 10  1  0  0  0  0
  6  7  1  0  0  0  0
  7 13  1  0  0  0  0
  7 15  2  0  0  0  0
  8 15  1  0  0  0  0
  9 14  1  0  0  0  0
  9 24  1  0  0  0  0
 10 24  1  0  0  0  0
 10 11  1  6  0  0  0
 11 12  1  0  0  0  0
 12 19  1  0  0  0  0
 17 25  1  0  0  0  0
 19 25  1  0  0  0  0
 20 26  1  0  0  0  0
 21 26  1  0  0  0  0
 22 25  2  0  0  0  0
 23 26  2  0  0  0  0
 25 20  1  6  0  0  0
 26 18  1  1  0  0  0
M  CHG  2  17  -1  21  -1
M  END
>  <CHROM.1>
120.35236578,-92.62137388,-104.28973076,-72.56121972,-162.53755687,59.36038958
74.50290267,-74.14548136,0.41060860,-19.29983616,17.65340271,3.10968711,0.42541615
-2.91056212

>  <Name>
ligand

>  <RI>
0

>  <Rbt.Current_Directory>
/home/itssahil/PROJECTS/Mol_Feturizer/New_Systems/rnas/3D2X

>  <Rbt.Executable>
rbdock ($Id: //depot/dev/client3/rdock/2013.1/src/exe/rbdock.cxx#4 $)

>  <Rbt.Library>
libRbt.so (2013.1, Build901 2013/11/27)

>  <Rbt.Parameter_File>
/export/apps/rDock/src/rDock_2013.1_src/data/scripts/dock_solv.prm

>  <Rbt.Receptor>
prm/blind_docking_80.prm

>  <SCORE>
-16.9929

>  <SCORE.INTER>
-17.2571

>  <SCORE.INTER.CONST>
1

>  <SCORE.INTER.POLAR>
0

>  <SCORE.INTER.ROT>
8

>  <SCORE.INTER.SOLV>
22.0643

>  <SCORE.INTER.VDW>
-27.7928

>  <SCORE.INTER.norm>
-0.663735

>  <SCORE.INTRA>
0.25049

>  <SCORE.INTRA.DIHEDRAL>
3.37241

>  <SCORE.INTRA.DIHEDRAL.0>
7.88077

>  <SCORE.INTRA.POLAR>
0

>  <SCORE.INTRA.POLAR.0>
0

>  <SCORE.INTRA.REPUL>
0

>  <SCORE.INTRA.REPUL.0>
0

>  <SCORE.INTRA.SOLV>
-1.29023

>  <SCORE.INTRA.SOLV.lig_0>
-63.2542

>  <SCORE.INTRA.VDW>
-0.790601

>  <SCORE.INTRA.VDW.0>
-3.15072

>  <SCORE.INTRA.norm>
0.00963423

>  <SCORE.RESTR>
0.0137327

>  <SCORE.RESTR.CAVITY>
0.0137327

>  <SCORE.RESTR.norm>
0.000528181

>  <SCORE.SYSTEM>
0

>  <SCORE.SYSTEM.CONST>
0

>  <SCORE.SYSTEM.DIHEDRAL>
0

>  <SCORE.SYSTEM.SOLV>
0

>  <SCORE.SYSTEM.norm>
0

>  <SCORE.heavy>
26

>  <SCORE.norm>
-0.653573

>  <RMSD>
10.892

$$$$
ligand
 OpenBabel11021811473D
libRbt.so/2013.1/901 2013/11/27
 26 27  0  0  0  0  0  0  0  0999 V2000
   -1.4255  -17.4018   17.1998 C   0  0  0  0  0  0  0  0  0  0  0  0
   -4.5007  -20.5922   14.0353 C   0  0  0  0  0  0  0  0  0  0  0  0
   -4.2100  -19.8905   15.2006 C   0  0  0  0  0  0  0  0  0  0  0  0
   -3.1799  -18.7604   15.2671 C   0  0  0  0  0  0  0  0  0  0  0  0
   -1.0269  -18.6785   16.4537 C   0  0  1  0  0  0  0  0  0  0  0  0
   -7.2265  -22.9416   15.2933 C   0  0  0  0  0  0  0  0  0  0  0  0
   -6.1426  -21.8632   15.2567 C   0  0  0  0  0  0  0  0  0  0  0  0
   -4.9118  -20.2235   16.3548 C   0  0  0  0  0  0  0  0  0  0  0  0
   -1.3971  -20.4010   15.0118 C   0  0  0  0  0  0  0  0  0  0  0  0
    0.2032  -19.2949   16.6498 C   0  0  2  0  0  0  0  0  0  0  0  0
    1.3745  -18.9283   17.5648 C   0  0  0  0  0  0  0  0  0  0  0  0
    0.9273  -18.5141   18.9686 C   0  0  0  0  0  0  0  0  0  0  0  0
   -5.4766  -21.5907   14.0544 N   0  0  0  0  0  0  0  0  0  0  0  0
   -1.8424  -19.2816   15.5843 N   0  0  0  0  0  0  0  0  0  0  0  0
   -5.8328  -21.1691   16.3612 N   0  0  0  0  0  0  0  0  0  0  0  0
   -3.9053  -20.3348   12.9889 O   0  0  0  0  0  0  0  0  0  0  0  0
    2.6193  -16.1458   20.1526 O   0  5  0  0  0  0  0  0  0  0  0  0
    6.4453  -18.0973   20.2252 O   0  0  0  0  0  0  0  0  0  0  0  0
    1.9912  -18.6269   19.9190 O   0  0  0  0  0  0  0  0  0  0  0  0
    4.1010  -17.9145   21.2323 O   0  0  0  0  0  0  0  0  0  0  0  0
    5.9452  -19.1992   22.5117 O   0  5  0  0  0  0  0  0  0  0  0  0
    4.0442  -17.7108   18.6687 O   0  0  0  0  0  0  0  0  0  0  0  0
    4.9377  -20.1663   20.3582 O   0  0  0  0  0  0  0  0  0  0  0  0
    0.2330  -20.6632   15.5727 S   0  0  0  0  0  0  0  0  0  0  0  0
    3.2402  -17.6105   19.9084 P   0  0  2  0  0  0  0  0  0  0  0  0
    5.3980  -18.8623   21.1785 P   0  0  2  0  0  0  0  0  0  0  0  0
  2 16  2  0  0  0  0
  2  3  1  0  0  0  0
  2 13  1  0  0  0  0
  3  8  2  0  0  0  0
  3  4  1  0  0  0  0
  4 14  1  0  0  0  0
  5  1  1  1  0  0  0
  5 14  1  0  0  0  0
  5 10  1  0  0  0  0
  6  7  1  0  0  0  0
  7 13  1  0  0  0  0
  7 15  2  0  0  0  0
  8 15  1  0  0  0  0
  9 14  1  0  0  0  0
  9 24  1  0  0  0  0
 10 24  1  0  0  0  0
 10 11  1  6  0  0  0
 11 12  1  0  0  0  0
 12 19  1  0  0  0  0
 17 25  1  0  0  0  0
 19 25  1  0  0  0  0
 20 26  1  0  0  0  0
 21 26  1  0  0  0  0
 22 25  2  0  0  0  0
 23 26  2  0  0  0  0
 25 20  1  1  0  0  0
 26 18  1  6  0  0  0
M  CHG  2  17  -1  21  -1
M  END
>  <CHROM.1>
-89.57567959,43.52450186,159.74822010,-137.37045859,71.17399679,-150.63384460
60.72260228,63.72911778,0.24556012,-19.32177746,17.69632285,-2.96588654,0.56617543
2.40788683

>  <Name>
ligand

>  <RI>
0

>  <Rbt.Current_Directory>
/home/itssahil/PROJECTS/Mol_Feturizer/New_Systems/rnas/3D2X

>  <Rbt.Executable>
rbdock ($Id: //depot/dev/client3/rdock/2013.1/src/exe/rbdock.cxx#4 $)

>  <Rbt.Library>
libRbt.so (2013.1, Build901 2013/11/27)

>  <Rbt.Parameter_File>
/export/apps/rDock/src/rDock_2013.1_src/data/scripts/dock_solv.prm

>  <Rbt.Receptor>
prm/blind_docking_40.prm

>  <SCORE>
-16.9147

>  <SCORE.INTER>
-17.5938

>  <SCORE.INTER.CONST>
1

>  <SCORE.INTER.POLAR>
0

>  <SCORE.INTER.ROT>
8

>  <SCORE.INTER.SOLV>
20.6662

>  <SCORE.INTER.VDW>
-27.5513

>  <SCORE.INTER.norm>
-0.676686

>  <SCORE.INTRA>
0.679137

>  <SCORE.INTRA.DIHEDRAL>
0.38603

>  <SCORE.INTRA.DIHEDRAL.0>
7.88077

>  <SCORE.INTRA.POLAR>
0

>  <SCORE.INTRA.POLAR.0>
0

>  <SCORE.INTRA.REPUL>
0

>  <SCORE.INTRA.REPUL.0>
0

>  <SCORE.INTRA.SOLV>
-0.200158

>  <SCORE.INTRA.SOLV.lig_0>
-63.2542

>  <SCORE.INTRA.VDW>
0.586201

>  <SCORE.INTRA.VDW.0>
-3.15072

>  <SCORE.INTRA.norm>
0.0261206

>  <SCORE.RESTR>
0

>  <SCORE.RESTR.CAVITY>
0

>  <SCORE.RESTR.norm>
0

>  <SCORE.SYSTEM>
0

>  <SCORE.SYSTEM.CONST>
0

>  <SCORE.SYSTEM.DIHEDRAL>
0

>  <SCORE.SYSTEM.SOLV>
0

>  <SCORE.SYSTEM.norm>
0

>  <SCORE.heavy>
26

>  <SCORE.norm>
-0.650565

>  <RMSD>
10.910

$$$$
ligand
 OpenBabel11021811473D
libRbt.so/2013.1/901 2013/11/27
 26 27  0  0  0  0  0  0  0  0999 V2000
   -0.2563  -15.5125   18.7970 C   0  0  0  0  0  0  0  0  0  0  0  0
   -3.2871  -19.0024   16.0368 C   0  0  0  0  0  0  0  0  0  0  0  0
   -3.1421  -17.9191   16.8972 C   0  0  0  0  0  0  0  0  0  0  0  0
   -1.9302  -16.9845   16.8759 C   0  0  0  0  0  0  0  0  0  0  0  0
    0.0117  -16.9632   18.3855 C   0  0  1  0  0  0  0  0  0  0  0  0
   -6.7032  -20.3038   17.1181 C   0  0  0  0  0  0  0  0  0  0  0  0
   -5.4269  -19.4645   17.0423 C   0  0  0  0  0  0  0  0  0  0  0  0
   -4.1654  -17.6655   17.8049 C   0  0  0  0  0  0  0  0  0  0  0  0
   -0.4488  -18.8820   17.2502 C   0  0  0  0  0  0  0  0  0  0  0  0
    1.0721  -17.6947   18.9068 C   0  0  2  0  0  0  0  0  0  0  0  0
    2.1473  -17.3144   19.9280 C   0  0  0  0  0  0  0  0  0  0  0  0
    3.5680  -17.4414   19.3732 C   0  0  0  0  0  0  0  0  0  0  0  0
   -4.4391  -19.7887   16.1028 N   0  0  0  0  0  0  0  0  0  0  0  0
   -0.7655  -17.6138   17.5152 N   0  0  0  0  0  0  0  0  0  0  0  0
   -5.2505  -18.4153   17.8582 N   0  0  0  0  0  0  0  0  0  0  0  0
   -2.4080  -19.2680   15.2168 O   0  0  0  0  0  0  0  0  0  0  0  0
    5.8596  -18.7942   17.5532 O   0  5  0  0  0  0  0  0  0  0  0  0
    8.1000  -20.0099   20.5615 O   0  0  0  0  0  0  0  0  0  0  0  0
    3.9989  -18.8052   19.3258 O   0  0  0  0  0  0  0  0  0  0  0  0
    6.4246  -18.1734   19.9583 O   0  0  0  0  0  0  0  0  0  0  0  0
    8.8588  -18.0154   19.0991 O   0  5  0  0  0  0  0  0  0  0  0  0
    5.8297  -20.6110   19.3917 O   0  0  0  0  0  0  0  0  0  0  0  0
    8.3298  -17.6719   21.5872 O   0  0  0  0  0  0  0  0  0  0  0  0
    1.0120  -19.2512   18.1278 S   0  0  0  0  0  0  0  0  0  0  0  0
    5.5427  -19.1918   19.0803 P   0  0  2  0  0  0  0  0  0  0  0  0
    7.9881  -18.4415   20.2175 P   0  0  2  0  0  0  0  0  0  0  0  0
  2 16  2  0  0  0  0
  2  3  1  0  0  0  0
  2 13  1  0  0  0  0
  3  8  2  0  0  0  0
  3  4  1  0  0  0  0
  4 14  1  0  0  0  0
  5  1  1  1  0  0  0
  5 14  1  0  0  0  0
  5 10  1  0  0  0  0
  6  7  1  0  0  0  0
  7 13  1  0  0  0  0
  7 15  2  0  0  0  0
  8 15  1  0  0  0  0
  9 14  1  0  0  0  0
  9 24  1  0  0  0  0
 10 24  1  0  0  0  0
 10 11  1  6  0  0  0
 11 12  1  0  0  0  0
 12 19  1  0  0  0  0
 17 25  1  0  0  0  0
 19 25  1  0  0  0  0
 20 26  1  0  0  0  0
 21 26  1  0  0  0  0
 22 25  2  0  0  0  0
 23 26  2  0  0  0  0
 25 20  1  1  0  0  0
 26 18  1  1  0  0  0
M  CHG  2  17  -1  21  -1
M  END
>  <CHROM.1>
-76.68367509,-121.23951766,-77.04436309,-134.90085790,-166.95960097,-81.10279242
-69.44204729,-43.54829324,1.87659219,-18.51969910,18.46422486,3.03416532
0.23351170,-2.71911308

>  <Name>
ligand

>  <RI>
0

>  <Rbt.Current_Directory>
/home/itssahil/PROJECTS/Mol_Feturizer/New_Systems/rnas/3D2X

>  <Rbt.Executable>
rbdock ($Id: //depot/dev/client3/rdock/2013.1/src/exe/rbdock.cxx#4 $)

>  <Rbt.Library>
libRbt.so (2013.1, Build901 2013/11/27)

>  <Rbt.Parameter_File>
/export/apps/rDock/src/rDock_2013.1_src/data/scripts/dock_solv.prm

>  <Rbt.Receptor>
prm/blind_docking_40.prm

>  <SCORE>
-21.2168

>  <SCORE.INTER>
-21.2016

>  <SCORE.INTER.CONST>
1

>  <SCORE.INTER.POLAR>
0

>  <SCORE.INTER.ROT>
8

>  <SCORE.INTER.SOLV>
25.6523

>  <SCORE.INTER.VDW>
-31.6185

>  <SCORE.INTER.norm>
-0.815447

>  <SCORE.INTRA>
-0.490248

>  <SCORE.INTRA.DIHEDRAL>
0.620657

>  <SCORE.INTRA.DIHEDRAL.0>
7.88077

>  <SCORE.INTRA.POLAR>
0

>  <SCORE.INTRA.POLAR.0>
0

>  <SCORE.INTRA.REPUL>
0

>  <SCORE.INTRA.REPUL.0>
0

>  <SCORE.INTRA.SOLV>
-1.63388

>  <SCORE.INTRA.SOLV.lig_0>
-63.2542

>  <SCORE.INTRA.VDW>
0.0163617

>  <SCORE.INTRA.VDW.0>
-3.15072

>  <SCORE.INTRA.norm>
-0.0188557

>  <SCORE.RESTR>
0.475072

>  <SCORE.RESTR.CAVITY>
0.475072

>  <SCORE.RESTR.norm>
0.018272

>  <SCORE.SYSTEM>
0

>  <SCORE.SYSTEM.CONST>
0

>  <SCORE.SYSTEM.DIHEDRAL>
0

>  <SCORE.SYSTEM.SOLV>
0

>  <SCORE.SYSTEM.norm>
0

>  <SCORE.heavy>
26

>  <SCORE.norm>
-0.816031

>  <RMSD>
10.933

$$$$
ligand
 OpenBabel11021811473D
libRbt.so/2013.1/901 2013/11/27
 26 27  0  0  0  0  0  0  0  0999 V2000
    0.4503  -20.2318   16.9923 C   0  0  0  0  0  0  0  0  0  0  0  0
   -4.1930  -18.1624   15.6486 C   0  0  0  0  0  0  0  0  0  0  0  0
   -3.1780  -19.0784   15.9048 C   0  0  0  0  0  0  0  0  0  0  0  0
   -1.7063  -18.8167   15.5760 C   0  0  0  0  0  0  0  0  0  0  0  0
   -0.0323  -18.8304   17.3782 C   0  0  1  0  0  0  0  0  0  0  0  0
   -7.2035  -20.0464   17.0341 C   0  0  0  0  0  0  0  0  0  0  0  0
   -5.7727  -19.7005   16.6191 C   0  0  0  0  0  0  0  0  0  0  0  0
   -3.5232  -20.2817   16.5117 C   0  0  0  0  0  0  0  0  0  0  0  0
   -1.3305  -16.9769   17.1280 C   0  0  0  0  0  0  0  0  0  0  0  0
    0.5306  -18.1194   18.4313 C   0  0  2  0  0  0  0  0  0  0  0  0
    1.6664  -18.4807   19.3920 C   0  0  0  0  0  0  0  0  0  0  0  0
    3.0481  -18.3996   18.7388 C   0  0  0  0  0  0  0  0  0  0  0  0
   -5.5075  -18.4684   16.0068 N   0  0  0  0  0  0  0  0  0  0  0  0
   -1.0100  -18.2046   16.7168 N   0  0  0  0  0  0  0  0  0  0  0  0
   -4.7693  -20.5603   16.8466 N   0  0  0  0  0  0  0  0  0  0  0  0
   -3.9375  -17.0842   15.1119 O   0  0  0  0  0  0  0  0  0  0  0  0
    5.5944  -18.7113   17.4350 O   0  5  0  0  0  0  0  0  0  0  0  0
    5.2187  -17.5634   22.0750 O   0  0  0  0  0  0  0  0  0  0  0  0
    3.9694  -19.3211   19.3303 O   0  0  0  0  0  0  0  0  0  0  0  0
    6.2697  -18.2616   19.8498 O   0  0  0  0  0  0  0  0  0  0  0  0
    6.3121  -19.8973   21.8526 O   0  5  0  0  0  0  0  0  0  0  0  0
    6.1244  -20.6894   19.0123 O   0  0  0  0  0  0  0  0  0  0  0  0
    7.7644  -17.7809   21.8670 O   0  0  0  0  0  0  0  0  0  0  0  0
   -0.3535  -16.6220   18.5281 S   0  0  0  0  0  0  0  0  0  0  0  0
    5.5254  -19.3384   18.9157 P   0  0  2  0  0  0  0  0  0  0  0  0
    6.3803  -18.4780   21.4386 P   0  0  2  0  0  0  0  0  0  0  0  0
  2 16  2  0  0  0  0
  2  3  1  0  0  0  0
  2 13  1  0  0  0  0
  3  8  2  0  0  0  0
  3  4  1  0  0  0  0
  4 14  1  0  0  0  0
  5  1  1  6  0  0  0
  5 14  1  0  0  0  0
  5 10  1  0  0  0  0
  6  7  1  0  0  0  0
  7 13  1  0  0  0  0
  7 15  2  0  0  0  0
  8 15  1  0  0  0  0
  9 14  1  0  0  0  0
  9 24  1  0  0  0  0
 10 24  1  0  0  0  0
 10 11  1  1  0  0  0
 11 12  1  0  0  0  0
 12 19  1  0  0  0  0
 17 25  1  0  0  0  0
 19 25  1  0  0  0  0
 20 26  1  0  0  0  0
 21 26  1  0  0  0  0
 22 25  2  0  0  0  0
 23 26  2  0  0  0  0
 25 20  1  1  0  0  0
 26 18  1  1  0  0  0
M  CHG  2  17  -1  21  -1
M  END
>  <CHROM.1>
91.22103871,74.50541105,-150.52245744,114.31859320,-174.27674599,177.84017173
-24.38359718,-99.72791759,1.25368140,-18.69553004,18.37091541,-2.91644070
-0.30830224,0.62135199

>  <Name>
ligand

>  <RI>
0

>  <Rbt.Current_Directory>
/home/itssahil/PROJECTS/Mol_Feturizer/New_Systems/rnas/3D2X

>  <Rbt.Executable>
rbdock ($Id: //depot/dev/client3/rdock/2013.1/src/exe/rbdock.cxx#4 $)

>  <Rbt.Library>
libRbt.so (2013.1, Build901 2013/11/27)

>  <Rbt.Parameter_File>
/export/apps/rDock/src/rDock_2013.1_src/data/scripts/dock_solv.prm

>  <Rbt.Receptor>
prm/blind_docking_80.prm

>  <SCORE>
-17.7729

>  <SCORE.INTER>
-17.5909

>  <SCORE.INTER.CONST>
1

>  <SCORE.INTER.POLAR>
0

>  <SCORE.INTER.ROT>
8

>  <SCORE.INTER.SOLV>
22.9634

>  <SCORE.INTER.VDW>
-28.3151

>  <SCORE.INTER.norm>
-0.676574

>  <SCORE.INTRA>
-0.181998

>  <SCORE.INTRA.DIHEDRAL>
2.41311

>  <SCORE.INTRA.DIHEDRAL.0>
7.88077

>  <SCORE.INTRA.POLAR>
0

>  <SCORE.INTRA.POLAR.0>
0

>  <SCORE.INTRA.REPUL>
0

>  <SCORE.INTRA.REPUL.0>
0

>  <SCORE.INTRA.SOLV>
-1.85343

>  <SCORE.INTRA.SOLV.lig_0>
-63.2542

>  <SCORE.INTRA.VDW>
-0.461835

>  <SCORE.INTRA.VDW.0>
-3.15072

>  <SCORE.INTRA.norm>
-0.00699992

>  <SCORE.RESTR>
0

>  <SCORE.RESTR.CAVITY>
0

>  <SCORE.RESTR.norm>
0

>  <SCORE.SYSTEM>
0

>  <SCORE.SYSTEM.CONST>
0

>  <SCORE.SYSTEM.DIHEDRAL>
0

>  <SCORE.SYSTEM.SOLV>
0

>  <SCORE.SYSTEM.norm>
0

>  <SCORE.heavy>
26

>  <SCORE.norm>
-0.683574

>  <RMSD>
10.939

$$$$
ligand
 OpenBabel11021811473D
libRbt.so/2013.1/901 2013/11/27
 26 27  0  0  0  0  0  0  0  0999 V2000
    0.0601  -15.2280   19.1623 C   0  0  0  0  0  0  0  0  0  0  0  0
   -2.9851  -18.6795   16.3475 C   0  0  0  0  0  0  0  0  0  0  0  0
   -2.9388  -17.6081   17.2332 C   0  0  0  0  0  0  0  0  0  0  0  0
   -1.7522  -16.6460   17.3282 C   0  0  0  0  0  0  0  0  0  0  0  0
    0.2625  -16.6858   18.7388 C   0  0  1  0  0  0  0  0  0  0  0  0
   -6.4477  -20.0761   17.1173 C   0  0  0  0  0  0  0  0  0  0  0  0
   -5.1900  -19.2070   17.1620 C   0  0  0  0  0  0  0  0  0  0  0  0
   -4.0405  -17.3931   18.0552 C   0  0  0  0  0  0  0  0  0  0  0  0
   -0.3130  -18.5885   17.6290 C   0  0  0  0  0  0  0  0  0  0  0  0
    1.3247  -17.4500   19.2068 C   0  0  2  0  0  0  0  0  0  0  0  0
    2.4608  -17.1039   20.1727 C   0  0  0  0  0  0  0  0  0  0  0  0
    3.8477  -17.2887   19.5525 C   0  0  0  0  0  0  0  0  0  0  0  0
   -4.1194  -19.4928   16.3044 N   0  0  0  0  0  0  0  0  0  0  0  0
   -0.5768  -17.3114   17.9088 N   0  0  0  0  0  0  0  0  0  0  0  0
   -5.1080  -18.1681   18.0056 N   0  0  0  0  0  0  0  0  0  0  0  0
   -2.0342  -18.9113   15.6006 O   0  0  0  0  0  0  0  0  0  0  0  0
    6.1231  -18.8717   17.8013 O   0  5  0  0  0  0  0  0  0  0  0  0
    8.9964  -17.6723   19.1043 O   0  0  0  0  0  0  0  0  0  0  0  0
    4.2462  -18.6631   19.5444 O   0  0  0  0  0  0  0  0  0  0  0  0
    6.6733  -17.9896   20.1269 O   0  0  0  0  0  0  0  0  0  0  0  0
    8.7140  -17.6346   21.6755 O   0  5  0  0  0  0  0  0  0  0  0  0
    6.0552  -20.4691   19.8324 O   0  0  0  0  0  0  0  0  0  0  0  0
    8.4327  -19.8278   20.3720 O   0  0  0  0  0  0  0  0  0  0  0  0
    1.1780  -19.0032   18.4327 S   0  0  0  0  0  0  0  0  0  0  0  0
    5.7876  -19.0912   19.3601 P   0  0  2  0  0  0  0  0  0  0  0  0
    8.2370  -18.2323   20.4083 P   0  0  2  0  0  0  0  0  0  0  0  0
  2 16  2  0  0  0  0
  2  3  1  0  0  0  0
  2 13  1  0  0  0  0
  3  8  2  0  0  0  0
  3  4  1  0  0  0  0
  4 14  1  0  0  0  0
  5  1  1  1  0  0  0
  5 14  1  0  0  0  0
  5 10  1  0  0  0  0
  6  7  1  0  0  0  0
  7 13  1  0  0  0  0
  7 15  2  0  0  0  0
  8 15  1  0  0  0  0
  9 14  1  0  0  0  0
  9 24  1  0  0  0  0
 10 24  1  0  0  0  0
 10 11  1  6  0  0  0
 11 12  1  0  0  0  0
 12 19  1  0  0  0  0
 17 25  1  0  0  0  0
 19 25  1  0  0  0  0
 20 26  1  0  0  0  0
 21 26  1  0  0  0  0
 22 25  2  0  0  0  0
 23 26  2  0  0  0  0
 25 20  1  1  0  0  0
 26 18  1  6  0  0  0
M  CHG  2  17  -1  21  -1
M  END
>  <CHROM.1>
-69.86396764,-121.87126391,-79.32413713,-142.75790989,-161.78678740,-80.02837593
-75.11404963,88.28623214,2.12084624,-18.30158352,18.69968213,3.05305773,0.23110177
-2.73818927

>  <Name>
ligand

>  <RI>
0

>  <Rbt.Current_Directory>
/home/itssahil/PROJECTS/Mol_Feturizer/New_Systems/rnas/3D2X

>  <Rbt.Executable>
rbdock ($Id: //depot/dev/client3/rdock/2013.1/src/exe/rbdock.cxx#4 $)

>  <Rbt.Library>
libRbt.so (2013.1, Build901 2013/11/27)

>  <Rbt.Parameter_File>
/export/apps/rDock/src/rDock_2013.1_src/data/scripts/dock_solv.prm

>  <Rbt.Receptor>
prm/blind_docking_80.prm

>  <SCORE>
-21.5664

>  <SCORE.INTER>
-23.9566

>  <SCORE.INTER.CONST>
1

>  <SCORE.INTER.POLAR>
0

>  <SCORE.INTER.ROT>
8

>  <SCORE.INTER.SOLV>
19.6461

>  <SCORE.INTER.VDW>
-31.4531

>  <SCORE.INTER.norm>
-0.921406

>  <SCORE.INTRA>
2.16239

>  <SCORE.INTRA.DIHEDRAL>
2.5167

>  <SCORE.INTRA.DIHEDRAL.0>
7.88077

>  <SCORE.INTRA.POLAR>
0

>  <SCORE.INTRA.POLAR.0>
0

>  <SCORE.INTRA.REPUL>
0

>  <SCORE.INTRA.REPUL.0>
0

>  <SCORE.INTRA.SOLV>
-0.24909

>  <SCORE.INTRA.SOLV.lig_0>
-63.2542

>  <SCORE.INTRA.VDW>
1.02858

>  <SCORE.INTRA.VDW.0>
-3.15072

>  <SCORE.INTRA.norm>
0.0831688

>  <SCORE.RESTR>
0.227785

>  <SCORE.RESTR.CAVITY>
0.227785

>  <SCORE.RESTR.norm>
0.00876097

>  <SCORE.SYSTEM>
0

>  <SCORE.SYSTEM.CONST>
0

>  <SCORE.SYSTEM.DIHEDRAL>
0

>  <SCORE.SYSTEM.SOLV>
0

>  <SCORE.SYSTEM.norm>
0

>  <SCORE.heavy>
26

>  <SCORE.norm>
-0.829476

>  <RMSD>
10.939

$$$$
ligand
 OpenBabel11021811473D
libRbt.so/2013.1/901 2013/11/27
 26 27  0  0  0  0  0  0  0  0999 V2000
    0.0948  -15.8141   19.1469 C   0  0  0  0  0  0  0  0  0  0  0  0
   -3.8913  -17.1445   15.6067 C   0  0  0  0  0  0  0  0  0  0  0  0
   -3.1391  -17.3298   16.7620 C   0  0  0  0  0  0  0  0  0  0  0  0
   -1.8762  -16.5262   17.0812 C   0  0  0  0  0  0  0  0  0  0  0  0
    0.1590  -17.1099   18.3331 C   0  0  1  0  0  0  0  0  0  0  0  0
   -6.6969  -19.6595   16.1862 C   0  0  0  0  0  0  0  0  0  0  0  0
   -5.4239  -18.8344   16.3804 C   0  0  0  0  0  0  0  0  0  0  0  0
   -3.5760  -18.2799   17.6795 C   0  0  0  0  0  0  0  0  0  0  0  0
   -0.6062  -18.5823   16.7744 C   0  0  0  0  0  0  0  0  0  0  0  0
    1.1607  -18.0539   18.5256 C   0  0  2  0  0  0  0  0  0  0  0  0
    2.3445  -18.0769   19.4959 C   0  0  0  0  0  0  0  0  0  0  0  0
    3.5097  -18.9331   18.9944 C   0  0  0  0  0  0  0  0  0  0  0  0
   -5.0481  -17.9003   15.4059 N   0  0  0  0  0  0  0  0  0  0  0  0
   -0.7507  -17.4152   17.4036 N   0  0  0  0  0  0  0  0  0  0  0  0
   -4.6716  -18.9886   17.4796 N   0  0  0  0  0  0  0  0  0  0  0  0
   -3.5445  -16.3163   14.7643 O   0  0  0  0  0  0  0  0  0  0  0  0
    5.9947  -19.0576   22.0403 O   0  5  0  0  0  0  0  0  0  0  0  0
    8.9870  -17.3958   19.1946 O   0  0  0  0  0  0  0  0  0  0  0  0
    4.3759  -19.3282   20.0627 O   0  0  0  0  0  0  0  0  0  0  0  0
    6.5745  -17.9938   19.7994 O   0  0  0  0  0  0  0  0  0  0  0  0
    8.3280  -17.7000   21.6776 O   0  5  0  0  0  0  0  0  0  0  0  0
    4.6361  -17.0300   21.1888 O   0  0  0  0  0  0  0  0  0  0  0  0
    8.4292  -19.7262   20.1051 O   0  0  0  0  0  0  0  0  0  0  0  0
    0.8607  -19.3173   17.3650 S   0  0  0  0  0  0  0  0  0  0  0  0
    5.3436  -18.2706   20.7964 P   0  0  2  0  0  0  0  0  0  0  0  0
    8.0950  -18.1646   20.2918 P   0  0  2  0  0  0  0  0  0  0  0  0
  2 16  2  0  0  0  0
  2  3  1  0  0  0  0
  2 13  1  0  0  0  0
  3  8  2  0  0  0  0
  3  4  1  0  0  0  0
  4 14  1  0  0  0  0
  5  1  1  1  0  0  0
  5 14  1  0  0  0  0
  5 10  1  0  0  0  0
  6  7  1  0  0  0  0
  7 13  1  0  0  0  0
  7 15  2  0  0  0  0
  8 15  1  0  0  0  0
  9 14  1  0  0  0  0
  9 24  1  0  0  0  0
 10 24  1  0  0  0  0
 10 11  1  6  0  0  0
 11 12  1  0  0  0  0
 12 19  1  0  0  0  0
 17 25  1  0  0  0  0
 19 25  1  0  0  0  0
 20 26  1  0  0  0  0
 21 26  1  0  0  0  0
 22 25  2  0  0  0  0
 23 26  2  0  0  0  0
 25 20  1  6  0  0  0
 26 18  1  6  0  0  0
M  CHG  2  17  -1  21  -1
M  END
>  <CHROM.1>
-127.91311745,-154.53116030,-159.46803760,-143.60508828,-71.37274348,-14.50080423
172.87298950,-163.61468332,1.83278678,-18.11023350,18.62648887,-2.96910033
0.31339110,2.69440850

>  <Name>
ligand

>  <RI>
0

>  <Rbt.Current_Directory>
/home/itssahil/PROJECTS/Mol_Feturizer/New_Systems/rnas/3D2X

>  <Rbt.Executable>
rbdock ($Id: //depot/dev/client3/rdock/2013.1/src/exe/rbdock.cxx#4 $)

>  <Rbt.Library>
libRbt.so (2013.1, Build901 2013/11/27)

>  <Rbt.Parameter_File>
/export/apps/rDock/src/rDock_2013.1_src/data/scripts/dock_solv.prm

>  <Rbt.Receptor>
prm/blind_docking_40.prm

>  <SCORE>
-17.6054

>  <SCORE.INTER>
-20.6661

>  <SCORE.INTER.CONST>
1

>  <SCORE.INTER.POLAR>
0

>  <SCORE.INTER.ROT>
8

>  <SCORE.INTER.SOLV>
18.7103

>  <SCORE.INTER.VDW>
-28.9475

>  <SCORE.INTER.norm>
-0.794851

>  <SCORE.INTRA>
2.86823

>  <SCORE.INTRA.DIHEDRAL>
2.13091

>  <SCORE.INTRA.DIHEDRAL.0>
7.88077

>  <SCORE.INTRA.POLAR>
0

>  <SCORE.INTRA.POLAR.0>
0

>  <SCORE.INTRA.REPUL>
0

>  <SCORE.INTRA.REPUL.0>
0

>  <SCORE.INTRA.SOLV>
1.04607

>  <SCORE.INTRA.SOLV.lig_0>
-63.2542

>  <SCORE.INTRA.VDW>
1.27974

>  <SCORE.INTRA.VDW.0>
-3.15072

>  <SCORE.INTRA.norm>
0.110317

>  <SCORE.RESTR>
0.192512

>  <SCORE.RESTR.CAVITY>
0.192512

>  <SCORE.RESTR.norm>
0.00740432

>  <SCORE.SYSTEM>
0

>  <SCORE.SYSTEM.CONST>
0

>  <SCORE.SYSTEM.DIHEDRAL>
0

>  <SCORE.SYSTEM.SOLV>
0

>  <SCORE.SYSTEM.norm>
0

>  <SCORE.heavy>
26

>  <SCORE.norm>
-0.67713

>  <RMSD>
10.956

$$$$
ligand
 OpenBabel11021811473D
libRbt.so/2013.1/901 2013/11/27
 26 27  0  0  0  0  0  0  0  0999 V2000
   -1.6987  -17.4070   17.4082 C   0  0  0  0  0  0  0  0  0  0  0  0
   -4.8427  -17.9929   15.7814 C   0  0  0  0  0  0  0  0  0  0  0  0
   -3.8863  -18.7968   15.1699 C   0  0  0  0  0  0  0  0  0  0  0  0
   -2.5172  -18.2811   14.7203 C   0  0  0  0  0  0  0  0  0  0  0  0
   -1.0405  -18.5735   16.6656 C   0  0  1  0  0  0  0  0  0  0  0  0
   -7.6002  -20.5465   16.4200 C   0  0  0  0  0  0  0  0  0  0  0  0
   -6.2832  -19.9148   15.9665 C   0  0  0  0  0  0  0  0  0  0  0  0
   -4.1885  -20.1416   14.9815 C   0  0  0  0  0  0  0  0  0  0  0  0
   -0.8017  -20.0007   14.9079 C   0  0  0  0  0  0  0  0  0  0  0  0
   -0.0050  -19.3139   17.2234 C   0  0  2  0  0  0  0  0  0  0  0  0
    0.6906  -19.2004   18.5823 C   0  0  0  0  0  0  0  0  0  0  0  0
    2.1298  -18.6909   18.4744 C   0  0  0  0  0  0  0  0  0  0  0  0
   -6.0570  -18.5498   16.1878 N   0  0  0  0  0  0  0  0  0  0  0  0
   -1.4326  -18.9566   15.4473 N   0  0  0  0  0  0  0  0  0  0  0  0
   -5.3396  -20.6577   15.3702 N   0  0  0  0  0  0  0  0  0  0  0  0
   -4.6223  -16.7962   15.9688 O   0  0  0  0  0  0  0  0  0  0  0  0
    4.4743  -17.1671   20.4740 O   0  5  0  0  0  0  0  0  0  0  0  0
    6.9222  -18.0025   21.6606 O   0  0  0  0  0  0  0  0  0  0  0  0
    2.8959  -19.0152   19.6387 O   0  0  0  0  0  0  0  0  0  0  0  0
    5.1067  -19.6074   20.8409 O   0  0  0  0  0  0  0  0  0  0  0  0
    7.1059  -20.5258   22.2005 O   0  5  0  0  0  0  0  0  0  0  0  0
    5.1503  -18.6379   18.4587 O   0  0  0  0  0  0  0  0  0  0  0  0
    7.4392  -19.6860   19.7980 O   0  0  0  0  0  0  0  0  0  0  0  0
    0.4520  -20.4857   16.0187 S   0  0  0  0  0  0  0  0  0  0  0  0
    4.4497  -18.6110   19.7632 P   0  0  2  0  0  0  0  0  0  0  0  0
    6.6709  -19.5245   21.2011 P   0  0  2  0  0  0  0  0  0  0  0  0
  2 16  2  0  0  0  0
  2  3  1  0  0  0  0
  2 13  1  0  0  0  0
  3  8  2  0  0  0  0
  3  4  1  0  0  0  0
  4 14  1  0  0  0  0
  5  1  1  1  0  0  0
  5 14  1  0  0  0  0
  5 10  1  0  0  0  0
  6  7  1  0  0  0  0
  7 13  1  0  0  0  0
  7 15  2  0  0  0  0
  8 15  1  0  0  0  0
  9 14  1  0  0  0  0
  9 24  1  0  0  0  0
 10 24  1  0  0  0  0
 10 11  1  6  0  0  0
 11 12  1  0  0  0  0
 12 19  1  0  0  0  0
 17 25  1  0  0  0  0
 19 25  1  0  0  0  0
 20 26  1  0  0  0  0
 21 26  1  0  0  0  0
 22 25  2  0  0  0  0
 23 26  2  0  0  0  0
 25 20  1  1  0  0  0
 26 18  1  1  0  0  0
M  CHG  2  17  -1  21  -1
M  END
>  <CHROM.1>
117.31110913,-110.15926802,-160.10527214,-82.59408279,178.97777561,-69.44361615
91.46471158,55.54844904,0.81481812,-19.08486638,17.96492462,2.83553533,0.31823682
-2.36290913

>  <Name>
ligand

>  <RI>
0

>  <Rbt.Current_Directory>
/home/itssahil/PROJECTS/Mol_Feturizer/New_Systems/rnas/3D2X

>  <Rbt.Executable>
rbdock ($Id: //depot/dev/client3/rdock/2013.1/src/exe/rbdock.cxx#4 $)

>  <Rbt.Library>
libRbt.so (2013.1, Build901 2013/11/27)

>  <Rbt.Parameter_File>
/export/apps/rDock/src/rDock_2013.1_src/data/scripts/dock_solv.prm

>  <Rbt.Receptor>
prm/blind_docking_100.prm

>  <SCORE>
-20

>  <SCORE.INTER>
-19.1089

>  <SCORE.INTER.CONST>
1

>  <SCORE.INTER.POLAR>
0

>  <SCORE.INTER.ROT>
8

>  <SCORE.INTER.SOLV>
14.1972

>  <SCORE.INTER.VDW>
-26.405

>  <SCORE.INTER.norm>
-0.734959

>  <SCORE.INTRA>
-0.891028

>  <SCORE.INTRA.DIHEDRAL>
-0.334292

>  <SCORE.INTRA.DIHEDRAL.0>
7.88077

>  <SCORE.INTRA.POLAR>
0

>  <SCORE.INTRA.POLAR.0>
0

>  <SCORE.INTRA.REPUL>
0

>  <SCORE.INTRA.REPUL.0>
0

>  <SCORE.INTRA.SOLV>
-0.638932

>  <SCORE.INTRA.SOLV.lig_0>
-63.2542

>  <SCORE.INTRA.VDW>
-0.404416

>  <SCORE.INTRA.VDW.0>
-3.15072

>  <SCORE.INTRA.norm>
-0.0342703

>  <SCORE.RESTR>
0

>  <SCORE.RESTR.CAVITY>
0

>  <SCORE.RESTR.norm>
0

>  <SCORE.SYSTEM>
0

>  <SCORE.SYSTEM.CONST>
0

>  <SCORE.SYSTEM.DIHEDRAL>
0

>  <SCORE.SYSTEM.SOLV>
0

>  <SCORE.SYSTEM.norm>
0

>  <SCORE.heavy>
26

>  <SCORE.norm>
-0.769229

>  <RMSD>
10.958

$$$$
ligand
 OpenBabel11021811473D
libRbt.so/2013.1/901 2013/11/27
 26 27  0  0  0  0  0  0  0  0999 V2000
   -0.2375  -22.2593   17.6355 C   0  0  0  0  0  0  0  0  0  0  0  0
    1.5376  -18.3047   18.5411 C   0  0  0  0  0  0  0  0  0  0  0  0
    0.7376  -18.6100   17.4450 C   0  0  0  0  0  0  0  0  0  0  0  0
    0.9814  -19.8171   16.5361 C   0  0  0  0  0  0  0  0  0  0  0  0
   -0.8530  -21.4550   16.4866 C   0  0  1  0  0  0  0  0  0  0  0  0
   -0.2536  -15.2163   19.8775 C   0  0  0  0  0  0  0  0  0  0  0  0
    0.1113  -16.4203   19.0078 C   0  0  0  0  0  0  0  0  0  0  0  0
   -0.3508  -17.7845   17.1816 C   0  0  0  0  0  0  0  0  0  0  0  0
   -0.9233  -19.7146   15.0207 C   0  0  0  0  0  0  0  0  0  0  0  0
   -2.0501  -21.8244   15.8850 C   0  0  2  0  0  0  0  0  0  0  0  0
   -2.9946  -22.9958   16.1660 C   0  0  0  0  0  0  0  0  0  0  0  0
   -4.4663  -22.6426   15.9392 C   0  0  0  0  0  0  0  0  0  0  0  0
    1.2281  -17.1999   19.3370 N   0  0  0  0  0  0  0  0  0  0  0  0
   -0.2844  -20.3453   16.0071 N   0  0  0  0  0  0  0  0  0  0  0  0
   -0.6344  -16.7427   17.9412 N   0  0  0  0  0  0  0  0  0  0  0  0
    2.5129  -19.0047   18.8142 O   0  0  0  0  0  0  0  0  0  0  0  0
   -7.3095  -21.9436   17.1450 O   0  5  0  0  0  0  0  0  0  0  0  0
   -3.9523  -18.8504   17.5439 O   0  0  0  0  0  0  0  0  0  0  0  0
   -4.8392  -21.4501   16.6368 O   0  0  0  0  0  0  0  0  0  0  0  0
   -6.3986  -19.5984   17.5440 O   0  0  0  0  0  0  0  0  0  0  0  0
   -5.6756  -17.5912   16.0821 O   0  5  0  0  0  0  0  0  0  0  0  0
   -6.6718  -20.4516   15.1328 O   0  0  0  0  0  0  0  0  0  0  0  0
   -5.7460  -17.3828   18.6394 O   0  0  0  0  0  0  0  0  0  0  0  0
   -2.3305  -20.6626   14.6182 S   0  0  0  0  0  0  0  0  0  0  0  0
   -6.3232  -20.8359   16.5200 P   0  0  2  0  0  0  0  0  0  0  0  0
   -5.4567  -18.3093   17.3576 P   0  0  2  0  0  0  0  0  0  0  0  0
  2 16  2  0  0  0  0
  2  3  1  0  0  0  0
  2 13  1  0  0  0  0
  3  8  2  0  0  0  0
  3  4  1  0  0  0  0
  4 14  1  0  0  0  0
  5  1  1  1  0  0  0
  5 14  1  0  0  0  0
  5 10  1  0  0  0  0
  6  7  1  0  0  0  0
  7 13  1  0  0  0  0
  7 15  2  0  0  0  0
  8 15  1  0  0  0  0
  9 14  1  0  0  0  0
  9 24  1  0  0  0  0
 10 24  1  0  0  0  0
 10 11  1  6  0  0  0
 11 12  1  0  0  0  0
 12 19  1  0  0  0  0
 17 25  1  0  0  0  0
 19 25  1  0  0  0  0
 20 26  1  0  0  0  0
 21 26  1  0  0  0  0
 22 25  2  0  0  0  0
 23 26  2  0  0  0  0
 25 20  1  1  0  0  0
 26 18  1  1  0  0  0
M  CHG  2  17  -1  21  -1
M  END
>  <CHROM.1>
147.84242205,145.87441295,-51.55399980,-103.30536559,177.84393990,174.80079144
63.34557488,-63.75900113,-2.77048039,-19.57880807,17.00718422,-0.40679346
0.05058384,-2.64721019

>  <Name>
ligand

>  <RI>
0

>  <Rbt.Current_Directory>
/home/itssahil/PROJECTS/Mol_Feturizer/New_Systems/rnas/3D2X

>  <Rbt.Executable>
rbdock ($Id: //depot/dev/client3/rdock/2013.1/src/exe/rbdock.cxx#4 $)

>  <Rbt.Library>
libRbt.so (2013.1, Build901 2013/11/27)

>  <Rbt.Parameter_File>
/export/apps/rDock/src/rDock_2013.1_src/data/scripts/dock_solv.prm

>  <Rbt.Receptor>
prm/blind_docking_60.prm

>  <SCORE>
-25.5229

>  <SCORE.INTER>
-21.847

>  <SCORE.INTER.CONST>
1

>  <SCORE.INTER.POLAR>
0

>  <SCORE.INTER.ROT>
8

>  <SCORE.INTER.SOLV>
20.79

>  <SCORE.INTER.VDW>
-30.428

>  <SCORE.INTER.norm>
-0.84027

>  <SCORE.INTRA>
-3.67587

>  <SCORE.INTRA.DIHEDRAL>
-2.62741

>  <SCORE.INTRA.DIHEDRAL.0>
7.88077

>  <SCORE.INTRA.POLAR>
0

>  <SCORE.INTRA.POLAR.0>
0

>  <SCORE.INTRA.REPUL>
0

>  <SCORE.INTRA.REPUL.0>
0

>  <SCORE.INTRA.SOLV>
-2.664

>  <SCORE.INTRA.SOLV.lig_0>
-63.2542

>  <SCORE.INTRA.VDW>
-1.03017

>  <SCORE.INTRA.VDW.0>
-3.15072

>  <SCORE.INTRA.norm>
-0.14138

>  <SCORE.RESTR>
0

>  <SCORE.RESTR.CAVITY>
0

>  <SCORE.RESTR.norm>
0

>  <SCORE.SYSTEM>
0

>  <SCORE.SYSTEM.CONST>
0

>  <SCORE.SYSTEM.DIHEDRAL>
0

>  <SCORE.SYSTEM.SOLV>
0

>  <SCORE.SYSTEM.norm>
0

>  <SCORE.heavy>
26

>  <SCORE.norm>
-0.981649

>  <RMSD>
10.970

$$$$
ligand
 OpenBabel11021811473D
libRbt.so/2013.1/901 2013/11/27
 26 27  0  0  0  0  0  0  0  0999 V2000
   -0.9635  -16.5266   18.0881 C   0  0  0  0  0  0  0  0  0  0  0  0
   -4.4894  -18.2213   17.3159 C   0  0  0  0  0  0  0  0  0  0  0  0
   -3.6985  -18.5807   16.2296 C   0  0  0  0  0  0  0  0  0  0  0  0
   -2.3666  -17.9032   15.8983 C   0  0  0  0  0  0  0  0  0  0  0  0
   -0.5996  -17.9351   17.6091 C   0  0  1  0  0  0  0  0  0  0  0  0
   -7.3365  -20.7329   16.9713 C   0  0  0  0  0  0  0  0  0  0  0  0
   -6.0469  -19.9548   16.7055 C   0  0  0  0  0  0  0  0  0  0  0  0
   -4.1361  -19.6249   15.4212 C   0  0  0  0  0  0  0  0  0  0  0  0
   -0.8648  -19.7788   16.3001 C   0  0  0  0  0  0  0  0  0  0  0  0
    0.4253  -18.6713   18.1913 C   0  0  2  0  0  0  0  0  0  0  0  0
    1.3702  -18.3350   19.3478 C   0  0  0  0  0  0  0  0  0  0  0  0
    2.8232  -18.1622   18.8994 C   0  0  0  0  0  0  0  0  0  0  0  0
   -5.6779  -18.9109   17.5643 N   0  0  0  0  0  0  0  0  0  0  0  0
   -1.2546  -18.5430   16.6160 N   0  0  0  0  0  0  0  0  0  0  0  0
   -5.2613  -20.2703   15.6658 N   0  0  0  0  0  0  0  0  0  0  0  0
   -4.1451  -17.3026   18.0597 O   0  0  0  0  0  0  0  0  0  0  0  0
    5.7013  -17.5355   20.1058 O   0  5  0  0  0  0  0  0  0  0  0  0
    7.9614  -21.1606   19.3242 O   0  0  0  0  0  0  0  0  0  0  0  0
    3.7003  -19.0617   19.5845 O   0  0  0  0  0  0  0  0  0  0  0  0
    5.9357  -20.0520   20.4247 O   0  0  0  0  0  0  0  0  0  0  0  0
    8.2629  -18.9403   20.6172 O   0  5  0  0  0  0  0  0  0  0  0  0
    5.7602  -19.0935   18.0441 O   0  0  0  0  0  0  0  0  0  0  0  0
    7.7492  -21.1161   21.8784 O   0  0  0  0  0  0  0  0  0  0  0  0
    0.5064  -20.1681   17.3046 S   0  0  0  0  0  0  0  0  0  0  0  0
    5.3005  -18.9470   19.4443 P   0  0  2  0  0  0  0  0  0  0  0  0
    7.5281  -20.2238   20.5593 P   0  0  2  0  0  0  0  0  0  0  0  0
  2 16  2  0  0  0  0
  2  3  1  0  0  0  0
  2 13  1  0  0  0  0
  3  8  2  0  0  0  0
  3  4  1  0  0  0  0
  4 14  1  0  0  0  0
  5  1  1  1  0  0  0
  5 14  1  0  0  0  0
  5 10  1  0  0  0  0
  6  7  1  0  0  0  0
  7 13  1  0  0  0  0
  7 15  2  0  0  0  0
  8 15  1  0  0  0  0
  9 14  1  0  0  0  0
  9 24  1  0  0  0  0
 10 24  1  0  0  0  0
 10 11  1  6  0  0  0
 11 12  1  0  0  0  0
 12 19  1  0  0  0  0
 17 25  1  0  0  0  0
 19 25  1  0  0  0  0
 20 26  1  0  0  0  0
 21 26  1  0  0  0  0
 22 25  2  0  0  0  0
 23 26  2  0  0  0  0
 25 20  1  1  0  0  0
 26 18  1  6  0  0  0
M  CHG  2  17  -1  21  -1
M  END
>  <CHROM.1>
87.31537265,-112.15194017,-122.33997745,-110.37914463,-171.54558157,-67.41305680
65.11714147,-83.18232558,1.34513860,-19.16574795,18.37412118,-3.13656950
0.29995129,-2.97835287

>  <Name>
ligand

>  <RI>
0

>  <Rbt.Current_Directory>
/home/itssahil/PROJECTS/Mol_Feturizer/New_Systems/rnas/3D2X

>  <Rbt.Executable>
rbdock ($Id: //depot/dev/client3/rdock/2013.1/src/exe/rbdock.cxx#4 $)

>  <Rbt.Library>
libRbt.so (2013.1, Build901 2013/11/27)

>  <Rbt.Parameter_File>
/export/apps/rDock/src/rDock_2013.1_src/data/scripts/dock_solv.prm

>  <Rbt.Receptor>
prm/blind_docking_100.prm

>  <SCORE>
-16.7549

>  <SCORE.INTER>
-17.6283

>  <SCORE.INTER.CONST>
1

>  <SCORE.INTER.POLAR>
0

>  <SCORE.INTER.ROT>
8

>  <SCORE.INTER.SOLV>
14.3658

>  <SCORE.INTER.VDW>
-25.4742

>  <SCORE.INTER.norm>
-0.678013

>  <SCORE.INTRA>
0.85734

>  <SCORE.INTRA.DIHEDRAL>
3.61625

>  <SCORE.INTRA.DIHEDRAL.0>
7.88077

>  <SCORE.INTRA.POLAR>
0

>  <SCORE.INTRA.POLAR.0>
0

>  <SCORE.INTRA.REPUL>
0

>  <SCORE.INTRA.REPUL.0>
0

>  <SCORE.INTRA.SOLV>
-0.574194

>  <SCORE.INTRA.SOLV.lig_0>
-63.2542

>  <SCORE.INTRA.VDW>
-0.663686

>  <SCORE.INTRA.VDW.0>
-3.15072

>  <SCORE.INTRA.norm>
0.0329746

>  <SCORE.RESTR>
0.0161024

>  <SCORE.RESTR.CAVITY>
0.0161024

>  <SCORE.RESTR.norm>
0.000619323

>  <SCORE.SYSTEM>
0

>  <SCORE.SYSTEM.CONST>
0

>  <SCORE.SYSTEM.DIHEDRAL>
0

>  <SCORE.SYSTEM.SOLV>
0

>  <SCORE.SYSTEM.norm>
0

>  <SCORE.heavy>
26

>  <SCORE.norm>
-0.644419

>  <RMSD>
10.971

$$$$
ligand
 OpenBabel11021811473D
libRbt.so/2013.1/901 2013/11/27
 26 27  0  0  0  0  0  0  0  0999 V2000
    0.2854  -20.5568   15.8867 C   0  0  0  0  0  0  0  0  0  0  0  0
   -4.5532  -20.3196   14.4291 C   0  0  0  0  0  0  0  0  0  0  0  0
   -3.6071  -19.7785   15.2934 C   0  0  0  0  0  0  0  0  0  0  0  0
   -2.2000  -19.3700   14.8509 C   0  0  0  0  0  0  0  0  0  0  0  0
   -0.3306  -19.2712   16.4465 C   0  0  1  0  0  0  0  0  0  0  0  0
   -7.5118  -20.7315   16.7976 C   0  0  0  0  0  0  0  0  0  0  0  0
   -6.1185  -20.4045   16.2584 C   0  0  0  0  0  0  0  0  0  0  0  0
   -3.9738  -19.5807   16.6208 C   0  0  0  0  0  0  0  0  0  0  0  0
   -1.8878  -17.6115   16.5077 C   0  0  0  0  0  0  0  0  0  0  0  0
    0.2565  -18.5639   17.4888 C   0  0  2  0  0  0  0  0  0  0  0  0
    1.5402  -18.8255   18.2808 C   0  0  0  0  0  0  0  0  0  0  0  0
    1.6830  -17.9144   19.5022 C   0  0  0  0  0  0  0  0  0  0  0  0
   -5.8254  -20.6385   14.9083 N   0  0  0  0  0  0  0  0  0  0  0  0
   -1.4577  -18.7473   15.9564 N   0  0  0  0  0  0  0  0  0  0  0  0
   -5.1797  -19.8854   17.0628 N   0  0  0  0  0  0  0  0  0  0  0  0
   -4.2757  -20.5147   13.2456 O   0  0  0  0  0  0  0  0  0  0  0  0
    5.0454  -17.4612   21.2348 O   0  5  0  0  0  0  0  0  0  0  0  0
    6.2466  -19.1178   17.3087 O   0  0  0  0  0  0  0  0  0  0  0  0
    2.7929  -18.2954   20.3212 O   0  0  0  0  0  0  0  0  0  0  0  0
    5.0143  -19.3603   19.5372 O   0  0  0  0  0  0  0  0  0  0  0  0
    7.4486  -18.4873   19.5110 O   0  5  0  0  0  0  0  0  0  0  0  0
    4.3829  -16.9837   18.7823 O   0  0  0  0  0  0  0  0  0  0  0  0
    6.9389  -20.9439   18.9692 O   0  0  0  0  0  0  0  0  0  0  0  0
   -0.8028  -17.2208   17.8157 S   0  0  0  0  0  0  0  0  0  0  0  0
    4.3087  -17.9599   19.8935 P   0  0  2  0  0  0  0  0  0  0  0  0
    6.4782  -19.4063   18.8752 P   0  0  2  0  0  0  0  0  0  0  0  0
  2 16  2  0  0  0  0
  2  3  1  0  0  0  0
  2 13  1  0  0  0  0
  3  8  2  0  0  0  0
  3  4  1  0  0  0  0
  4 14  1  0  0  0  0
  5  1  1  6  0  0  0
  5 14  1  0  0  0  0
  5 10  1  0  0  0  0
  6  7  1  0  0  0  0
  7 13  1  0  0  0  0
  7 15  2  0  0  0  0
  8 15  1  0  0  0  0
  9 14  1  0  0  0  0
  9 24  1  0  0  0  0
 10 24  1  0  0  0  0
 10 11  1  1  0  0  0
 11 12  1  0  0  0  0
 12 19  1  0  0  0  0
 17 25  1  0  0  0  0
 19 25  1  0  0  0  0
 20 26  1  0  0  0  0
 21 26  1  0  0  0  0
 22 25  2  0  0  0  0
 23 26  2  0  0  0  0
 25 20  1  6  0  0  0
 26 18  1  6  0  0  0
M  CHG  2  17  -1  21  -1
M  END
>  <CHROM.1>
176.15172988,-170.28301371,172.23821115,118.17859950,75.83383509,-76.34262773
137.67719828,-80.23421911,0.79527374,-19.02167677,17.64006623,-2.79597359
-0.12137570,0.93311426

>  <Name>
ligand

>  <RI>
0

>  <Rbt.Current_Directory>
/home/itssahil/PROJECTS/Mol_Feturizer/New_Systems/rnas/3D2X

>  <Rbt.Executable>
rbdock ($Id: //depot/dev/client3/rdock/2013.1/src/exe/rbdock.cxx#4 $)

>  <Rbt.Library>
libRbt.so (2013.1, Build901 2013/11/27)

>  <Rbt.Parameter_File>
/export/apps/rDock/src/rDock_2013.1_src/data/scripts/dock_solv.prm

>  <Rbt.Receptor>
prm/blind_docking_100.prm

>  <SCORE>
-19.7033

>  <SCORE.INTER>
-20.9815

>  <SCORE.INTER.CONST>
1

>  <SCORE.INTER.POLAR>
0

>  <SCORE.INTER.ROT>
8

>  <SCORE.INTER.SOLV>
23.8245

>  <SCORE.INTER.VDW>
-30.8625

>  <SCORE.INTER.norm>
-0.80698

>  <SCORE.INTRA>
1.27813

>  <SCORE.INTRA.DIHEDRAL>
0.910069

>  <SCORE.INTRA.DIHEDRAL.0>
7.88077

>  <SCORE.INTRA.POLAR>
0

>  <SCORE.INTRA.POLAR.0>
0

>  <SCORE.INTRA.REPUL>
0

>  <SCORE.INTRA.REPUL.0>
0

>  <SCORE.INTRA.SOLV>
-0.625957

>  <SCORE.INTRA.SOLV.lig_0>
-63.2542

>  <SCORE.INTRA.VDW>
1.13607

>  <SCORE.INTRA.VDW.0>
-3.15072

>  <SCORE.INTRA.norm>
0.0491589

>  <SCORE.RESTR>
0

>  <SCORE.RESTR.CAVITY>
0

>  <SCORE.RESTR.norm>
0

>  <SCORE.SYSTEM>
0

>  <SCORE.SYSTEM.CONST>
0

>  <SCORE.SYSTEM.DIHEDRAL>
0

>  <SCORE.SYSTEM.SOLV>
0

>  <SCORE.SYSTEM.norm>
0

>  <SCORE.heavy>
26

>  <SCORE.norm>
-0.757821

>  <RMSD>
11.003

$$$$
ligand
 OpenBabel11021811473D
libRbt.so/2013.1/901 2013/11/27
 26 27  0  0  0  0  0  0  0  0999 V2000
    0.0724  -21.2765   16.9277 C   0  0  0  0  0  0  0  0  0  0  0  0
   -4.2706  -20.7057   14.0885 C   0  0  0  0  0  0  0  0  0  0  0  0
   -3.3024  -20.7793   15.0844 C   0  0  0  0  0  0  0  0  0  0  0  0
   -1.8332  -20.4147   14.8577 C   0  0  0  0  0  0  0  0  0  0  0  0
   -0.4930  -19.8557   16.8430 C   0  0  1  0  0  0  0  0  0  0  0  0
   -7.3678  -21.7648   16.0424 C   0  0  0  0  0  0  0  0  0  0  0  0
   -5.9188  -21.4233   15.6922 C   0  0  0  0  0  0  0  0  0  0  0  0
   -3.7020  -21.1839   16.3541 C   0  0  0  0  0  0  0  0  0  0  0  0
   -1.7604  -18.2150   15.9022 C   0  0  0  0  0  0  0  0  0  0  0  0
   -0.1311  -18.8620   17.7446 C   0  0  2  0  0  0  0  0  0  0  0  0
    0.8292  -18.8900   18.9364 C   0  0  0  0  0  0  0  0  0  0  0  0
    2.2462  -19.3207   18.5503 C   0  0  0  0  0  0  0  0  0  0  0  0
   -5.5958  -21.0289   14.3869 N   0  0  0  0  0  0  0  0  0  0  0  0
   -1.3533  -19.4851   15.8904 N   0  0  0  0  0  0  0  0  0  0  0  0
   -4.9579  -21.4867   16.6252 N   0  0  0  0  0  0  0  0  0  0  0  0
   -3.9657  -20.3541   12.9486 O   0  0  0  0  0  0  0  0  0  0  0  0
    3.0942  -18.3156   21.1018 O   0  5  0  0  0  0  0  0  0  0  0  0
    5.7830  -18.4450   22.0300 O   0  0  0  0  0  0  0  0  0  0  0  0
    3.1516  -18.2128   18.5346 O   0  0  0  0  0  0  0  0  0  0  0  0
    5.0473  -17.1613   19.9432 O   0  0  0  0  0  0  0  0  0  0  0  0
    5.7677  -19.6364   19.7338 O   0  5  0  0  0  0  0  0  0  0  0  0
    2.7206  -16.0660   19.8847 O   0  0  0  0  0  0  0  0  0  0  0  0
    7.5019  -17.8121   20.2367 O   0  0  0  0  0  0  0  0  0  0  0  0
   -1.0440  -17.4486   17.2950 S   0  0  0  0  0  0  0  0  0  0  0  0
    3.4528  -17.3532   19.8626 P   0  0  2  0  0  0  0  0  0  0  0  0
    6.0022  -18.3559   20.4379 P   0  0  2  0  0  0  0  0  0  0  0  0
  2 16  2  0  0  0  0
  2  3  1  0  0  0  0
  2 13  1  0  0  0  0
  3  8  2  0  0  0  0
  3  4  1  0  0  0  0
  4 14  1  0  0  0  0
  5  1  1  6  0  0  0
  5 14  1  0  0  0  0
  5 10  1  0  0  0  0
  6  7  1  0  0  0  0
  7 13  1  0  0  0  0
  7 15  2  0  0  0  0
  8 15  1  0  0  0  0
  9 14  1  0  0  0  0
  9 24  1  0  0  0  0
 10 24  1  0  0  0  0
 10 11  1  1  0  0  0
 11 12  1  0  0  0  0
 12 19  1  0  0  0  0
 17 25  1  0  0  0  0
 19 25  1  0  0  0  0
 20 26  1  0  0  0  0
 21 26  1  0  0  0  0
 22 25  2  0  0  0  0
 23 26  2  0  0  0  0
 25 20  1  1  0  0  0
 26 18  1  1  0  0  0
M  CHG  2  17  -1  21  -1
M  END
>  <CHROM.1>
129.80420379,56.98435505,105.58362395,108.77936777,61.41408592,34.87258632
22.83999736,-73.93806801,0.54917973,-19.11512315,17.85097383,-2.77099982
-0.40852959,0.27798995

>  <Name>
ligand

>  <RI>
0

>  <Rbt.Current_Directory>
/home/itssahil/PROJECTS/Mol_Feturizer/New_Systems/rnas/3D2X

>  <Rbt.Executable>
rbdock ($Id: //depot/dev/client3/rdock/2013.1/src/exe/rbdock.cxx#4 $)

>  <Rbt.Library>
libRbt.so (2013.1, Build901 2013/11/27)

>  <Rbt.Parameter_File>
/export/apps/rDock/src/rDock_2013.1_src/data/scripts/dock_solv.prm

>  <Rbt.Receptor>
prm/blind_docking_80.prm

>  <SCORE>
-12.515

>  <SCORE.INTER>
-14.7848

>  <SCORE.INTER.CONST>
1

>  <SCORE.INTER.POLAR>
0

>  <SCORE.INTER.ROT>
8

>  <SCORE.INTER.SOLV>
22.6726

>  <SCORE.INTER.VDW>
-26.3474

>  <SCORE.INTER.norm>
-0.568647

>  <SCORE.INTRA>
2.26983

>  <SCORE.INTRA.DIHEDRAL>
4.19574

>  <SCORE.INTRA.DIHEDRAL.0>
7.88077

>  <SCORE.INTRA.POLAR>
0

>  <SCORE.INTRA.POLAR.0>
0

>  <SCORE.INTRA.REPUL>
0

>  <SCORE.INTRA.REPUL.0>
0

>  <SCORE.INTRA.SOLV>
0.301408

>  <SCORE.INTRA.SOLV.lig_0>
-63.2542

>  <SCORE.INTRA.VDW>
0.0212515

>  <SCORE.INTRA.VDW.0>
-3.15072

>  <SCORE.INTRA.norm>
0.087301

>  <SCORE.RESTR>
0

>  <SCORE.RESTR.CAVITY>
0

>  <SCORE.RESTR.norm>
0

>  <SCORE.SYSTEM>
0

>  <SCORE.SYSTEM.CONST>
0

>  <SCORE.SYSTEM.DIHEDRAL>
0

>  <SCORE.SYSTEM.SOLV>
0

>  <SCORE.SYSTEM.norm>
0

>  <SCORE.heavy>
26

>  <SCORE.norm>
-0.481346

>  <RMSD>
11.013

$$$$
ligand
 OpenBabel11021811473D
libRbt.so/2013.1/901 2013/11/27
 26 27  0  0  0  0  0  0  0  0999 V2000
    0.1289  -20.3946   15.4904 C   0  0  0  0  0  0  0  0  0  0  0  0
   -4.2894  -20.7630   15.2868 C   0  0  0  0  0  0  0  0  0  0  0  0
   -3.7819  -19.4756   15.4271 C   0  0  0  0  0  0  0  0  0  0  0  0
   -2.4159  -19.0464   14.8863 C   0  0  0  0  0  0  0  0  0  0  0  0
   -0.3842  -19.1780   16.2665 C   0  0  1  0  0  0  0  0  0  0  0  0
   -7.6932  -20.3605   16.9555 C   0  0  0  0  0  0  0  0  0  0  0  0
   -6.2941  -20.0542   16.4188 C   0  0  0  0  0  0  0  0  0  0  0  0
   -4.5718  -18.5299   16.0731 C   0  0  0  0  0  0  0  0  0  0  0  0
   -1.8746  -17.5125   16.6998 C   0  0  0  0  0  0  0  0  0  0  0  0
    0.3325  -18.6155   17.3159 C   0  0  2  0  0  0  0  0  0  0  0  0
    1.6851  -18.9951   17.9242 C   0  0  0  0  0  0  0  0  0  0  0  0
    1.8621  -18.4776   19.3536 C   0  0  0  0  0  0  0  0  0  0  0  0
   -5.5587  -21.0643   15.7846 N   0  0  0  0  0  0  0  0  0  0  0  0
   -1.5408  -18.5783   15.9707 N   0  0  0  0  0  0  0  0  0  0  0  0
   -5.7708  -18.8257   16.5395 N   0  0  0  0  0  0  0  0  0  0  0  0
   -3.6274  -21.6351   14.7236 O   0  0  0  0  0  0  0  0  0  0  0  0
    4.2600  -16.9502   19.0858 O   0  5  0  0  0  0  0  0  0  0  0  0
    6.1619  -20.5296   20.8019 O   0  0  0  0  0  0  0  0  0  0  0  0
    3.0297  -19.0240   19.9747 O   0  0  0  0  0  0  0  0  0  0  0  0
    5.1940  -18.1819   21.1106 O   0  0  0  0  0  0  0  0  0  0  0  0
    7.6953  -18.6092   21.6102 O   0  5  0  0  0  0  0  0  0  0  0  0
    5.2995  -19.2990   18.7959 O   0  0  0  0  0  0  0  0  0  0  0  0
    5.8772  -19.5550   23.1557 O   0  0  0  0  0  0  0  0  0  0  0  0
   -0.6444  -17.3054   17.9182 S   0  0  0  0  0  0  0  0  0  0  0  0
    4.4962  -18.4262   19.6826 P   0  0  2  0  0  0  0  0  0  0  0  0
    6.3298  -19.1779   21.6596 P   0  0  2  0  0  0  0  0  0  0  0  0
  2 16  2  0  0  0  0
  2  3  1  0  0  0  0
  2 13  1  0  0  0  0
  3  8  2  0  0  0  0
  3  4  1  0  0  0  0
  4 14  1  0  0  0  0
  5  1  1  6  0  0  0
  5 14  1  0  0  0  0
  5 10  1  0  0  0  0
  6  7  1  0  0  0  0
  7 13  1  0  0  0  0
  7 15  2  0  0  0  0
  8 15  1  0  0  0  0
  9 14  1  0  0  0  0
  9 24  1  0  0  0  0
 10 24  1  0  0  0  0
 10 11  1  1  0  0  0
 11 12  1  0  0  0  0
 12 19  1  0  0  0  0
 17 25  1  0  0  0  0
 19 25  1  0  0  0  0
 20 26  1  0  0  0  0
 21 26  1  0  0  0  0
 22 25  2  0  0  0  0
 23 26  2  0  0  0  0
 25 20  1  1  0  0  0
 26 18  1  6  0  0  0
M  CHG  2  17  -1  21  -1
M  END
>  <CHROM.1>
-119.90114577,-158.33135536,170.50757192,118.48042214,80.38075738,-143.69275114
19.26114280,-18.69333168,0.78091592,-19.07318141,18.23222972,-2.68831322
-0.08422789,1.23189346

>  <Name>
ligand

>  <RI>
0

>  <Rbt.Current_Directory>
/home/itssahil/PROJECTS/Mol_Feturizer/New_Systems/rnas/3D2X

>  <Rbt.Executable>
rbdock ($Id: //depot/dev/client3/rdock/2013.1/src/exe/rbdock.cxx#4 $)

>  <Rbt.Library>
libRbt.so (2013.1, Build901 2013/11/27)

>  <Rbt.Parameter_File>
/export/apps/rDock/src/rDock_2013.1_src/data/scripts/dock_solv.prm

>  <Rbt.Receptor>
prm/blind_docking_80.prm

>  <SCORE>
-11.3189

>  <SCORE.INTER>
-14.8215

>  <SCORE.INTER.CONST>
1

>  <SCORE.INTER.POLAR>
0

>  <SCORE.INTER.ROT>
8

>  <SCORE.INTER.SOLV>
21.2154

>  <SCORE.INTER.VDW>
-25.8861

>  <SCORE.INTER.norm>
-0.570057

>  <SCORE.INTRA>
3.50256

>  <SCORE.INTRA.DIHEDRAL>
5.02158

>  <SCORE.INTRA.DIHEDRAL.0>
7.88077

>  <SCORE.INTRA.POLAR>
0

>  <SCORE.INTRA.POLAR.0>
0

>  <SCORE.INTRA.REPUL>
0

>  <SCORE.INTRA.REPUL.0>
0

>  <SCORE.INTRA.SOLV>
-1.42079

>  <SCORE.INTRA.SOLV.lig_0>
-63.2542

>  <SCORE.INTRA.VDW>
1.70216

>  <SCORE.INTRA.VDW.0>
-3.15072

>  <SCORE.INTRA.norm>
0.134714

>  <SCORE.RESTR>
0

>  <SCORE.RESTR.CAVITY>
0

>  <SCORE.RESTR.norm>
0

>  <SCORE.SYSTEM>
0

>  <SCORE.SYSTEM.CONST>
0

>  <SCORE.SYSTEM.DIHEDRAL>
0

>  <SCORE.SYSTEM.SOLV>
0

>  <SCORE.SYSTEM.norm>
0

>  <SCORE.heavy>
26

>  <SCORE.norm>
-0.435343

>  <RMSD>
11.015

$$$$
ligand
 OpenBabel11021811473D
libRbt.so/2013.1/901 2013/11/27
 26 27  0  0  0  0  0  0  0  0999 V2000
   -1.7891  -17.2097   17.2018 C   0  0  0  0  0  0  0  0  0  0  0  0
   -4.3205  -20.4386   14.8810 C   0  0  0  0  0  0  0  0  0  0  0  0
   -3.9266  -19.1491   15.2226 C   0  0  0  0  0  0  0  0  0  0  0  0
   -2.6473  -18.4935   14.6970 C   0  0  0  0  0  0  0  0  0  0  0  0
   -1.0565  -18.3973   16.5706 C   0  0  1  0  0  0  0  0  0  0  0  0
   -7.6229  -20.6859   16.7692 C   0  0  0  0  0  0  0  0  0  0  0  0
   -6.2991  -20.1480   16.2240 C   0  0  0  0  0  0  0  0  0  0  0  0
   -4.7542  -18.4164   16.0673 C   0  0  0  0  0  0  0  0  0  0  0  0
   -0.7645  -20.0111   14.9915 C   0  0  0  0  0  0  0  0  0  0  0  0
    0.0723  -18.9622   17.1519 C   0  0  2  0  0  0  0  0  0  0  0  0
    0.8185  -18.6118   18.4418 C   0  0  0  0  0  0  0  0  0  0  0  0
    2.2743  -19.0842   18.4354 C   0  0  0  0  0  0  0  0  0  0  0  0
   -5.5187  -20.9514   15.3822 N   0  0  0  0  0  0  0  0  0  0  0  0
   -1.4678  -18.9681   15.4349 N   0  0  0  0  0  0  0  0  0  0  0  0
   -5.8852  -18.9111   16.5350 N   0  0  0  0  0  0  0  0  0  0  0  0
   -3.6210  -21.1268   14.1374 O   0  0  0  0  0  0  0  0  0  0  0  0
    5.3204  -17.1890   20.0405 O   0  5  0  0  0  0  0  0  0  0  0  0
    5.6644  -18.0628   22.3711 O   0  0  0  0  0  0  0  0  0  0  0  0
    3.1217  -18.2011   19.1768 O   0  0  0  0  0  0  0  0  0  0  0  0
    4.7856  -19.6274   20.5480 O   0  0  0  0  0  0  0  0  0  0  0  0
    5.8375  -20.6242   22.6902 O   0  5  0  0  0  0  0  0  0  0  0  0
    5.3564  -18.9372   18.1367 O   0  0  0  0  0  0  0  0  0  0  0  0
    7.3022  -19.4320   20.9519 O   0  0  0  0  0  0  0  0  0  0  0  0
    0.5831  -20.2328   16.0758 S   0  0  0  0  0  0  0  0  0  0  0  0
    4.6864  -18.5172   19.3890 P   0  0  2  0  0  0  0  0  0  0  0  0
    5.8880  -19.5143   21.7123 P   0  0  2  0  0  0  0  0  0  0  0  0
  2 16  2  0  0  0  0
  2  3  1  0  0  0  0
  2 13  1  0  0  0  0
  3  8  2  0  0  0  0
  3  4  1  0  0  0  0
  4 14  1  0  0  0  0
  5  1  1  1  0  0  0
  5 14  1  0  0  0  0
  5 10  1  0  0  0  0
  6  7  1  0  0  0  0
  7 13  1  0  0  0  0
  7 15  2  0  0  0  0
  8 15  1  0  0  0  0
  9 14  1  0  0  0  0
  9 24  1  0  0  0  0
 10 24  1  0  0  0  0
 10 11  1  6  0  0  0
 11 12  1  0  0  0  0
 12 19  1  0  0  0  0
 17 25  1  0  0  0  0
 19 25  1  0  0  0  0
 20 26  1  0  0  0  0
 21 26  1  0  0  0  0
 22 25  2  0  0  0  0
 23 26  2  0  0  0  0
 25 20  1  1  0  0  0
 26 18  1  1  0  0  0
M  CHG  2  17  -1  21  -1
M  END
>  <CHROM.1>
-79.16246188,-157.14495133,147.58322324,-86.76606912,176.68391215,-24.79325642
170.64388406,55.09741840,0.75697767,-19.24439849,17.96348195,2.66898467,-0.09145837
-1.53838592

>  <Name>
ligand

>  <RI>
0

>  <Rbt.Current_Directory>
/home/itssahil/PROJECTS/Mol_Feturizer/New_Systems/rnas/3D2X

>  <Rbt.Executable>
rbdock ($Id: //depot/dev/client3/rdock/2013.1/src/exe/rbdock.cxx#4 $)

>  <Rbt.Library>
libRbt.so (2013.1, Build901 2013/11/27)

>  <Rbt.Parameter_File>
/export/apps/rDock/src/rDock_2013.1_src/data/scripts/dock_solv.prm

>  <Rbt.Receptor>
prm/blind_docking_80.prm

>  <SCORE>
-19.054

>  <SCORE.INTER>
-20.4692

>  <SCORE.INTER.CONST>
1

>  <SCORE.INTER.POLAR>
0

>  <SCORE.INTER.ROT>
8

>  <SCORE.INTER.SOLV>
17.7876

>  <SCORE.INTER.VDW>
-28.5087

>  <SCORE.INTER.norm>
-0.787277

>  <SCORE.INTRA>
1.4152

>  <SCORE.INTRA.DIHEDRAL>
2.18882

>  <SCORE.INTRA.DIHEDRAL.0>
7.88077

>  <SCORE.INTRA.POLAR>
0

>  <SCORE.INTRA.POLAR.0>
0

>  <SCORE.INTRA.REPUL>
0

>  <SCORE.INTRA.REPUL.0>
0

>  <SCORE.INTRA.SOLV>
-0.733874

>  <SCORE.INTRA.SOLV.lig_0>
-63.2542

>  <SCORE.INTRA.VDW>
0.687724

>  <SCORE.INTRA.VDW.0>
-3.15072

>  <SCORE.INTRA.norm>
0.0544307

>  <SCORE.RESTR>
0

>  <SCORE.RESTR.CAVITY>
0

>  <SCORE.RESTR.norm>
0

>  <SCORE.SYSTEM>
0

>  <SCORE.SYSTEM.CONST>
0

>  <SCORE.SYSTEM.DIHEDRAL>
0

>  <SCORE.SYSTEM.SOLV>
0

>  <SCORE.SYSTEM.norm>
0

>  <SCORE.heavy>
26

>  <SCORE.norm>
-0.732847

>  <RMSD>
11.035

$$$$
ligand
 OpenBabel11021811473D
libRbt.so/2013.1/901 2013/11/27
 26 27  0  0  0  0  0  0  0  0999 V2000
   -1.1463  -17.6400   17.7308 C   0  0  0  0  0  0  0  0  0  0  0  0
   -4.3830  -19.8748   14.8028 C   0  0  0  0  0  0  0  0  0  0  0  0
   -3.7052  -18.9589   15.6006 C   0  0  0  0  0  0  0  0  0  0  0  0
   -2.4356  -18.2309   15.1525 C   0  0  0  0  0  0  0  0  0  0  0  0
   -0.6255  -18.6962   16.7517 C   0  0  1  0  0  0  0  0  0  0  0  0
   -7.3029  -20.7668   17.0855 C   0  0  0  0  0  0  0  0  0  0  0  0
   -6.0153  -20.1344   16.5554 C   0  0  0  0  0  0  0  0  0  0  0  0
   -4.2268  -18.6789   16.8595 C   0  0  0  0  0  0  0  0  0  0  0  0
   -0.7005  -19.9097   14.8269 C   0  0  0  0  0  0  0  0  0  0  0  0
    0.5007  -19.4637   17.0237 C   0  0  2  0  0  0  0  0  0  0  0  0
    1.4323  -19.4829   18.2382 C   0  0  0  0  0  0  0  0  0  0  0  0
    1.6511  -18.0944   18.8436 C   0  0  0  0  0  0  0  0  0  0  0  0
   -5.5519  -20.4734   15.2772 N   0  0  0  0  0  0  0  0  0  0  0  0
   -1.2307  -18.9516   15.5884 N   0  0  0  0  0  0  0  0  0  0  0  0
   -5.3331  -19.2505   17.2977 N   0  0  0  0  0  0  0  0  0  0  0  0
   -3.9599  -20.1564   13.6814 O   0  0  0  0  0  0  0  0  0  0  0  0
    4.6398  -17.9678   21.3502 O   0  5  0  0  0  0  0  0  0  0  0  0
    5.7802  -20.3548   22.0651 O   0  0  0  0  0  0  0  0  0  0  0  0
    2.4387  -18.1541   20.0369 O   0  0  0  0  0  0  0  0  0  0  0  0
    4.0716  -20.1537   20.1720 O   0  0  0  0  0  0  0  0  0  0  0  0
    5.3960  -22.3550   20.4702 O   0  5  0  0  0  0  0  0  0  0  0  0
    4.6754  -18.0845   18.7682 O   0  0  0  0  0  0  0  0  0  0  0  0
    6.5683  -20.2323   19.6289 O   0  0  0  0  0  0  0  0  0  0  0  0
    0.7393  -20.4792   15.6290 S   0  0  0  0  0  0  0  0  0  0  0  0
    3.9973  -18.5569   19.9972 P   0  0  2  0  0  0  0  0  0  0  0  0
    5.4460  -20.8800   20.5808 P   0  0  2  0  0  0  0  0  0  0  0  0
  2 16  2  0  0  0  0
  2  3  1  0  0  0  0
  2 13  1  0  0  0  0
  3  8  2  0  0  0  0
  3  4  1  0  0  0  0
  4 14  1  0  0  0  0
  5  1  1  1  0  0  0
  5 14  1  0  0  0  0
  5 10  1  0  0  0  0
  6  7  1  0  0  0  0
  7 13  1  0  0  0  0
  7 15  2  0  0  0  0
  8 15  1  0  0  0  0
  9 14  1  0  0  0  0
  9 24  1  0  0  0  0
 10 24  1  0  0  0  0
 10 11  1  6  0  0  0
 11 12  1  0  0  0  0
 12 19  1  0  0  0  0
 17 25  1  0  0  0  0
 19 25  1  0  0  0  0
 20 26  1  0  0  0  0
 21 26  1  0  0  0  0
 22 25  2  0  0  0  0
 23 26  2  0  0  0  0
 25 20  1  1  0  0  0
 26 18  1  1  0  0  0
M  CHG  2  17  -1  21  -1
M  END
>  <CHROM.1>
-93.59598081,-35.96302934,175.41621524,-91.38409266,68.35772411,-51.08075580
158.36720519,64.87877255,0.64775973,-19.53483133,17.93606378,2.70846312,0.16109250
-1.87441262

>  <Name>
ligand

>  <RI>
0

>  <Rbt.Current_Directory>
/home/itssahil/PROJECTS/Mol_Feturizer/New_Systems/rnas/3D2X

>  <Rbt.Executable>
rbdock ($Id: //depot/dev/client3/rdock/2013.1/src/exe/rbdock.cxx#4 $)

>  <Rbt.Library>
libRbt.so (2013.1, Build901 2013/11/27)

>  <Rbt.Parameter_File>
/export/apps/rDock/src/rDock_2013.1_src/data/scripts/dock_solv.prm

>  <Rbt.Receptor>
prm/blind_docking_100.prm

>  <SCORE>
-22.3602

>  <SCORE.INTER>
-22.66

>  <SCORE.INTER.CONST>
1

>  <SCORE.INTER.POLAR>
0

>  <SCORE.INTER.ROT>
8

>  <SCORE.INTER.SOLV>
16.7861

>  <SCORE.INTER.VDW>
-29.6354

>  <SCORE.INTER.norm>
-0.871538

>  <SCORE.INTRA>
0.299746

>  <SCORE.INTRA.DIHEDRAL>
-1.21268

>  <SCORE.INTRA.DIHEDRAL.0>
7.88077

>  <SCORE.INTRA.POLAR>
0

>  <SCORE.INTRA.POLAR.0>
0

>  <SCORE.INTRA.REPUL>
0

>  <SCORE.INTRA.REPUL.0>
0

>  <SCORE.INTRA.SOLV>
-0.0506912

>  <SCORE.INTRA.SOLV.lig_0>
-63.2542

>  <SCORE.INTRA.VDW>
0.93143

>  <SCORE.INTRA.VDW.0>
-3.15072

>  <SCORE.INTRA.norm>
0.0115287

>  <SCORE.RESTR>
0

>  <SCORE.RESTR.CAVITY>
0

>  <SCORE.RESTR.norm>
0

>  <SCORE.SYSTEM>
0

>  <SCORE.SYSTEM.CONST>
0

>  <SCORE.SYSTEM.DIHEDRAL>
0

>  <SCORE.SYSTEM.SOLV>
0

>  <SCORE.SYSTEM.norm>
0

>  <SCORE.heavy>
26

>  <SCORE.norm>
-0.860009

>  <RMSD>
11.058

$$$$
ligand
 OpenBabel11021811473D
libRbt.so/2013.1/901 2013/11/27
 26 27  0  0  0  0  0  0  0  0999 V2000
    0.7420  -20.1817   17.6502 C   0  0  0  0  0  0  0  0  0  0  0  0
   -3.4936  -20.7360   16.1537 C   0  0  0  0  0  0  0  0  0  0  0  0
   -2.8974  -19.4921   16.3324 C   0  0  0  0  0  0  0  0  0  0  0  0
   -1.4461  -19.1922   15.9495 C   0  0  0  0  0  0  0  0  0  0  0  0
    0.1877  -18.7565   17.7358 C   0  0  1  0  0  0  0  0  0  0  0  0
   -7.0209  -20.0085   17.4031 C   0  0  0  0  0  0  0  0  0  0  0  0
   -5.5480  -19.8337   17.0303 C   0  0  0  0  0  0  0  0  0  0  0  0
   -3.6728  -18.4676   16.8657 C   0  0  0  0  0  0  0  0  0  0  0  0
   -1.1880  -17.0588   17.0969 C   0  0  0  0  0  0  0  0  0  0  0  0
    0.6950  -17.8193   18.6278 C   0  0  2  0  0  0  0  0  0  0  0  0
    1.8253  -17.9212   19.6552 C   0  0  0  0  0  0  0  0  0  0  0  0
    3.1899  -18.1881   19.0157 C   0  0  0  0  0  0  0  0  0  0  0  0
   -4.8332  -20.9175   16.5032 N   0  0  0  0  0  0  0  0  0  0  0  0
   -0.8031  -18.3272   16.9492 N   0  0  0  0  0  0  0  0  0  0  0  0
   -4.9388  -18.6503   17.1922 N   0  0  0  0  0  0  0  0  0  0  0  0
   -2.8480  -21.6744   15.6863 O   0  0  0  0  0  0  0  0  0  0  0  0
    6.0039  -19.4207   18.7318 O   0  5  0  0  0  0  0  0  0  0  0  0
    6.1521  -19.7875   23.2081 O   0  0  0  0  0  0  0  0  0  0  0  0
    3.4434  -19.5890   18.8718 O   0  0  0  0  0  0  0  0  0  0  0  0
    4.9075  -19.9171   20.9770 O   0  0  0  0  0  0  0  0  0  0  0  0
    7.4883  -20.0812   21.0125 O   0  5  0  0  0  0  0  0  0  0  0  0
    4.8742  -21.7107   19.1335 O   0  0  0  0  0  0  0  0  0  0  0  0
    6.3164  -17.8569   21.5296 O   0  0  0  0  0  0  0  0  0  0  0  0
   -0.2584  -16.3787   18.4062 S   0  0  0  0  0  0  0  0  0  0  0  0
    4.8068  -20.2570   19.4085 P   0  0  2  0  0  0  0  0  0  0  0  0
    6.2994  -19.4610   21.6388 P   0  0  2  0  0  0  0  0  0  0  0  0
  2 16  2  0  0  0  0
  2  3  1  0  0  0  0
  2 13  1  0  0  0  0
  3  8  2  0  0  0  0
  3  4  1  0  0  0  0
  4 14  1  0  0  0  0
  5  1  1  6  0  0  0
  5 14  1  0  0  0  0
  5 10  1  0  0  0  0
  6  7  1  0  0  0  0
  7 13  1  0  0  0  0
  7 15  2  0  0  0  0
  8 15  1  0  0  0  0
  9 14  1  0  0  0  0
  9 24  1  0  0  0  0
 10 24  1  0  0  0  0
 10 11  1  1  0  0  0
 11 12  1  0  0  0  0
 12 19  1  0  0  0  0
 17 25  1  0  0  0  0
 19 25  1  0  0  0  0
 20 26  1  0  0  0  0
 21 26  1  0  0  0  0
 22 25  2  0  0  0  0
 23 26  2  0  0  0  0
 25 20  1  1  0  0  0
 26 18  1  1  0  0  0
M  CHG  2  17  -1  21  -1
M  END
>  <CHROM.1>
-140.71311315,63.01995763,-88.93572011,112.39413383,-128.61987394,-25.28006982
-54.35172303,-157.96923690,1.26941334,-19.26024997,18.67883153,-3.05111124
-0.38320817,0.26708519

>  <Name>
ligand

>  <RI>
0

>  <Rbt.Current_Directory>
/home/itssahil/PROJECTS/Mol_Feturizer/New_Systems/rnas/3D2X

>  <Rbt.Executable>
rbdock ($Id: //depot/dev/client3/rdock/2013.1/src/exe/rbdock.cxx#4 $)

>  <Rbt.Library>
libRbt.so (2013.1, Build901 2013/11/27)

>  <Rbt.Parameter_File>
/export/apps/rDock/src/rDock_2013.1_src/data/scripts/dock_solv.prm

>  <Rbt.Receptor>
prm/blind_docking_80.prm

>  <SCORE>
-13.7228

>  <SCORE.INTER>
-18.7456

>  <SCORE.INTER.CONST>
1

>  <SCORE.INTER.POLAR>
0

>  <SCORE.INTER.ROT>
8

>  <SCORE.INTER.SOLV>
17.5927

>  <SCORE.INTER.VDW>
-27.2946

>  <SCORE.INTER.norm>
-0.720986

>  <SCORE.INTRA>
5.02075

>  <SCORE.INTRA.DIHEDRAL>
8.8305

>  <SCORE.INTRA.DIHEDRAL.0>
7.88077

>  <SCORE.INTRA.POLAR>
0

>  <SCORE.INTRA.POLAR.0>
0

>  <SCORE.INTRA.REPUL>
0

>  <SCORE.INTRA.REPUL.0>
0

>  <SCORE.INTRA.SOLV>
0.90074

>  <SCORE.INTRA.SOLV.lig_0>
-63.2542

>  <SCORE.INTRA.VDW>
0.155133

>  <SCORE.INTRA.VDW.0>
-3.15072

>  <SCORE.INTRA.norm>
0.193106

>  <SCORE.RESTR>
0.00208681

>  <SCORE.RESTR.CAVITY>
0.00208681

>  <SCORE.RESTR.norm>
8.0262e-05

>  <SCORE.SYSTEM>
0

>  <SCORE.SYSTEM.CONST>
0

>  <SCORE.SYSTEM.DIHEDRAL>
0

>  <SCORE.SYSTEM.SOLV>
0

>  <SCORE.SYSTEM.norm>
0

>  <SCORE.heavy>
26

>  <SCORE.norm>
-0.5278

>  <RMSD>
11.086

$$$$
ligand
 OpenBabel11021811473D
libRbt.so/2013.1/901 2013/11/27
 26 27  0  0  0  0  0  0  0  0999 V2000
   -1.0752  -20.8852   16.0449 C   0  0  0  0  0  0  0  0  0  0  0  0
   -3.3495  -16.7745   13.9170 C   0  0  0  0  0  0  0  0  0  0  0  0
   -3.5524  -17.3336   15.1743 C   0  0  0  0  0  0  0  0  0  0  0  0
   -2.9839  -18.6917   15.5926 C   0  0  0  0  0  0  0  0  0  0  0  0
   -0.9539  -19.5125   16.7132 C   0  0  1  0  0  0  0  0  0  0  0  0
   -5.1825  -13.4565   14.3212 C   0  0  0  0  0  0  0  0  0  0  0  0
   -4.6088  -14.8433   14.6155 C   0  0  0  0  0  0  0  0  0  0  0  0
   -4.2916  -16.6049   16.1007 C   0  0  0  0  0  0  0  0  0  0  0  0
   -1.6099  -17.3684   17.1078 C   0  0  0  0  0  0  0  0  0  0  0  0
    0.0858  -19.2035   17.5820 C   0  0  2  0  0  0  0  0  0  0  0  0
    1.2753  -20.0398   18.0608 C   0  0  0  0  0  0  0  0  0  0  0  0
    2.4899  -19.1880   18.4368 C   0  0  0  0  0  0  0  0  0  0  0  0
   -3.8794  -15.5158   13.6260 N   0  0  0  0  0  0  0  0  0  0  0  0
   -1.8298  -18.5290   16.4884 N   0  0  0  0  0  0  0  0  0  0  0  0
   -4.7875  -15.4154   15.8149 N   0  0  0  0  0  0  0  0  0  0  0  0
   -2.7031  -17.3814   13.0628 O   0  0  0  0  0  0  0  0  0  0  0  0
    2.5708  -16.2402   20.9403 O   0  5  0  0  0  0  0  0  0  0  0  0
    4.5715  -20.5367   20.4510 O   0  0  0  0  0  0  0  0  0  0  0  0
    2.2557  -18.4253   19.6247 O   0  0  0  0  0  0  0  0  0  0  0  0
    4.0966  -18.2209   21.4282 O   0  0  0  0  0  0  0  0  0  0  0  0
    6.3962  -18.7058   20.3486 O   0  5  0  0  0  0  0  0  0  0  0  0
    4.3316  -16.9686   19.1936 O   0  0  0  0  0  0  0  0  0  0  0  0
    5.7578  -19.7765   22.5924 O   0  0  0  0  0  0  0  0  0  0  0  0
   -0.2088  -17.5751   18.1251 S   0  0  0  0  0  0  0  0  0  0  0  0
    3.3759  -17.4358   20.2241 P   0  0  2  0  0  0  0  0  0  0  0  0
    5.2816  -19.2688   21.1430 P   0  0  2  0  0  0  0  0  0  0  0  0
  2 16  2  0  0  0  0
  2  3  1  0  0  0  0
  2 13  1  0  0  0  0
  3  8  2  0  0  0  0
  3  4  1  0  0  0  0
  4 14  1  0  0  0  0
  5  1  1  6  0  0  0
  5 14  1  0  0  0  0
  5 10  1  0  0  0  0
  6  7  1  0  0  0  0
  7 13  1  0  0  0  0
  7 15  2  0  0  0  0
  8 15  1  0  0  0  0
  9 14  1  0  0  0  0
  9 24  1  0  0  0  0
 10 24  1  0  0  0  0
 10 11  1  1  0  0  0
 11 12  1  0  0  0  0
 12 19  1  0  0  0  0
 17 25  1  0  0  0  0
 19 25  1  0  0  0  0
 20 26  1  0  0  0  0
 21 26  1  0  0  0  0
 22 25  2  0  0  0  0
 23 26  2  0  0  0  0
 25 20  1  1  0  0  0
 26 18  1  6  0  0  0
M  CHG  2  17  -1  21  -1
M  END
>  <CHROM.1>
104.41630369,152.28354830,69.24502074,-162.14500781,-179.42700524,-165.19530560
149.15453625,-70.80655072,0.59054574,-17.90099323,17.96749783,3.07983223
-0.65325774,0.28147923

>  <Name>
ligand

>  <RI>
0

>  <Rbt.Current_Directory>
/home/itssahil/PROJECTS/Mol_Feturizer/New_Systems/rnas/3D2X

>  <Rbt.Executable>
rbdock ($Id: //depot/dev/client3/rdock/2013.1/src/exe/rbdock.cxx#4 $)

>  <Rbt.Library>
libRbt.so (2013.1, Build901 2013/11/27)

>  <Rbt.Parameter_File>
/export/apps/rDock/src/rDock_2013.1_src/data/scripts/dock_solv.prm

>  <Rbt.Receptor>
prm/blind_docking_80.prm

>  <SCORE>
-17.6405

>  <SCORE.INTER>
-16.4835

>  <SCORE.INTER.CONST>
1

>  <SCORE.INTER.POLAR>
0

>  <SCORE.INTER.ROT>
8

>  <SCORE.INTER.SOLV>
21.0713

>  <SCORE.INTER.VDW>
-26.9461

>  <SCORE.INTER.norm>
-0.63398

>  <SCORE.INTRA>
-1.15699

>  <SCORE.INTRA.DIHEDRAL>
-0.67424

>  <SCORE.INTRA.DIHEDRAL.0>
7.88077

>  <SCORE.INTRA.POLAR>
0

>  <SCORE.INTRA.POLAR.0>
0

>  <SCORE.INTRA.REPUL>
0

>  <SCORE.INTRA.REPUL.0>
0

>  <SCORE.INTRA.SOLV>
-2.20934

>  <SCORE.INTRA.SOLV.lig_0>
-63.2542

>  <SCORE.INTRA.VDW>
0.284805

>  <SCORE.INTRA.VDW.0>
-3.15072

>  <SCORE.INTRA.norm>
-0.0444994

>  <SCORE.RESTR>
0

>  <SCORE.RESTR.CAVITY>
0

>  <SCORE.RESTR.norm>
0

>  <SCORE.SYSTEM>
0

>  <SCORE.SYSTEM.CONST>
0

>  <SCORE.SYSTEM.DIHEDRAL>
0

>  <SCORE.SYSTEM.SOLV>
0

>  <SCORE.SYSTEM.norm>
0

>  <SCORE.heavy>
26

>  <SCORE.norm>
-0.678479

>  <RMSD>
11.097

$$$$
ligand
 OpenBabel11021811473D
libRbt.so/2013.1/901 2013/11/27
 26 27  0  0  0  0  0  0  0  0999 V2000
   -1.8527  -17.1652   17.2628 C   0  0  0  0  0  0  0  0  0  0  0  0
   -3.9753  -20.3974   15.8863 C   0  0  0  0  0  0  0  0  0  0  0  0
   -3.8277  -19.0761   15.4774 C   0  0  0  0  0  0  0  0  0  0  0  0
   -2.5771  -18.5496   14.7693 C   0  0  0  0  0  0  0  0  0  0  0  0
   -1.0079  -18.2832   16.6447 C   0  0  1  0  0  0  0  0  0  0  0  0
   -7.4949  -20.2900   17.3470 C   0  0  0  0  0  0  0  0  0  0  0  0
   -6.1814  -19.8607   16.6916 C   0  0  0  0  0  0  0  0  0  0  0  0
   -4.8839  -18.2003   15.7071 C   0  0  0  0  0  0  0  0  0  0  0  0
   -0.5584  -19.8769   15.0822 C   0  0  0  0  0  0  0  0  0  0  0  0
    0.1682  -18.7317   17.2336 C   0  0  2  0  0  0  0  0  0  0  0  0
    0.8740  -18.2989   18.5212 C   0  0  0  0  0  0  0  0  0  0  0  0
    2.3127  -18.8124   18.6140 C   0  0  0  0  0  0  0  0  0  0  0  0
   -5.1620  -20.8029   16.5004 N   0  0  0  0  0  0  0  0  0  0  0  0
   -1.3595  -18.9018   15.5140 N   0  0  0  0  0  0  0  0  0  0  0  0
   -6.0017  -18.5947   16.2882 N   0  0  0  0  0  0  0  0  0  0  0  0
   -3.0679  -21.2098   15.7061 O   0  0  0  0  0  0  0  0  0  0  0  0
    4.7987  -18.1254   21.5871 O   0  5  0  0  0  0  0  0  0  0  0  0
    5.3189  -22.7169   20.9613 O   0  0  0  0  0  0  0  0  0  0  0  0
    2.9673  -18.3455   19.7977 O   0  0  0  0  0  0  0  0  0  0  0  0
    4.4361  -20.3726   20.4434 O   0  0  0  0  0  0  0  0  0  0  0  0
    6.7850  -21.0664   19.6128 O   0  5  0  0  0  0  0  0  0  0  0  0
    5.4425  -18.4225   19.1013 O   0  0  0  0  0  0  0  0  0  0  0  0
    6.3500  -20.6712   22.1114 O   0  0  0  0  0  0  0  0  0  0  0  0
    0.8013  -19.9579   16.1711 S   0  0  0  0  0  0  0  0  0  0  0  0
    4.4724  -18.7904   20.1582 P   0  0  2  0  0  0  0  0  0  0  0  0
    5.7899  -21.2001   20.7001 P   0  0  2  0  0  0  0  0  0  0  0  0
  2 16  2  0  0  0  0
  2  3  1  0  0  0  0
  2 13  1  0  0  0  0
  3  8  2  0  0  0  0
  3  4  1  0  0  0  0
  4 14  1  0  0  0  0
  5  1  1  1  0  0  0
  5 14  1  0  0  0  0
  5 10  1  0  0  0  0
  6  7  1  0  0  0  0
  7 13  1  0  0  0  0
  7 15  2  0  0  0  0
  8 15  1  0  0  0  0
  9 14  1  0  0  0  0
  9 24  1  0  0  0  0
 10 24  1  0  0  0  0
 10 11  1  6  0  0  0
 11 12  1  0  0  0  0
 12 19  1  0  0  0  0
 17 25  1  0  0  0  0
 19 25  1  0  0  0  0
 20 26  1  0  0  0  0
 21 26  1  0  0  0  0
 22 25  2  0  0  0  0
 23 26  2  0  0  0  0
 25 20  1  1  0  0  0
 26 18  1  1  0  0  0
M  CHG  2  17  -1  21  -1
M  END
>  <CHROM.1>
-51.39450867,-165.77012799,177.44972694,-74.53455348,177.65804823,-73.83528936
-176.87313565,179.20694169,0.76433839,-19.57967554,18.11281823,-2.93047104
0.37933006,2.76926361

>  <Name>
ligand

>  <RI>
0

>  <Rbt.Current_Directory>
/home/itssahil/PROJECTS/Mol_Feturizer/New_Systems/rnas/3D2X

>  <Rbt.Executable>
rbdock ($Id: //depot/dev/client3/rdock/2013.1/src/exe/rbdock.cxx#4 $)

>  <Rbt.Library>
libRbt.so (2013.1, Build901 2013/11/27)

>  <Rbt.Parameter_File>
/export/apps/rDock/src/rDock_2013.1_src/data/scripts/dock_solv.prm

>  <Rbt.Receptor>
prm/blind_docking_100.prm

>  <SCORE>
-22.3719

>  <SCORE.INTER>
-21.1096

>  <SCORE.INTER.CONST>
1

>  <SCORE.INTER.POLAR>
0

>  <SCORE.INTER.ROT>
8

>  <SCORE.INTER.SOLV>
14.9165

>  <SCORE.INTER.VDW>
-27.9785

>  <SCORE.INTER.norm>
-0.811906

>  <SCORE.INTRA>
-1.26232

>  <SCORE.INTRA.DIHEDRAL>
-2.9455

>  <SCORE.INTRA.DIHEDRAL.0>
7.88077

>  <SCORE.INTRA.POLAR>
0

>  <SCORE.INTRA.POLAR.0>
0

>  <SCORE.INTRA.REPUL>
0

>  <SCORE.INTRA.REPUL.0>
0

>  <SCORE.INTRA.SOLV>
0.475152

>  <SCORE.INTRA.SOLV.lig_0>
-63.2542

>  <SCORE.INTRA.VDW>
-0.0271473

>  <SCORE.INTRA.VDW.0>
-3.15072

>  <SCORE.INTRA.norm>
-0.0485508

>  <SCORE.RESTR>
0

>  <SCORE.RESTR.CAVITY>
0

>  <SCORE.RESTR.norm>
0

>  <SCORE.SYSTEM>
0

>  <SCORE.SYSTEM.CONST>
0

>  <SCORE.SYSTEM.DIHEDRAL>
0

>  <SCORE.SYSTEM.SOLV>
0

>  <SCORE.SYSTEM.norm>
0

>  <SCORE.heavy>
26

>  <SCORE.norm>
-0.860457

>  <RMSD>
11.101

$$$$
ligand
 OpenBabel11021811473D
libRbt.so/2013.1/901 2013/11/27
 26 27  0  0  0  0  0  0  0  0999 V2000
   -1.9473  -17.4535   17.3637 C   0  0  0  0  0  0  0  0  0  0  0  0
   -4.2501  -20.3731   14.8246 C   0  0  0  0  0  0  0  0  0  0  0  0
   -3.9355  -19.0439   15.0870 C   0  0  0  0  0  0  0  0  0  0  0  0
   -2.6203  -18.3900   14.6564 C   0  0  0  0  0  0  0  0  0  0  0  0
   -1.1550  -18.5373   16.6266 C   0  0  1  0  0  0  0  0  0  0  0  0
   -7.7488  -20.5747   16.3250 C   0  0  0  0  0  0  0  0  0  0  0  0
   -6.3838  -20.0380   15.8914 C   0  0  0  0  0  0  0  0  0  0  0  0
   -4.8789  -18.2699   15.7553 C   0  0  0  0  0  0  0  0  0  0  0  0
   -0.7340  -19.9175   14.8656 C   0  0  0  0  0  0  0  0  0  0  0  0
   -0.0561  -19.1668   17.1990 C   0  0  2  0  0  0  0  0  0  0  0  0
    0.5995  -18.9896   18.5710 C   0  0  0  0  0  0  0  0  0  0  0  0
    2.1236  -18.8745   18.4929 C   0  0  0  0  0  0  0  0  0  0  0  0
   -5.4857  -20.8839   15.2272 N   0  0  0  0  0  0  0  0  0  0  0  0
   -1.4825  -18.9510   15.3992 N   0  0  0  0  0  0  0  0  0  0  0  0
   -6.0443  -18.7632   16.1308 N   0  0  0  0  0  0  0  0  0  0  0  0
   -3.4473  -21.0985   14.2371 O   0  0  0  0  0  0  0  0  0  0  0  0
    4.4957  -16.9499   20.4851 O   0  5  0  0  0  0  0  0  0  0  0  0
    5.6813  -21.4187   22.4310 O   0  0  0  0  0  0  0  0  0  0  0  0
    2.7056  -18.6544   19.7815 O   0  0  0  0  0  0  0  0  0  0  0  0
    4.7363  -19.3810   21.2070 O   0  0  0  0  0  0  0  0  0  0  0  0
    4.1321  -21.7584   20.3873 O   0  5  0  0  0  0  0  0  0  0  0  0
    5.0505  -18.7643   18.7296 O   0  0  0  0  0  0  0  0  0  0  0  0
    6.5071  -20.8363   20.0752 O   0  0  0  0  0  0  0  0  0  0  0  0
    0.5448  -20.2738   15.9963 S   0  0  0  0  0  0  0  0  0  0  0  0
    4.2935  -18.4598   19.9655 P   0  0  2  0  0  0  0  0  0  0  0  0
    5.1850  -20.9088   20.9873 P   0  0  2  0  0  0  0  0  0  0  0  0
  2 16  2  0  0  0  0
  2  3  1  0  0  0  0
  2 13  1  0  0  0  0
  3  8  2  0  0  0  0
  3  4  1  0  0  0  0
  4 14  1  0  0  0  0
  5  1  1  1  0  0  0
  5 14  1  0  0  0  0
  5 10  1  0  0  0  0
  6  7  1  0  0  0  0
  7 13  1  0  0  0  0
  7 15  2  0  0  0  0
  8 15  1  0  0  0  0
  9 14  1  0  0  0  0
  9 24  1  0  0  0  0
 10 24  1  0  0  0  0
 10 11  1  6  0  0  0
 11 12  1  0  0  0  0
 12 19  1  0  0  0  0
 17 25  1  0  0  0  0
 19 25  1  0  0  0  0
 20 26  1  0  0  0  0
 21 26  1  0  0  0  0
 22 25  2  0  0  0  0
 23 26  2  0  0  0  0
 25 20  1  1  0  0  0
 26 18  1  1  0  0  0
M  CHG  2  17  -1  21  -1
M  END
>  <CHROM.1>
-67.99592864,-133.30012787,177.58398272,-82.09010418,-178.38221409,-158.28268353
114.71611017,174.51498260,0.48845466,-19.55571392,17.86949563,-3.05796971
0.48282034,2.99614939

>  <Name>
ligand

>  <RI>
0

>  <Rbt.Current_Directory>
/home/itssahil/PROJECTS/Mol_Feturizer/New_Systems/rnas/3D2X

>  <Rbt.Executable>
rbdock ($Id: //depot/dev/client3/rdock/2013.1/src/exe/rbdock.cxx#4 $)

>  <Rbt.Library>
libRbt.so (2013.1, Build901 2013/11/27)

>  <Rbt.Parameter_File>
/export/apps/rDock/src/rDock_2013.1_src/data/scripts/dock_solv.prm

>  <Rbt.Receptor>
prm/blind_docking_60.prm

>  <SCORE>
-18.3294

>  <SCORE.INTER>
-19.1831

>  <SCORE.INTER.CONST>
1

>  <SCORE.INTER.POLAR>
0

>  <SCORE.INTER.ROT>
8

>  <SCORE.INTER.SOLV>
17.8252

>  <SCORE.INTER.VDW>
-27.6638

>  <SCORE.INTER.norm>
-0.737812

>  <SCORE.INTRA>
-0.157464

>  <SCORE.INTRA.DIHEDRAL>
0.468781

>  <SCORE.INTRA.DIHEDRAL.0>
7.88077

>  <SCORE.INTRA.POLAR>
0

>  <SCORE.INTRA.POLAR.0>
0

>  <SCORE.INTRA.REPUL>
0

>  <SCORE.INTRA.REPUL.0>
0

>  <SCORE.INTRA.SOLV>
0.000651549

>  <SCORE.INTRA.SOLV.lig_0>
-63.2542

>  <SCORE.INTRA.VDW>
-0.39218

>  <SCORE.INTRA.VDW.0>
-3.15072

>  <SCORE.INTRA.norm>
-0.00605632

>  <SCORE.RESTR>
1.0112

>  <SCORE.RESTR.CAVITY>
1.0112

>  <SCORE.RESTR.norm>
0.0388922

>  <SCORE.SYSTEM>
0

>  <SCORE.SYSTEM.CONST>
0

>  <SCORE.SYSTEM.DIHEDRAL>
0

>  <SCORE.SYSTEM.SOLV>
0

>  <SCORE.SYSTEM.norm>
0

>  <SCORE.heavy>
26

>  <SCORE.norm>
-0.704976

>  <RMSD>
11.116

$$$$
ligand
 OpenBabel11021811473D
libRbt.so/2013.1/901 2013/11/27
 26 27  0  0  0  0  0  0  0  0999 V2000
   -1.6291  -18.9113   15.6433 C   0  0  0  0  0  0  0  0  0  0  0  0
    1.7470  -17.4533   19.5944 C   0  0  0  0  0  0  0  0  0  0  0  0
    1.7297  -18.3284   18.5134 C   0  0  0  0  0  0  0  0  0  0  0  0
    0.6087  -18.3562   17.4717 C   0  0  0  0  0  0  0  0  0  0  0  0
   -0.9254  -19.9948   16.4658 C   0  0  1  0  0  0  0  0  0  0  0  0
    5.0621  -18.4083   21.2163 C   0  0  0  0  0  0  0  0  0  0  0  0
    3.8664  -18.3829   20.2630 C   0  0  0  0  0  0  0  0  0  0  0  0
    2.8006  -19.2041   18.3659 C   0  0  0  0  0  0  0  0  0  0  0  0
    0.6435  -20.7480   17.9336 C   0  0  0  0  0  0  0  0  0  0  0  0
   -1.2952  -21.3326   16.3949 C   0  0  2  0  0  0  0  0  0  0  0  0
   -2.3768  -22.0320   15.5677 C   0  0  0  0  0  0  0  0  0  0  0  0
   -3.7870  -21.8073   16.1184 C   0  0  0  0  0  0  0  0  0  0  0  0
    2.8235  -17.4735   20.4836 N   0  0  0  0  0  0  0  0  0  0  0  0
    0.0929  -19.7202   17.2859 N   0  0  0  0  0  0  0  0  0  0  0  0
    3.8134  -19.2143   19.2124 N   0  0  0  0  0  0  0  0  0  0  0  0
    0.8214  -16.6603   19.7682 O   0  0  0  0  0  0  0  0  0  0  0  0
   -5.5857  -19.4621   17.8265 O   0  5  0  0  0  0  0  0  0  0  0  0
   -6.2128  -16.2003   14.8632 O   0  0  0  0  0  0  0  0  0  0  0  0
   -4.2420  -20.4713   15.8821 O   0  0  0  0  0  0  0  0  0  0  0  0
   -6.0606  -18.6861   15.4470 O   0  0  0  0  0  0  0  0  0  0  0  0
   -5.8373  -16.9171   17.3203 O   0  5  0  0  0  0  0  0  0  0  0  0
   -6.7296  -21.0671   16.1541 O   0  0  0  0  0  0  0  0  0  0  0  0
   -3.9726  -17.2177   15.5823 O   0  0  0  0  0  0  0  0  0  0  0  0
   -0.2674  -22.1762   17.5198 S   0  0  0  0  0  0  0  0  0  0  0  0
   -5.7189  -19.9966   16.3142 P   0  0  2  0  0  0  0  0  0  0  0  0
   -5.5479  -17.2328   15.9036 P   0  0  2  0  0  0  0  0  0  0  0  0
  2 16  2  0  0  0  0
  2  3  1  0  0  0  0
  2 13  1  0  0  0  0
  3  8  2  0  0  0  0
  3  4  1  0  0  0  0
  4 14  1  0  0  0  0
  5  1  1  6  0  0  0
  5 14  1  0  0  0  0
  5 10  1  0  0  0  0
  6  7  1  0  0  0  0
  7 13  1  0  0  0  0
  7 15  2  0  0  0  0
  8 15  1  0  0  0  0
  9 14  1  0  0  0  0
  9 24  1  0  0  0  0
 10 24  1  0  0  0  0
 10 11  1  1  0  0  0
 11 12  1  0  0  0  0
 12 19  1  0  0  0  0
 17 25  1  0  0  0  0
 19 25  1  0  0  0  0
 20 26  1  0  0  0  0
 21 26  1  0  0  0  0
 22 25  2  0  0  0  0
 23 26  2  0  0  0  0
 25 20  1  6  0  0  0
 26 18  1  6  0  0  0
M  CHG  2  17  -1  21  -1
M  END
>  <CHROM.1>
-128.81605361,-75.87278568,72.51268849,177.36015427,177.57570160,29.04857073
88.97599859,-174.69063277,-1.88409758,-19.18222153,17.27215206,-3.04101595
-0.37867770,0.22806281

>  <Name>
ligand

>  <RI>
0

>  <Rbt.Current_Directory>
/home/itssahil/PROJECTS/Mol_Feturizer/New_Systems/rnas/3D2X

>  <Rbt.Executable>
rbdock ($Id: //depot/dev/client3/rdock/2013.1/src/exe/rbdock.cxx#4 $)

>  <Rbt.Library>
libRbt.so (2013.1, Build901 2013/11/27)

>  <Rbt.Parameter_File>
/export/apps/rDock/src/rDock_2013.1_src/data/scripts/dock_solv.prm

>  <Rbt.Receptor>
prm/blind_docking_40.prm

>  <SCORE>
-17.8648

>  <SCORE.INTER>
-20.1638

>  <SCORE.INTER.CONST>
1

>  <SCORE.INTER.POLAR>
0

>  <SCORE.INTER.ROT>
8

>  <SCORE.INTER.SOLV>
17.7224

>  <SCORE.INTER.VDW>
-28.2833

>  <SCORE.INTER.norm>
-0.775529

>  <SCORE.INTRA>
2.29898

>  <SCORE.INTRA.DIHEDRAL>
-0.632061

>  <SCORE.INTRA.DIHEDRAL.0>
7.88077

>  <SCORE.INTRA.POLAR>
0

>  <SCORE.INTRA.POLAR.0>
0

>  <SCORE.INTRA.REPUL>
0

>  <SCORE.INTRA.REPUL.0>
0

>  <SCORE.INTRA.SOLV>
1.44514

>  <SCORE.INTRA.SOLV.lig_0>
-63.2542

>  <SCORE.INTRA.VDW>
1.89244

>  <SCORE.INTRA.VDW.0>
-3.15072

>  <SCORE.INTRA.norm>
0.0884223

>  <SCORE.RESTR>
0

>  <SCORE.RESTR.CAVITY>
0

>  <SCORE.RESTR.norm>
0

>  <SCORE.SYSTEM>
0

>  <SCORE.SYSTEM.CONST>
0

>  <SCORE.SYSTEM.DIHEDRAL>
0

>  <SCORE.SYSTEM.SOLV>
0

>  <SCORE.SYSTEM.norm>
0

>  <SCORE.heavy>
26

>  <SCORE.norm>
-0.687107

>  <RMSD>
11.122

$$$$
ligand
 OpenBabel11021811473D
libRbt.so/2013.1/901 2013/11/27
 26 27  0  0  0  0  0  0  0  0999 V2000
   -0.6859  -16.4122   18.5018 C   0  0  0  0  0  0  0  0  0  0  0  0
    3.9310  -17.5037   21.2337 C   0  0  0  0  0  0  0  0  0  0  0  0
    3.3857  -17.4452   19.9554 C   0  0  0  0  0  0  0  0  0  0  0  0
    1.9479  -17.0025   19.6739 C   0  0  0  0  0  0  0  0  0  0  0  0
    0.0482  -17.7405   18.2965 C   0  0  1  0  0  0  0  0  0  0  0  0
    7.4848  -18.6242   20.4290 C   0  0  0  0  0  0  0  0  0  0  0  0
    6.0202  -18.2143   20.2675 C   0  0  0  0  0  0  0  0  0  0  0  0
    4.2020  -17.7862   18.8817 C   0  0  0  0  0  0  0  0  0  0  0  0
    1.8008  -19.1681   18.5678 C   0  0  0  0  0  0  0  0  0  0  0  0
   -0.4832  -18.7663   17.5240 C   0  0  2  0  0  0  0  0  0  0  0  0
   -1.7947  -18.8551   16.7394 C   0  0  0  0  0  0  0  0  0  0  0  0
   -2.0100  -17.6651   15.8014 C   0  0  0  0  0  0  0  0  0  0  0  0
    5.2621  -17.8910   21.4007 N   0  0  0  0  0  0  0  0  0  0  0  0
    1.2467  -17.9845   18.8342 N   0  0  0  0  0  0  0  0  0  0  0  0
    5.4595  -18.1504   19.0513 N   0  0  0  0  0  0  0  0  0  0  0  0
    3.2479  -17.2127   22.2157 O   0  0  0  0  0  0  0  0  0  0  0  0
   -4.2676  -16.2253   17.1165 O   0  5  0  0  0  0  0  0  0  0  0  0
   -6.5459  -15.5267   13.0648 O   0  0  0  0  0  0  0  0  0  0  0  0
   -3.3177  -17.6773   15.2207 O   0  0  0  0  0  0  0  0  0  0  0  0
   -5.7515  -16.8100   15.1301 O   0  0  0  0  0  0  0  0  0  0  0  0
   -5.4171  -14.2483   15.0100 O   0  5  0  0  0  0  0  0  0  0  0  0
   -5.0974  -18.6530   16.8012 O   0  0  0  0  0  0  0  0  0  0  0  0
   -4.0387  -15.8143   13.5147 O   0  0  0  0  0  0  0  0  0  0  0  0
    0.6594  -20.0776   17.6135 S   0  0  0  0  0  0  0  0  0  0  0  0
   -4.6361  -17.4267   16.1108 P   0  0  2  0  0  0  0  0  0  0  0  0
   -5.4427  -15.5100   14.2368 P   0  0  2  0  0  0  0  0  0  0  0  0
  2 16  2  0  0  0  0
  2  3  1  0  0  0  0
  2 13  1  0  0  0  0
  3  8  2  0  0  0  0
  3  4  1  0  0  0  0
  4 14  1  0  0  0  0
  5  1  1  6  0  0  0
  5 14  1  0  0  0  0
  5 10  1  0  0  0  0
  6  7  1  0  0  0  0
  7 13  1  0  0  0  0
  7 15  2  0  0  0  0
  8 15  1  0  0  0  0
  9 14  1  0  0  0  0
  9 24  1  0  0  0  0
 10 24  1  0  0  0  0
 10 11  1  1  0  0  0
 11 12  1  0  0  0  0
 12 19  1  0  0  0  0
 17 25  1  0  0  0  0
 19 25  1  0  0  0  0
 20 26  1  0  0  0  0
 21 26  1  0  0  0  0
 22 25  2  0  0  0  0
 23 26  2  0  0  0  0
 25 20  1  6  0  0  0
 26 18  1  6  0  0  0
M  CHG  2  17  -1  21  -1
M  END
>  <CHROM.1>
-128.57375139,51.32990563,-171.98901696,-170.38572167,68.02742796,58.64134271
41.67540240,160.53175655,-0.75946049,-17.45053507,17.41844023,-0.06729540
-0.52661491,0.19598070

>  <Name>
ligand

>  <RI>
0

>  <Rbt.Current_Directory>
/home/itssahil/PROJECTS/Mol_Feturizer/New_Systems/rnas/3D2X

>  <Rbt.Executable>
rbdock ($Id: //depot/dev/client3/rdock/2013.1/src/exe/rbdock.cxx#4 $)

>  <Rbt.Library>
libRbt.so (2013.1, Build901 2013/11/27)

>  <Rbt.Parameter_File>
/export/apps/rDock/src/rDock_2013.1_src/data/scripts/dock_solv.prm

>  <Rbt.Receptor>
prm/blind_docking_100.prm

>  <SCORE>
-22.3625

>  <SCORE.INTER>
-23.9369

>  <SCORE.INTER.CONST>
1

>  <SCORE.INTER.POLAR>
0

>  <SCORE.INTER.ROT>
8

>  <SCORE.INTER.SOLV>
15.9392

>  <SCORE.INTER.VDW>
-30.2044

>  <SCORE.INTER.norm>
-0.920651

>  <SCORE.INTRA>
1.57446

>  <SCORE.INTRA.DIHEDRAL>
-1.62541

>  <SCORE.INTRA.DIHEDRAL.0>
7.88077

>  <SCORE.INTRA.POLAR>
0

>  <SCORE.INTRA.POLAR.0>
0

>  <SCORE.INTRA.REPUL>
0

>  <SCORE.INTRA.REPUL.0>
0

>  <SCORE.INTRA.SOLV>
2.02719

>  <SCORE.INTRA.SOLV.lig_0>
-63.2542

>  <SCORE.INTRA.VDW>
1.37358

>  <SCORE.INTRA.VDW.0>
-3.15072

>  <SCORE.INTRA.norm>
0.0605563

>  <SCORE.RESTR>
0

>  <SCORE.RESTR.CAVITY>
0

>  <SCORE.RESTR.norm>
0

>  <SCORE.SYSTEM>
0

>  <SCORE.SYSTEM.CONST>
0

>  <SCORE.SYSTEM.DIHEDRAL>
0

>  <SCORE.SYSTEM.SOLV>
0

>  <SCORE.SYSTEM.norm>
0

>  <SCORE.heavy>
26

>  <SCORE.norm>
-0.860094

>  <RMSD>
11.134

$$$$
ligand
 OpenBabel11021811473D
libRbt.so/2013.1/901 2013/11/27
 26 27  0  0  0  0  0  0  0  0999 V2000
    0.4516  -20.5761   15.7518 C   0  0  0  0  0  0  0  0  0  0  0  0
   -4.4425  -20.1465   14.5789 C   0  0  0  0  0  0  0  0  0  0  0  0
   -3.4712  -19.6335   15.4322 C   0  0  0  0  0  0  0  0  0  0  0  0
   -2.0607  -19.2576   14.9717 C   0  0  0  0  0  0  0  0  0  0  0  0
   -0.1120  -19.3463   16.4699 C   0  0  1  0  0  0  0  0  0  0  0  0
   -7.3766  -20.4974   16.9873 C   0  0  0  0  0  0  0  0  0  0  0  0
   -5.9833  -20.2022   16.4298 C   0  0  0  0  0  0  0  0  0  0  0  0
   -3.8140  -19.4335   16.7656 C   0  0  0  0  0  0  0  0  0  0  0  0
   -1.6335  -17.6814   16.7795 C   0  0  0  0  0  0  0  0  0  0  0  0
    0.5397  -18.7567   17.5465 C   0  0  2  0  0  0  0  0  0  0  0  0
    1.8566  -19.1144   18.2403 C   0  0  0  0  0  0  0  0  0  0  0  0
    2.1629  -18.2132   19.4387 C   0  0  0  0  0  0  0  0  0  0  0  0
   -5.7153  -20.4363   15.0746 N   0  0  0  0  0  0  0  0  0  0  0  0
   -1.2524  -18.7605   16.0945 N   0  0  0  0  0  0  0  0  0  0  0  0
   -5.0208  -19.7107   17.2233 N   0  0  0  0  0  0  0  0  0  0  0  0
   -4.1866  -20.3421   13.3906 O   0  0  0  0  0  0  0  0  0  0  0  0
    3.6791  -17.4548   21.9314 O   0  5  0  0  0  0  0  0  0  0  0  0
    7.2503  -18.9237   21.4138 O   0  0  0  0  0  0  0  0  0  0  0  0
    3.4911  -17.6839   19.3787 O   0  0  0  0  0  0  0  0  0  0  0  0
    4.8237  -19.4102   20.7671 O   0  0  0  0  0  0  0  0  0  0  0  0
    5.6685  -20.0420   23.1283 O   0  5  0  0  0  0  0  0  0  0  0  0
    5.7438  -17.0311   20.4351 O   0  0  0  0  0  0  0  0  0  0  0  0
    6.4720  -21.3411   21.0655 O   0  0  0  0  0  0  0  0  0  0  0  0
   -0.4772  -17.4402   18.0622 S   0  0  0  0  0  0  0  0  0  0  0  0
    4.5155  -17.8396   20.6113 P   0  0  2  0  0  0  0  0  0  0  0  0
    6.0270  -19.9308   21.6967 P   0  0  2  0  0  0  0  0  0  0  0  0
  2 16  2  0  0  0  0
  2  3  1  0  0  0  0
  2 13  1  0  0  0  0
  3  8  2  0  0  0  0
  3  4  1  0  0  0  0
  4 14  1  0  0  0  0
  5  1  1  6  0  0  0
  5 14  1  0  0  0  0
  5 10  1  0  0  0  0
  6  7  1  0  0  0  0
  7 13  1  0  0  0  0
  7 15  2  0  0  0  0
  8 15  1  0  0  0  0
  9 14  1  0  0  0  0
  9 24  1  0  0  0  0
 10 24  1  0  0  0  0
 10 11  1  1  0  0  0
 11 12  1  0  0  0  0
 12 19  1  0  0  0  0
 17 25  1  0  0  0  0
 19 25  1  0  0  0  0
 20 26  1  0  0  0  0
 21 26  1  0  0  0  0
 22 25  2  0  0  0  0
 23 26  2  0  0  0  0
 25 20  1  1  0  0  0
 26 18  1  6  0  0  0
M  CHG  2  17  -1  21  -1
M  END
>  <CHROM.1>
-179.24401999,-177.56379555,-129.89090123,120.64973552,-126.95777237,-80.36528114
-45.80344522,-41.46470723,0.87219229,-19.09537258,18.44483907,-2.74543322
-0.34362154,0.75130724

>  <Name>
ligand

>  <RI>
0

>  <Rbt.Current_Directory>
/home/itssahil/PROJECTS/Mol_Feturizer/New_Systems/rnas/3D2X

>  <Rbt.Executable>
rbdock ($Id: //depot/dev/client3/rdock/2013.1/src/exe/rbdock.cxx#4 $)

>  <Rbt.Library>
libRbt.so (2013.1, Build901 2013/11/27)

>  <Rbt.Parameter_File>
/export/apps/rDock/src/rDock_2013.1_src/data/scripts/dock_solv.prm

>  <Rbt.Receptor>
prm/blind_docking_40.prm

>  <SCORE>
-11.7493

>  <SCORE.INTER>
-18.5325

>  <SCORE.INTER.CONST>
1

>  <SCORE.INTER.POLAR>
0

>  <SCORE.INTER.ROT>
8

>  <SCORE.INTER.SOLV>
22.0853

>  <SCORE.INTER.VDW>
-28.6501

>  <SCORE.INTER.norm>
-0.712787

>  <SCORE.INTRA>
5.90392

>  <SCORE.INTRA.DIHEDRAL>
10.1907

>  <SCORE.INTRA.DIHEDRAL.0>
7.88077

>  <SCORE.INTRA.POLAR>
0

>  <SCORE.INTRA.POLAR.0>
0

>  <SCORE.INTRA.REPUL>
0

>  <SCORE.INTRA.REPUL.0>
0

>  <SCORE.INTRA.SOLV>
-1.66002

>  <SCORE.INTRA.SOLV.lig_0>
-63.2542

>  <SCORE.INTRA.VDW>
1.63858

>  <SCORE.INTRA.VDW.0>
-3.15072

>  <SCORE.INTRA.norm>
0.227074

>  <SCORE.RESTR>
0.879235

>  <SCORE.RESTR.CAVITY>
0.879235

>  <SCORE.RESTR.norm>
0.0338167

>  <SCORE.SYSTEM>
0

>  <SCORE.SYSTEM.CONST>
0

>  <SCORE.SYSTEM.DIHEDRAL>
0

>  <SCORE.SYSTEM.SOLV>
0

>  <SCORE.SYSTEM.norm>
0

>  <SCORE.heavy>
26

>  <SCORE.norm>
-0.451896

>  <RMSD>
11.149

$$$$
ligand
 OpenBabel11021811473D
libRbt.so/2013.1/901 2013/11/27
 26 27  0  0  0  0  0  0  0  0999 V2000
   -0.7267  -20.2695   15.8250 C   0  0  0  0  0  0  0  0  0  0  0  0
   -4.4867  -19.7326   15.0629 C   0  0  0  0  0  0  0  0  0  0  0  0
   -3.8332  -18.7329   15.7758 C   0  0  0  0  0  0  0  0  0  0  0  0
   -2.5641  -18.0372   15.2778 C   0  0  0  0  0  0  0  0  0  0  0  0
   -0.7136  -18.9560   16.6125 C   0  0  1  0  0  0  0  0  0  0  0  0
   -7.4362  -20.4289   17.3756 C   0  0  0  0  0  0  0  0  0  0  0  0
   -6.1465  -19.8363   16.8058 C   0  0  0  0  0  0  0  0  0  0  0  0
   -4.3800  -18.3348   16.9916 C   0  0  0  0  0  0  0  0  0  0  0  0
   -1.4350  -16.8477   17.0792 C   0  0  0  0  0  0  0  0  0  0  0  0
    0.1860  -18.7235   17.6460 C   0  0  2  0  0  0  0  0  0  0  0  0
    1.2988  -19.6017   18.2240 C   0  0  0  0  0  0  0  0  0  0  0  0
    2.5483  -18.8054   18.6070 C   0  0  0  0  0  0  0  0  0  0  0  0
   -5.6570  -20.2957   15.5758 N   0  0  0  0  0  0  0  0  0  0  0  0
   -1.5541  -17.9533   16.3426 N   0  0  0  0  0  0  0  0  0  0  0  0
   -5.4873  -18.8738   17.4667 N   0  0  0  0  0  0  0  0  0  0  0  0
   -4.0409  -20.1197   13.9825 O   0  0  0  0  0  0  0  0  0  0  0  0
    4.8656  -17.7342   20.0354 O   0  5  0  0  0  0  0  0  0  0  0  0
    8.3207  -19.6148   19.8628 O   0  0  0  0  0  0  0  0  0  0  0  0
    3.6783  -19.6586   18.8142 O   0  0  0  0  0  0  0  0  0  0  0  0
    5.8276  -20.0882   20.1850 O   0  0  0  0  0  0  0  0  0  0  0  0
    7.0346  -18.4506   21.7819 O   0  5  0  0  0  0  0  0  0  0  0  0
    5.9509  -18.8151   17.9533 O   0  0  0  0  0  0  0  0  0  0  0  0
    7.5197  -20.9689   21.8867 O   0  0  0  0  0  0  0  0  0  0  0  0
   -0.1959  -17.1430   18.2700 S   0  0  0  0  0  0  0  0  0  0  0  0
    5.1320  -19.0600   19.1628 P   0  0  2  0  0  0  0  0  0  0  0  0
    7.1654  -19.6884   20.9812 P   0  0  2  0  0  0  0  0  0  0  0  0
  2 16  2  0  0  0  0
  2  3  1  0  0  0  0
  2 13  1  0  0  0  0
  3  8  2  0  0  0  0
  3  4  1  0  0  0  0
  4 14  1  0  0  0  0
  5  1  1  6  0  0  0
  5 14  1  0  0  0  0
  5 10  1  0  0  0  0
  6  7  1  0  0  0  0
  7 13  1  0  0  0  0
  7 15  2  0  0  0  0
  8 15  1  0  0  0  0
  9 14  1  0  0  0  0
  9 24  1  0  0  0  0
 10 24  1  0  0  0  0
 10 11  1  1  0  0  0
 11 12  1  0  0  0  0
 12 19  1  0  0  0  0
 17 25  1  0  0  0  0
 19 25  1  0  0  0  0
 20 26  1  0  0  0  0
 21 26  1  0  0  0  0
 22 25  2  0  0  0  0
 23 26  2  0  0  0  0
 25 20  1  1  0  0  0
 26 18  1  6  0  0  0
M  CHG  2  17  -1  21  -1
M  END
>  <CHROM.1>
-133.56995799,141.76686881,-165.00688665,84.31456626,177.25527128,-55.74055287
33.12617771,-68.93145221,1.11501110,-19.07445177,18.12220411,-2.82394294
0.17636422,2.09724484

>  <Name>
ligand

>  <RI>
0

>  <Rbt.Current_Directory>
/home/itssahil/PROJECTS/Mol_Feturizer/New_Systems/rnas/3D2X

>  <Rbt.Executable>
rbdock ($Id: //depot/dev/client3/rdock/2013.1/src/exe/rbdock.cxx#4 $)

>  <Rbt.Library>
libRbt.so (2013.1, Build901 2013/11/27)

>  <Rbt.Parameter_File>
/export/apps/rDock/src/rDock_2013.1_src/data/scripts/dock_solv.prm

>  <Rbt.Receptor>
prm/blind_docking_100.prm

>  <SCORE>
-18.1835

>  <SCORE.INTER>
-17.3853

>  <SCORE.INTER.CONST>
1

>  <SCORE.INTER.POLAR>
0

>  <SCORE.INTER.ROT>
8

>  <SCORE.INTER.SOLV>
16.7275

>  <SCORE.INTER.VDW>
-26.0994

>  <SCORE.INTER.norm>
-0.668667

>  <SCORE.INTRA>
-0.798189

>  <SCORE.INTRA.DIHEDRAL>
-0.663562

>  <SCORE.INTRA.DIHEDRAL.0>
7.88077

>  <SCORE.INTRA.POLAR>
0

>  <SCORE.INTRA.POLAR.0>
0

>  <SCORE.INTRA.REPUL>
0

>  <SCORE.INTRA.REPUL.0>
0

>  <SCORE.INTRA.SOLV>
-0.968726

>  <SCORE.INTRA.SOLV.lig_0>
-63.2542

>  <SCORE.INTRA.VDW>
0.0179548

>  <SCORE.INTRA.VDW.0>
-3.15072

>  <SCORE.INTRA.norm>
-0.0306996

>  <SCORE.RESTR>
0

>  <SCORE.RESTR.CAVITY>
0

>  <SCORE.RESTR.norm>
0

>  <SCORE.SYSTEM>
0

>  <SCORE.SYSTEM.CONST>
0

>  <SCORE.SYSTEM.DIHEDRAL>
0

>  <SCORE.SYSTEM.SOLV>
0

>  <SCORE.SYSTEM.norm>
0

>  <SCORE.heavy>
26

>  <SCORE.norm>
-0.699366

>  <RMSD>
11.153

$$$$
ligand
 OpenBabel11021811473D
libRbt.so/2013.1/901 2013/11/27
 26 27  0  0  0  0  0  0  0  0999 V2000
   -1.7916  -16.1470   17.1804 C   0  0  0  0  0  0  0  0  0  0  0  0
    0.1971  -12.1919   20.4388 C   0  0  0  0  0  0  0  0  0  0  0  0
   -0.3032  -13.4770   20.2573 C   0  0  0  0  0  0  0  0  0  0  0  0
   -0.5224  -14.1075   18.8800 C   0  0  0  0  0  0  0  0  0  0  0  0
   -0.5917  -16.4350   18.0876 C   0  0  1  0  0  0  0  0  0  0  0  0
    0.3055  -12.0129   24.2452 C   0  0  0  0  0  0  0  0  0  0  0  0
    0.0800  -12.5249   22.8218 C   0  0  0  0  0  0  0  0  0  0  0  0
   -0.5954  -14.2293   21.3906 C   0  0  0  0  0  0  0  0  0  0  0  0
    1.0269  -15.8527   19.5789 C   0  0  0  0  0  0  0  0  0  0  0  0
   -0.0077  -17.6939   18.1621 C   0  0  2  0  0  0  0  0  0  0  0  0
   -0.3454  -19.0009   17.4401 C   0  0  0  0  0  0  0  0  0  0  0  0
    0.8879  -19.8621   17.1583 C   0  0  0  0  0  0  0  0  0  0  0  0
    0.3945  -11.7026   21.7316 N   0  0  0  0  0  0  0  0  0  0  0  0
   -0.0279  -15.4915   18.8469 N   0  0  0  0  0  0  0  0  0  0  0  0
   -0.4043  -13.7568   22.6083 N   0  0  0  0  0  0  0  0  0  0  0  0
    0.4694  -11.4869   19.4668 O   0  0  0  0  0  0  0  0  0  0  0  0
   -0.4633  -22.3309   16.9949 O   0  5  0  0  0  0  0  0  0  0  0  0
    1.8645  -23.7141   20.6401 O   0  0  0  0  0  0  0  0  0  0  0  0
    1.1588  -20.7682   18.2323 O   0  0  0  0  0  0  0  0  0  0  0  0
    1.5956  -23.3141   18.1279 O   0  0  0  0  0  0  0  0  0  0  0  0
    3.5873  -24.7190   18.9926 O   0  5  0  0  0  0  0  0  0  0  0  0
   -0.3195  -22.3895   19.5751 O   0  0  0  0  0  0  0  0  0  0  0  0
    3.5056  -22.1858   19.3981 O   0  0  0  0  0  0  0  0  0  0  0  0
    1.2714  -17.5622   19.3367 S   0  0  0  0  0  0  0  0  0  0  0  0
    0.4437  -22.2084   18.3188 P   0  0  2  0  0  0  0  0  0  0  0  0
    2.6971  -23.5697   19.2702 P   0  0  2  0  0  0  0  0  0  0  0  0
  2 16  2  0  0  0  0
  2  3  1  0  0  0  0
  2 13  1  0  0  0  0
  3  8  2  0  0  0  0
  3  4  1  0  0  0  0
  4 14  1  0  0  0  0
  5  1  1  6  0  0  0
  5 14  1  0  0  0  0
  5 10  1  0  0  0  0
  6  7  1  0  0  0  0
  7 13  1  0  0  0  0
  7 15  2  0  0  0  0
  8 15  1  0  0  0  0
  9 14  1  0  0  0  0
  9 24  1  0  0  0  0
 10 24  1  0  0  0  0
 10 11  1  1  0  0  0
 11 12  1  0  0  0  0
 12 19  1  0  0  0  0
 17 25  1  0  0  0  0
 19 25  1  0  0  0  0
 20 26  1  0  0  0  0
 21 26  1  0  0  0  0
 22 25  2  0  0  0  0
 23 26  2  0  0  0  0
 25 20  1  6  0  0  0
 26 18  1  1  0  0  0
M  CHG  2  17  -1  21  -1
M  END
>  <CHROM.1>
135.28815590,146.97532701,90.03388343,148.26861818,85.78719332,-177.43939504
2.63366915,48.58829592,0.70314095,-18.28761375,19.40594913,1.90643048,-1.03626394
0.51250131

>  <Name>
ligand

>  <RI>
0

>  <Rbt.Current_Directory>
/home/itssahil/PROJECTS/Mol_Feturizer/New_Systems/rnas/3D2X

>  <Rbt.Executable>
rbdock ($Id: //depot/dev/client3/rdock/2013.1/src/exe/rbdock.cxx#4 $)

>  <Rbt.Library>
libRbt.so (2013.1, Build901 2013/11/27)

>  <Rbt.Parameter_File>
/export/apps/rDock/src/rDock_2013.1_src/data/scripts/dock_solv.prm

>  <Rbt.Receptor>
prm/blind_docking_80.prm

>  <SCORE>
-11.5548

>  <SCORE.INTER>
-14.7117

>  <SCORE.INTER.CONST>
1

>  <SCORE.INTER.POLAR>
0

>  <SCORE.INTER.ROT>
8

>  <SCORE.INTER.SOLV>
19.2627

>  <SCORE.INTER.VDW>
-25.162

>  <SCORE.INTER.norm>
-0.565835

>  <SCORE.INTRA>
2.90094

>  <SCORE.INTRA.DIHEDRAL>
5.11513

>  <SCORE.INTRA.DIHEDRAL.0>
7.88077

>  <SCORE.INTRA.POLAR>
0

>  <SCORE.INTRA.POLAR.0>
0

>  <SCORE.INTRA.REPUL>
0

>  <SCORE.INTRA.REPUL.0>
0

>  <SCORE.INTRA.SOLV>
-0.984771

>  <SCORE.INTRA.SOLV.lig_0>
-63.2542

>  <SCORE.INTRA.VDW>
0.83576

>  <SCORE.INTRA.VDW.0>
-3.15072

>  <SCORE.INTRA.norm>
0.111575

>  <SCORE.RESTR>
0.256004

>  <SCORE.RESTR.CAVITY>
0.256004

>  <SCORE.RESTR.norm>
0.00984633

>  <SCORE.SYSTEM>
0

>  <SCORE.SYSTEM.CONST>
0

>  <SCORE.SYSTEM.DIHEDRAL>
0

>  <SCORE.SYSTEM.SOLV>
0

>  <SCORE.SYSTEM.norm>
0

>  <SCORE.heavy>
26

>  <SCORE.norm>
-0.444414

>  <RMSD>
11.161

$$$$
ligand
 OpenBabel11021811473D
libRbt.so/2013.1/901 2013/11/27
 26 27  0  0  0  0  0  0  0  0999 V2000
   -0.0243  -19.8411   15.7590 C   0  0  0  0  0  0  0  0  0  0  0  0
    4.3678  -18.9616   18.7217 C   0  0  0  0  0  0  0  0  0  0  0  0
    2.9917  -18.9899   18.9220 C   0  0  0  0  0  0  0  0  0  0  0  0
    1.9980  -19.4796   17.8658 C   0  0  0  0  0  0  0  0  0  0  0  0
   -0.0250  -18.6588   16.7326 C   0  0  1  0  0  0  0  0  0  0  0  0
    5.5423  -17.6630   22.1080 C   0  0  0  0  0  0  0  0  0  0  0  0
    4.6377  -18.1261   20.9650 C   0  0  0  0  0  0  0  0  0  0  0  0
    2.5033  -18.5715   20.1556 C   0  0  0  0  0  0  0  0  0  0  0  0
    0.7858  -17.4610   18.4907 C   0  0  0  0  0  0  0  0  0  0  0  0
   -1.0000  -17.6694   16.6920 C   0  0  2  0  0  0  0  0  0  0  0  0
   -2.2167  -17.4967   15.7792 C   0  0  0  0  0  0  0  0  0  0  0  0
   -3.4637  -18.2104   16.3066 C   0  0  0  0  0  0  0  0  0  0  0  0
    5.2075  -18.5269   19.7492 N   0  0  0  0  0  0  0  0  0  0  0  0
    0.9007  -18.5181   17.6856 N   0  0  0  0  0  0  0  0  0  0  0  0
    3.3065  -18.1629   21.1202 N   0  0  0  0  0  0  0  0  0  0  0  0
    4.8479  -19.3208   17.6464 O   0  0  0  0  0  0  0  0  0  0  0  0
   -5.9523  -17.6083   17.5116 O   0  5  0  0  0  0  0  0  0  0  0  0
   -5.4465  -13.8699   14.3717 O   0  0  0  0  0  0  0  0  0  0  0  0
   -4.5660  -18.0904   15.4021 O   0  0  0  0  0  0  0  0  0  0  0  0
   -6.1525  -16.0518   15.5050 O   0  0  0  0  0  0  0  0  0  0  0  0
   -4.0952  -16.0328   13.9379 O   0  5  0  0  0  0  0  0  0  0  0  0
   -7.1151  -18.4325   15.3552 O   0  0  0  0  0  0  0  0  0  0  0  0
   -6.4634  -15.7698   12.9834 O   0  0  0  0  0  0  0  0  0  0  0  0
   -0.5757  -16.5244   17.9339 S   0  0  0  0  0  0  0  0  0  0  0  0
   -6.0169  -17.6038   15.9034 P   0  0  2  0  0  0  0  0  0  0  0  0
   -5.4407  -15.4689   14.1871 P   0  0  2  0  0  0  0  0  0  0  0  0
  2 16  2  0  0  0  0
  2  3  1  0  0  0  0
  2 13  1  0  0  0  0
  3  8  2  0  0  0  0
  3  4  1  0  0  0  0
  4 14  1  0  0  0  0
  5  1  1  1  0  0  0
  5 14  1  0  0  0  0
  5 10  1  0  0  0  0
  6  7  1  0  0  0  0
  7 13  1  0  0  0  0
  7 15  2  0  0  0  0
  8 15  1  0  0  0  0
  9 14  1  0  0  0  0
  9 24  1  0  0  0  0
 10 24  1  0  0  0  0
 10 11  1  6  0  0  0
 11 12  1  0  0  0  0
 12 19  1  0  0  0  0
 17 25  1  0  0  0  0
 19 25  1  0  0  0  0
 20 26  1  0  0  0  0
 21 26  1  0  0  0  0
 22 25  2  0  0  0  0
 23 26  2  0  0  0  0
 25 20  1  6  0  0  0
 26 18  1  1  0  0  0
M  CHG  2  17  -1  21  -1
M  END
>  <CHROM.1>
-130.84205223,87.88487367,-177.02157814,173.62214775,-129.78881889,144.15375272
-10.58752864,-163.99954872,-1.42283952,-17.53912011,16.96621449,-0.11366417
0.48131066,-2.49799296

>  <Name>
ligand

>  <RI>
0

>  <Rbt.Current_Directory>
/home/itssahil/PROJECTS/Mol_Feturizer/New_Systems/rnas/3D2X

>  <Rbt.Executable>
rbdock ($Id: //depot/dev/client3/rdock/2013.1/src/exe/rbdock.cxx#4 $)

>  <Rbt.Library>
libRbt.so (2013.1, Build901 2013/11/27)

>  <Rbt.Parameter_File>
/export/apps/rDock/src/rDock_2013.1_src/data/scripts/dock_solv.prm

>  <Rbt.Receptor>
prm/blind_docking_60.prm

>  <SCORE>
0.115097

>  <SCORE.INTER>
-6.49914

>  <SCORE.INTER.CONST>
1

>  <SCORE.INTER.POLAR>
0

>  <SCORE.INTER.ROT>
8

>  <SCORE.INTER.SOLV>
28.805

>  <SCORE.INTER.VDW>
-22.8678

>  <SCORE.INTER.norm>
-0.249967

>  <SCORE.INTRA>
6.61424

>  <SCORE.INTRA.DIHEDRAL>
7.73957

>  <SCORE.INTRA.DIHEDRAL.0>
7.88077

>  <SCORE.INTRA.POLAR>
0

>  <SCORE.INTRA.POLAR.0>
0

>  <SCORE.INTRA.REPUL>
0

>  <SCORE.INTRA.REPUL.0>
0

>  <SCORE.INTRA.SOLV>
0.850494

>  <SCORE.INTRA.SOLV.lig_0>
-63.2542

>  <SCORE.INTRA.VDW>
2.3192

>  <SCORE.INTRA.VDW.0>
-3.15072

>  <SCORE.INTRA.norm>
0.254394

>  <SCORE.RESTR>
0

>  <SCORE.RESTR.CAVITY>
0

>  <SCORE.RESTR.norm>
0

>  <SCORE.SYSTEM>
0

>  <SCORE.SYSTEM.CONST>
0

>  <SCORE.SYSTEM.DIHEDRAL>
0

>  <SCORE.SYSTEM.SOLV>
0

>  <SCORE.SYSTEM.norm>
0

>  <SCORE.heavy>
26

>  <SCORE.norm>
0.00442682

>  <RMSD>
11.166

$$$$
ligand
 OpenBabel11021811473D
libRbt.so/2013.1/901 2013/11/27
 26 27  0  0  0  0  0  0  0  0999 V2000
   -1.0318  -14.9770   19.5523 C   0  0  0  0  0  0  0  0  0  0  0  0
   -3.3293  -18.2440   15.8440 C   0  0  0  0  0  0  0  0  0  0  0  0
   -2.9163  -16.9754   16.2375 C   0  0  0  0  0  0  0  0  0  0  0  0
   -2.6407  -16.5947   17.6941 C   0  0  0  0  0  0  0  0  0  0  0  0
   -0.5429  -16.2941   18.9427 C   0  0  1  0  0  0  0  0  0  0  0  0
   -3.5103  -17.7815   12.0644 C   0  0  0  0  0  0  0  0  0  0  0  0
   -3.3112  -17.4970   13.5539 C   0  0  0  0  0  0  0  0  0  0  0  0
   -2.7243  -16.0160   15.2484 C   0  0  0  0  0  0  0  0  0  0  0  0
   -0.7724  -18.1576   17.6551 C   0  0  0  0  0  0  0  0  0  0  0  0
    0.7066  -16.8258   19.2383 C   0  0  2  0  0  0  0  0  0  0  0  0
    1.8217  -16.3175   20.1557 C   0  0  0  0  0  0  0  0  0  0  0  0
    3.1953  -16.8897   19.7979 C   0  0  0  0  0  0  0  0  0  0  0  0
   -3.5309  -18.5167   14.4895 N   0  0  0  0  0  0  0  0  0  0  0  0
   -1.2933  -17.0152   18.1050 N   0  0  0  0  0  0  0  0  0  0  0  0
   -2.9174  -16.2850   13.9706 N   0  0  0  0  0  0  0  0  0  0  0  0
   -3.5140  -19.1265   16.6825 O   0  0  0  0  0  0  0  0  0  0  0  0
    5.0880  -19.0492   18.5121 O   0  5  0  0  0  0  0  0  0  0  0  0
    8.1245  -17.4488   21.7069 O   0  0  0  0  0  0  0  0  0  0  0  0
    3.3227  -18.2561   20.2031 O   0  0  0  0  0  0  0  0  0  0  0  0
    5.8438  -18.1118   20.7569 O   0  0  0  0  0  0  0  0  0  0  0  0
    7.4984  -19.9511   21.5105 O   0  5  0  0  0  0  0  0  0  0  0  0
    4.6669  -20.3976   20.6769 O   0  0  0  0  0  0  0  0  0  0  0  0
    7.9651  -18.5618   19.4033 O   0  0  0  0  0  0  0  0  0  0  0  0
    0.8450  -18.2832   18.2948 S   0  0  0  0  0  0  0  0  0  0  0  0
    4.7220  -19.0436   20.0795 P   0  0  2  0  0  0  0  0  0  0  0  0
    7.3651  -18.6122   20.8941 P   0  0  2  0  0  0  0  0  0  0  0  0
  2 16  2  0  0  0  0
  2  3  1  0  0  0  0
  2 13  1  0  0  0  0
  3  8  2  0  0  0  0
  3  4  1  0  0  0  0
  4 14  1  0  0  0  0
  5  1  1  1  0  0  0
  5 14  1  0  0  0  0
  5 10  1  0  0  0  0
  6  7  1  0  0  0  0
  7 13  1  0  0  0  0
  7 15  2  0  0  0  0
  8 15  1  0  0  0  0
  9 14  1  0  0  0  0
  9 24  1  0  0  0  0
 10 24  1  0  0  0  0
 10 11  1  6  0  0  0
 11 12  1  0  0  0  0
 12 19  1  0  0  0  0
 17 25  1  0  0  0  0
 19 25  1  0  0  0  0
 20 26  1  0  0  0  0
 21 26  1  0  0  0  0
 22 25  2  0  0  0  0
 23 26  2  0  0  0  0
 25 20  1  1  0  0  0
 26 18  1  1  0  0  0
M  CHG  2  17  -1  21  -1
M  END
>  <CHROM.1>
82.07854774,-157.99497331,-74.61748683,144.24199289,-173.60046368,-71.41983601
-61.16583850,-176.09664715,1.73034150,-17.90641338,18.42926480,2.79069366
0.39491887,-2.13322208

>  <Name>
ligand

>  <RI>
0

>  <Rbt.Current_Directory>
/home/itssahil/PROJECTS/Mol_Feturizer/New_Systems/rnas/3D2X

>  <Rbt.Executable>
rbdock ($Id: //depot/dev/client3/rdock/2013.1/src/exe/rbdock.cxx#4 $)

>  <Rbt.Library>
libRbt.so (2013.1, Build901 2013/11/27)

>  <Rbt.Parameter_File>
/export/apps/rDock/src/rDock_2013.1_src/data/scripts/dock_solv.prm

>  <Rbt.Receptor>
prm/blind_docking_60.prm

>  <SCORE>
-19.2242

>  <SCORE.INTER>
-18.8646

>  <SCORE.INTER.CONST>
1

>  <SCORE.INTER.POLAR>
0

>  <SCORE.INTER.ROT>
8

>  <SCORE.INTER.SOLV>
15.8756

>  <SCORE.INTER.VDW>
-26.8016

>  <SCORE.INTER.norm>
-0.725563

>  <SCORE.INTRA>
-0.715746

>  <SCORE.INTRA.DIHEDRAL>
-1.86878

>  <SCORE.INTRA.DIHEDRAL.0>
7.88077

>  <SCORE.INTRA.POLAR>
0

>  <SCORE.INTRA.POLAR.0>
0

>  <SCORE.INTRA.REPUL>
0

>  <SCORE.INTRA.REPUL.0>
0

>  <SCORE.INTRA.SOLV>
0.364523

>  <SCORE.INTRA.SOLV.lig_0>
-63.2542

>  <SCORE.INTRA.VDW>
0.0363828

>  <SCORE.INTRA.VDW.0>
-3.15072

>  <SCORE.INTRA.norm>
-0.0275287

>  <SCORE.RESTR>
0.356221

>  <SCORE.RESTR.CAVITY>
0.356221

>  <SCORE.RESTR.norm>
0.0137008

>  <SCORE.SYSTEM>
0

>  <SCORE.SYSTEM.CONST>
0

>  <SCORE.SYSTEM.DIHEDRAL>
0

>  <SCORE.SYSTEM.SOLV>
0

>  <SCORE.SYSTEM.norm>
0

>  <SCORE.heavy>
26

>  <SCORE.norm>
-0.739391

>  <RMSD>
11.189

$$$$
ligand
 OpenBabel11021811473D
libRbt.so/2013.1/901 2013/11/27
 26 27  0  0  0  0  0  0  0  0999 V2000
   -1.5857  -17.0571   17.6042 C   0  0  0  0  0  0  0  0  0  0  0  0
   -4.3296  -20.0108   15.6523 C   0  0  0  0  0  0  0  0  0  0  0  0
   -3.5433  -19.3403   14.7213 C   0  0  0  0  0  0  0  0  0  0  0  0
   -2.6104  -18.1830   15.0861 C   0  0  0  0  0  0  0  0  0  0  0  0
   -0.8802  -18.1775   16.8344 C   0  0  1  0  0  0  0  0  0  0  0  0
   -5.9854  -22.6210   13.4212 C   0  0  0  0  0  0  0  0  0  0  0  0
   -5.1259  -21.4455   13.8885 C   0  0  0  0  0  0  0  0  0  0  0  0
   -3.5959  -19.7640   13.3972 C   0  0  0  0  0  0  0  0  0  0  0  0
   -0.6792  -19.6675   15.1249 C   0  0  0  0  0  0  0  0  0  0  0  0
    0.3021  -18.7522   17.2851 C   0  0  2  0  0  0  0  0  0  0  0  0
    1.1396  -18.4741   18.5361 C   0  0  0  0  0  0  0  0  0  0  0  0
    2.4426  -19.2762   18.5715 C   0  0  0  0  0  0  0  0  0  0  0  0
   -5.1323  -21.0765   15.2402 N   0  0  0  0  0  0  0  0  0  0  0  0
   -1.3672  -18.6774   15.6952 N   0  0  0  0  0  0  0  0  0  0  0  0
   -4.3581  -20.7732   13.0188 N   0  0  0  0  0  0  0  0  0  0  0  0
   -4.3182  -19.6720   16.8359 O   0  0  0  0  0  0  0  0  0  0  0  0
    2.7612  -16.7249   20.8324 O   0  5  0  0  0  0  0  0  0  0  0  0
    7.5181  -18.2066   21.6206 O   0  0  0  0  0  0  0  0  0  0  0  0
    3.1883  -19.0240   19.7665 O   0  0  0  0  0  0  0  0  0  0  0  0
    5.0365  -17.8324   21.1258 O   0  0  0  0  0  0  0  0  0  0  0  0
    5.9941  -20.2348   21.1148 O   0  5  0  0  0  0  0  0  0  0  0  0
    4.3569  -16.9414   18.8104 O   0  0  0  0  0  0  0  0  0  0  0  0
    6.6085  -18.5781   19.2530 O   0  0  0  0  0  0  0  0  0  0  0  0
    0.7533  -19.9297   16.0839 S   0  0  0  0  0  0  0  0  0  0  0  0
    3.8677  -17.5914   20.0479 P   0  0  2  0  0  0  0  0  0  0  0  0
    6.2690  -18.8135   20.8069 P   0  0  2  0  0  0  0  0  0  0  0  0
  2 16  2  0  0  0  0
  2  3  1  0  0  0  0
  2 13  1  0  0  0  0
  3  8  2  0  0  0  0
  3  4  1  0  0  0  0
  4 14  1  0  0  0  0
  5  1  1  1  0  0  0
  5 14  1  0  0  0  0
  5 10  1  0  0  0  0
  6  7  1  0  0  0  0
  7 13  1  0  0  0  0
  7 15  2  0  0  0  0
  8 15  1  0  0  0  0
  9 14  1  0  0  0  0
  9 24  1  0  0  0  0
 10 24  1  0  0  0  0
 10 11  1  6  0  0  0
 11 12  1  0  0  0  0
 12 19  1  0  0  0  0
 17 25  1  0  0  0  0
 19 25  1  0  0  0  0
 20 26  1  0  0  0  0
 21 26  1  0  0  0  0
 22 25  2  0  0  0  0
 23 26  2  0  0  0  0
 25 20  1  1  0  0  0
 26 18  1  1  0  0  0
M  CHG  2  17  -1  21  -1
M  END
>  <CHROM.1>
78.22108547,-175.24212281,-178.47026948,-130.87031251,-67.99743530,172.54028803
90.02641361,149.23463666,0.87981127,-19.03197932,17.67753889,2.69810655,0.38729168
-2.56990036

>  <Name>
ligand

>  <RI>
0

>  <Rbt.Current_Directory>
/home/itssahil/PROJECTS/Mol_Feturizer/New_Systems/rnas/3D2X

>  <Rbt.Executable>
rbdock ($Id: //depot/dev/client3/rdock/2013.1/src/exe/rbdock.cxx#4 $)

>  <Rbt.Library>
libRbt.so (2013.1, Build901 2013/11/27)

>  <Rbt.Parameter_File>
/export/apps/rDock/src/rDock_2013.1_src/data/scripts/dock_solv.prm

>  <Rbt.Receptor>
prm/blind_docking_100.prm

>  <SCORE>
-18.0235

>  <SCORE.INTER>
-18.3826

>  <SCORE.INTER.CONST>
1

>  <SCORE.INTER.POLAR>
0

>  <SCORE.INTER.ROT>
8

>  <SCORE.INTER.SOLV>
19.402

>  <SCORE.INTER.VDW>
-27.6557

>  <SCORE.INTER.norm>
-0.707022

>  <SCORE.INTRA>
0.338085

>  <SCORE.INTRA.DIHEDRAL>
-1.07498

>  <SCORE.INTRA.DIHEDRAL.0>
7.88077

>  <SCORE.INTRA.POLAR>
0

>  <SCORE.INTRA.POLAR.0>
0

>  <SCORE.INTRA.REPUL>
0

>  <SCORE.INTRA.REPUL.0>
0

>  <SCORE.INTRA.SOLV>
0.956073

>  <SCORE.INTRA.SOLV.lig_0>
-63.2542

>  <SCORE.INTRA.VDW>
0.397539

>  <SCORE.INTRA.VDW.0>
-3.15072

>  <SCORE.INTRA.norm>
0.0130033

>  <SCORE.RESTR>
0.0210152

>  <SCORE.RESTR.CAVITY>
0.0210152

>  <SCORE.RESTR.norm>
0.000808277

>  <SCORE.SYSTEM>
0

>  <SCORE.SYSTEM.CONST>
0

>  <SCORE.SYSTEM.DIHEDRAL>
0

>  <SCORE.SYSTEM.SOLV>
0

>  <SCORE.SYSTEM.norm>
0

>  <SCORE.heavy>
26

>  <SCORE.norm>
-0.69321

>  <RMSD>
11.199

$$$$
ligand
 OpenBabel11021811473D
libRbt.so/2013.1/901 2013/11/27
 26 27  0  0  0  0  0  0  0  0999 V2000
    0.6916  -18.7010   17.4740 C   0  0  0  0  0  0  0  0  0  0  0  0
    4.3958  -20.5491   20.1979 C   0  0  0  0  0  0  0  0  0  0  0  0
    4.1641  -19.2065   19.9176 C   0  0  0  0  0  0  0  0  0  0  0  0
    3.3648  -18.7266   18.7038 C   0  0  0  0  0  0  0  0  0  0  0  0
    1.1344  -17.7015   18.5466 C   0  0  1  0  0  0  0  0  0  0  0  0
    6.3528  -20.2570   23.4564 C   0  0  0  0  0  0  0  0  0  0  0  0
    5.5820  -19.8885   22.1879 C   0  0  0  0  0  0  0  0  0  0  0  0
    4.6683  -18.2589   20.8026 C   0  0  0  0  0  0  0  0  0  0  0  0
    2.6180  -16.8294   20.0371 C   0  0  0  0  0  0  0  0  0  0  0  0
    0.2882  -16.7081   19.0248 C   0  0  2  0  0  0  0  0  0  0  0  0
   -1.1616  -16.3686   18.6694 C   0  0  0  0  0  0  0  0  0  0  0  0
   -1.3212  -15.8662   17.2326 C   0  0  0  0  0  0  0  0  0  0  0  0
    5.1112  -20.9030   21.3437 N   0  0  0  0  0  0  0  0  0  0  0  0
    2.3520  -17.7356   19.0953 N   0  0  0  0  0  0  0  0  0  0  0  0
    5.3429  -18.6048   21.8832 N   0  0  0  0  0  0  0  0  0  0  0  0
    3.9709  -21.4248   19.4440 O   0  0  0  0  0  0  0  0  0  0  0  0
   -4.1862  -17.3164   18.2066 O   0  5  0  0  0  0  0  0  0  0  0  0
   -6.4089  -15.5708   14.0045 O   0  0  0  0  0  0  0  0  0  0  0  0
   -2.6975  -15.6948   16.8804 O   0  0  0  0  0  0  0  0  0  0  0  0
   -5.0051  -16.4193   15.9673 O   0  0  0  0  0  0  0  0  0  0  0  0
   -4.2364  -14.3268   14.6563 O   0  5  0  0  0  0  0  0  0  0  0  0
   -3.0516  -18.0921   16.0174 O   0  0  0  0  0  0  0  0  0  0  0  0
   -4.1248  -16.6538   13.5789 O   0  0  0  0  0  0  0  0  0  0  0  0
    1.2206  -15.7960   20.1787 S   0  0  0  0  0  0  0  0  0  0  0  0
   -3.6882  -16.9541   16.7195 P   0  0  2  0  0  0  0  0  0  0  0  0
   -4.9009  -15.6459   14.5622 P   0  0  2  0  0  0  0  0  0  0  0  0
  2 16  2  0  0  0  0
  2  3  1  0  0  0  0
  2 13  1  0  0  0  0
  3  8  2  0  0  0  0
  3  4  1  0  0  0  0
  4 14  1  0  0  0  0
  5  1  1  1  0  0  0
  5 14  1  0  0  0  0
  5 10  1  0  0  0  0
  6  7  1  0  0  0  0
  7 13  1  0  0  0  0
  7 15  2  0  0  0  0
  8 15  1  0  0  0  0
  9 14  1  0  0  0  0
  9 24  1  0  0  0  0
 10 24  1  0  0  0  0
 10 11  1  6  0  0  0
 11 12  1  0  0  0  0
 12 19  1  0  0  0  0
 17 25  1  0  0  0  0
 19 25  1  0  0  0  0
 20 26  1  0  0  0  0
 21 26  1  0  0  0  0
 22 25  2  0  0  0  0
 23 26  2  0  0  0  0
 25 20  1  6  0  0  0
 26 18  1  6  0  0  0
M  CHG  2  17  -1  21  -1
M  END
>  <CHROM.1>
131.25423655,-66.25368404,173.67911701,-141.53847906,-68.32530504,166.33753367
82.99463579,168.07598802,-0.15852030,-17.45991683,18.13259294,0.02437056
0.63197181,-2.65343573

>  <Name>
ligand

>  <RI>
0

>  <Rbt.Current_Directory>
/home/itssahil/PROJECTS/Mol_Feturizer/New_Systems/rnas/3D2X

>  <Rbt.Executable>
rbdock ($Id: //depot/dev/client3/rdock/2013.1/src/exe/rbdock.cxx#4 $)

>  <Rbt.Library>
libRbt.so (2013.1, Build901 2013/11/27)

>  <Rbt.Parameter_File>
/export/apps/rDock/src/rDock_2013.1_src/data/scripts/dock_solv.prm

>  <Rbt.Receptor>
prm/blind_docking_40.prm

>  <SCORE>
-16.9081

>  <SCORE.INTER>
-18.2566

>  <SCORE.INTER.CONST>
1

>  <SCORE.INTER.POLAR>
0

>  <SCORE.INTER.ROT>
8

>  <SCORE.INTER.SOLV>
14.9081

>  <SCORE.INTER.VDW>
-26.0737

>  <SCORE.INTER.norm>
-0.702175

>  <SCORE.INTRA>
0.979954

>  <SCORE.INTRA.DIHEDRAL>
-1.98304

>  <SCORE.INTRA.DIHEDRAL.0>
7.88077

>  <SCORE.INTRA.POLAR>
0

>  <SCORE.INTRA.POLAR.0>
0

>  <SCORE.INTRA.REPUL>
0

>  <SCORE.INTRA.REPUL.0>
0

>  <SCORE.INTRA.SOLV>
1.01386

>  <SCORE.INTRA.SOLV.lig_0>
-63.2542

>  <SCORE.INTRA.VDW>
1.46454

>  <SCORE.INTRA.VDW.0>
-3.15072

>  <SCORE.INTRA.norm>
0.0376906

>  <SCORE.RESTR>
0.368505

>  <SCORE.RESTR.CAVITY>
0.368505

>  <SCORE.RESTR.norm>
0.0141733

>  <SCORE.SYSTEM>
0

>  <SCORE.SYSTEM.CONST>
0

>  <SCORE.SYSTEM.DIHEDRAL>
0

>  <SCORE.SYSTEM.SOLV>
0

>  <SCORE.SYSTEM.norm>
0

>  <SCORE.heavy>
26

>  <SCORE.norm>
-0.650311

>  <RMSD>
11.213

$$$$
ligand
 OpenBabel11021811473D
libRbt.so/2013.1/901 2013/11/27
 26 27  0  0  0  0  0  0  0  0999 V2000
   -2.3453  -16.3407   18.0873 C   0  0  0  0  0  0  0  0  0  0  0  0
   -4.6050  -20.3687   15.3597 C   0  0  0  0  0  0  0  0  0  0  0  0
   -3.8746  -19.2253   15.0533 C   0  0  0  0  0  0  0  0  0  0  0  0
   -3.5119  -18.1568   16.0873 C   0  0  0  0  0  0  0  0  0  0  0  0
   -1.5723  -17.4987   17.4493 C   0  0  1  0  0  0  0  0  0  0  0  0
   -4.6502  -22.1023   11.9648 C   0  0  0  0  0  0  0  0  0  0  0  0
   -4.3867  -21.0752   13.0670 C   0  0  0  0  0  0  0  0  0  0  0  0
   -3.4355  -19.0634   13.7431 C   0  0  0  0  0  0  0  0  0  0  0  0
   -1.3623  -19.3031   16.0770 C   0  0  0  0  0  0  0  0  0  0  0  0
   -0.2531  -17.7793   17.7845 C   0  0  2  0  0  0  0  0  0  0  0  0
    0.6962  -17.1014   18.7758 C   0  0  0  0  0  0  0  0  0  0  0  0
    1.9279  -17.9508   19.0978 C   0  0  0  0  0  0  0  0  0  0  0  0
   -4.8682  -21.3094   14.3619 N   0  0  0  0  0  0  0  0  0  0  0  0
   -2.1245  -18.3145   16.5469 N   0  0  0  0  0  0  0  0  0  0  0  0
   -3.6897  -19.9596   12.8078 N   0  0  0  0  0  0  0  0  0  0  0  0
   -5.0165  -20.5562   16.5048 O   0  0  0  0  0  0  0  0  0  0  0  0
    4.2614  -17.6949   22.1090 O   0  5  0  0  0  0  0  0  0  0  0  0
    4.6151  -22.0377   20.1955 O   0  0  0  0  0  0  0  0  0  0  0  0
    2.7875  -17.3028   20.0406 O   0  0  0  0  0  0  0  0  0  0  0  0
    3.9687  -19.5722   20.4120 O   0  0  0  0  0  0  0  0  0  0  0  0
    6.2395  -20.2099   19.3512 O   0  5  0  0  0  0  0  0  0  0  0  0
    5.3383  -17.4923   19.7679 O   0  0  0  0  0  0  0  0  0  0  0  0
    5.8404  -20.5288   21.8666 O   0  0  0  0  0  0  0  0  0  0  0  0
    0.2194  -19.1290   16.7903 S   0  0  0  0  0  0  0  0  0  0  0  0
    4.1646  -17.9803   20.5279 P   0  0  2  0  0  0  0  0  0  0  0  0
    5.2338  -20.5630   20.3780 P   0  0  2  0  0  0  0  0  0  0  0  0
  2 16  2  0  0  0  0
  2  3  1  0  0  0  0
  2 13  1  0  0  0  0
  3  8  2  0  0  0  0
  3  4  1  0  0  0  0
  4 14  1  0  0  0  0
  5  1  1  1  0  0  0
  5 14  1  0  0  0  0
  5 10  1  0  0  0  0
  6  7  1  0  0  0  0
  7 13  1  0  0  0  0
  7 15  2  0  0  0  0
  8 15  1  0  0  0  0
  9 14  1  0  0  0  0
  9 24  1  0  0  0  0
 10 24  1  0  0  0  0
 10 11  1  6  0  0  0
 11 12  1  0  0  0  0
 12 19  1  0  0  0  0
 17 25  1  0  0  0  0
 19 25  1  0  0  0  0
 20 26  1  0  0  0  0
 21 26  1  0  0  0  0
 22 25  2  0  0  0  0
 23 26  2  0  0  0  0
 25 20  1  6  0  0  0
 26 18  1  6  0  0  0
M  CHG  2  17  -1  21  -1
M  END
>  <CHROM.1>
100.40757772,164.85203181,-179.14910564,179.85595130,-179.05554572,-86.67411906
-139.16262017,-177.67539589,0.58379173,-19.19210908,17.83184624,2.80405133
0.51539787,-2.64572155

>  <Name>
ligand

>  <RI>
0

>  <Rbt.Current_Directory>
/home/itssahil/PROJECTS/Mol_Feturizer/New_Systems/rnas/3D2X

>  <Rbt.Executable>
rbdock ($Id: //depot/dev/client3/rdock/2013.1/src/exe/rbdock.cxx#4 $)

>  <Rbt.Library>
libRbt.so (2013.1, Build901 2013/11/27)

>  <Rbt.Parameter_File>
/export/apps/rDock/src/rDock_2013.1_src/data/scripts/dock_solv.prm

>  <Rbt.Receptor>
prm/blind_docking_40.prm

>  <SCORE>
-15.7405

>  <SCORE.INTER>
-16.6363

>  <SCORE.INTER.CONST>
1

>  <SCORE.INTER.POLAR>
0

>  <SCORE.INTER.ROT>
8

>  <SCORE.INTER.SOLV>
19.7306

>  <SCORE.INTER.VDW>
-26.6011

>  <SCORE.INTER.norm>
-0.639858

>  <SCORE.INTRA>
0.862566

>  <SCORE.INTRA.DIHEDRAL>
-0.863667

>  <SCORE.INTRA.DIHEDRAL.0>
7.88077

>  <SCORE.INTRA.POLAR>
0

>  <SCORE.INTRA.POLAR.0>
0

>  <SCORE.INTRA.REPUL>
0

>  <SCORE.INTRA.REPUL.0>
0

>  <SCORE.INTRA.SOLV>
0.0634551

>  <SCORE.INTRA.SOLV.lig_0>
-63.2542

>  <SCORE.INTRA.VDW>
1.26267

>  <SCORE.INTRA.VDW.0>
-3.15072

>  <SCORE.INTRA.norm>
0.0331756

>  <SCORE.RESTR>
0.0332947

>  <SCORE.RESTR.CAVITY>
0.0332947

>  <SCORE.RESTR.norm>
0.00128056

>  <SCORE.SYSTEM>
0

>  <SCORE.SYSTEM.CONST>
0

>  <SCORE.SYSTEM.DIHEDRAL>
0

>  <SCORE.SYSTEM.SOLV>
0

>  <SCORE.SYSTEM.norm>
0

>  <SCORE.heavy>
26

>  <SCORE.norm>
-0.605402

>  <RMSD>
11.229

$$$$
ligand
 OpenBabel11021811473D
libRbt.so/2013.1/901 2013/11/27
 26 27  0  0  0  0  0  0  0  0999 V2000
    0.3103  -20.4229   16.8852 C   0  0  0  0  0  0  0  0  0  0  0  0
   -4.5278  -17.9195   16.3622 C   0  0  0  0  0  0  0  0  0  0  0  0
   -3.2761  -18.0775   15.7766 C   0  0  0  0  0  0  0  0  0  0  0  0
   -2.2403  -19.0922   16.2668 C   0  0  0  0  0  0  0  0  0  0  0  0
   -0.0635  -19.0337   17.4106 C   0  0  1  0  0  0  0  0  0  0  0  0
   -6.0160  -15.2215   14.1174 C   0  0  0  0  0  0  0  0  0  0  0  0
   -5.0397  -16.2328   14.7201 C   0  0  0  0  0  0  0  0  0  0  0  0
   -2.9661  -17.2852   14.6759 C   0  0  0  0  0  0  0  0  0  0  0  0
   -1.4325  -17.2253   17.6073 C   0  0  0  0  0  0  0  0  0  0  0  0
    0.7930  -18.2943   18.2175 C   0  0  2  0  0  0  0  0  0  0  0  0
    2.1947  -18.6091   18.7460 C   0  0  0  0  0  0  0  0  0  0  0  0
    2.7062  -17.5631   19.7393 C   0  0  0  0  0  0  0  0  0  0  0  0
   -5.4259  -16.9896   15.8343 N   0  0  0  0  0  0  0  0  0  0  0  0
   -1.2257  -18.4463   17.1120 N   0  0  0  0  0  0  0  0  0  0  0  0
   -3.8232  -16.4095   14.1848 N   0  0  0  0  0  0  0  0  0  0  0  0
   -4.8480  -18.5968   17.3392 O   0  0  0  0  0  0  0  0  0  0  0  0
    5.0321  -19.6782   18.9399 O   0  5  0  0  0  0  0  0  0  0  0  0
    7.6549  -20.2280   19.3958 O   0  0  0  0  0  0  0  0  0  0  0  0
    4.1210  -17.3771   19.6323 O   0  0  0  0  0  0  0  0  0  0  0  0
    6.6351  -17.9305   19.8701 O   0  0  0  0  0  0  0  0  0  0  0  0
    9.2050  -18.1841   19.7303 O   0  5  0  0  0  0  0  0  0  0  0  0
    4.9163  -19.0269   21.4387 O   0  0  0  0  0  0  0  0  0  0  0  0
    7.9045  -19.1638   21.7145 O   0  0  0  0  0  0  0  0  0  0  0  0
   -0.0585  -16.8249   18.6036 S   0  0  0  0  0  0  0  0  0  0  0  0
    5.1565  -18.5325   20.0634 P   0  0  2  0  0  0  0  0  0  0  0  0
    7.9388  -18.8303   20.1420 P   0  0  2  0  0  0  0  0  0  0  0  0
  2 16  2  0  0  0  0
  2  3  1  0  0  0  0
  2 13  1  0  0  0  0
  3  8  2  0  0  0  0
  3  4  1  0  0  0  0
  4 14  1  0  0  0  0
  5  1  1  6  0  0  0
  5 14  1  0  0  0  0
  5 10  1  0  0  0  0
  6  7  1  0  0  0  0
  7 13  1  0  0  0  0
  7 15  2  0  0  0  0
  8 15  1  0  0  0  0
  9 14  1  0  0  0  0
  9 24  1  0  0  0  0
 10 24  1  0  0  0  0
 10 11  1  1  0  0  0
 11 12  1  0  0  0  0
 12 19  1  0  0  0  0
 17 25  1  0  0  0  0
 19 25  1  0  0  0  0
 20 26  1  0  0  0  0
 21 26  1  0  0  0  0
 22 25  2  0  0  0  0
 23 26  2  0  0  0  0
 25 20  1  6  0  0  0
 26 18  1  6  0  0  0
M  CHG  2  17  -1  21  -1
M  END
>  <CHROM.1>
-99.70280405,-173.45824844,-145.91129281,-164.43347105,-68.09261478,-65.12716770
71.51218034,46.56150890,1.57083237,-18.14874808,18.18774810,2.99521042,-0.38290767
-0.03778987

>  <Name>
ligand

>  <RI>
0

>  <Rbt.Current_Directory>
/home/itssahil/PROJECTS/Mol_Feturizer/New_Systems/rnas/3D2X

>  <Rbt.Executable>
rbdock ($Id: //depot/dev/client3/rdock/2013.1/src/exe/rbdock.cxx#4 $)

>  <Rbt.Library>
libRbt.so (2013.1, Build901 2013/11/27)

>  <Rbt.Parameter_File>
/export/apps/rDock/src/rDock_2013.1_src/data/scripts/dock_solv.prm

>  <Rbt.Receptor>
prm/blind_docking_100.prm

>  <SCORE>
-20.5362

>  <SCORE.INTER>
-22.3854

>  <SCORE.INTER.CONST>
1

>  <SCORE.INTER.POLAR>
0

>  <SCORE.INTER.ROT>
8

>  <SCORE.INTER.SOLV>
15.9448

>  <SCORE.INTER.VDW>
-29.1719

>  <SCORE.INTER.norm>
-0.860978

>  <SCORE.INTRA>
1.84925

>  <SCORE.INTRA.DIHEDRAL>
0.703894

>  <SCORE.INTRA.DIHEDRAL.0>
7.88077

>  <SCORE.INTRA.POLAR>
0

>  <SCORE.INTRA.POLAR.0>
0

>  <SCORE.INTRA.REPUL>
0

>  <SCORE.INTRA.REPUL.0>
0

>  <SCORE.INTRA.SOLV>
0.360625

>  <SCORE.INTRA.SOLV.lig_0>
-63.2542

>  <SCORE.INTRA.VDW>
1.31699

>  <SCORE.INTRA.VDW.0>
-3.15072

>  <SCORE.INTRA.norm>
0.0711251

>  <SCORE.RESTR>
0

>  <SCORE.RESTR.CAVITY>
0

>  <SCORE.RESTR.norm>
0

>  <SCORE.SYSTEM>
0

>  <SCORE.SYSTEM.CONST>
0

>  <SCORE.SYSTEM.DIHEDRAL>
0

>  <SCORE.SYSTEM.SOLV>
0

>  <SCORE.SYSTEM.norm>
0

>  <SCORE.heavy>
26

>  <SCORE.norm>
-0.789853

>  <RMSD>
11.246

$$$$
ligand
 OpenBabel11021811473D
libRbt.so/2013.1/901 2013/11/27
 26 27  0  0  0  0  0  0  0  0999 V2000
    0.4195  -20.2677   16.9721 C   0  0  0  0  0  0  0  0  0  0  0  0
   -4.2734  -17.9712   15.9474 C   0  0  0  0  0  0  0  0  0  0  0  0
   -3.0128  -17.9265   15.3612 C   0  0  0  0  0  0  0  0  0  0  0  0
   -1.8608  -18.8463   15.7727 C   0  0  0  0  0  0  0  0  0  0  0  0
    0.0143  -18.8438   17.3646 C   0  0  1  0  0  0  0  0  0  0  0  0
   -6.0819  -15.2925   13.9260 C   0  0  0  0  0  0  0  0  0  0  0  0
   -4.9891  -16.2257   14.4494 C   0  0  0  0  0  0  0  0  0  0  0  0
   -2.8032  -17.0119   14.3340 C   0  0  0  0  0  0  0  0  0  0  0  0
   -1.2669  -16.9685   17.2066 C   0  0  0  0  0  0  0  0  0  0  0  0
    0.7123  -18.1141   18.3194 C   0  0  2  0  0  0  0  0  0  0  0  0
    1.9464  -18.4723   19.1513 C   0  0  0  0  0  0  0  0  0  0  0  0
    2.6191  -17.2484   19.7773 C   0  0  0  0  0  0  0  0  0  0  0  0
   -5.2786  -17.1154   15.4924 N   0  0  0  0  0  0  0  0  0  0  0  0
   -1.0221  -18.2158   16.8022 N   0  0  0  0  0  0  0  0  0  0  0  0
   -3.7611  -16.2079   13.9114 N   0  0  0  0  0  0  0  0  0  0  0  0
   -4.5074  -18.7627   16.8610 O   0  0  0  0  0  0  0  0  0  0  0  0
    5.0840  -18.1752   18.6145 O   0  5  0  0  0  0  0  0  0  0  0  0
    8.6399  -17.5946   21.7085 O   0  0  0  0  0  0  0  0  0  0  0  0
    3.6625  -17.6217   20.6827 O   0  0  0  0  0  0  0  0  0  0  0  0
    6.2370  -17.7849   20.8523 O   0  0  0  0  0  0  0  0  0  0  0  0
    7.6379  -19.9282   21.2162 O   0  5  0  0  0  0  0  0  0  0  0  0
    4.8267  -19.9094   20.5140 O   0  0  0  0  0  0  0  0  0  0  0  0
    8.1894  -18.3216   19.2920 O   0  0  0  0  0  0  0  0  0  0  0  0
   -0.1239  -16.5937   18.4690 S   0  0  0  0  0  0  0  0  0  0  0  0
    4.9406  -18.4686   20.1905 P   0  0  2  0  0  0  0  0  0  0  0  0
    7.6719  -18.5075   20.8029 P   0  0  2  0  0  0  0  0  0  0  0  0
  2 16  2  0  0  0  0
  2  3  1  0  0  0  0
  2 13  1  0  0  0  0
  3  8  2  0  0  0  0
  3  4  1  0  0  0  0
  4 14  1  0  0  0  0
  5  1  1  6  0  0  0
  5 14  1  0  0  0  0
  5 10  1  0  0  0  0
  6  7  1  0  0  0  0
  7 13  1  0  0  0  0
  7 15  2  0  0  0  0
  8 15  1  0  0  0  0
  9 14  1  0  0  0  0
  9 24  1  0  0  0  0
 10 24  1  0  0  0  0
 10 11  1  1  0  0  0
 11 12  1  0  0  0  0
 12 19  1  0  0  0  0
 17 25  1  0  0  0  0
 19 25  1  0  0  0  0
 20 26  1  0  0  0  0
 21 26  1  0  0  0  0
 22 25  2  0  0  0  0
 23 26  2  0  0  0  0
 25 20  1  1  0  0  0
 26 18  1  1  0  0  0
M  CHG  2  17  -1  21  -1
M  END
>  <CHROM.1>
-92.79263577,163.33224845,172.60751903,177.09122780,60.45631846,-78.96899410
24.62788829,-173.63323208,1.54019777,-17.95789060,18.21217483,2.98862661
-0.44570634,-0.09425712

>  <Name>
ligand

>  <RI>
0

>  <Rbt.Current_Directory>
/home/itssahil/PROJECTS/Mol_Feturizer/New_Systems/rnas/3D2X

>  <Rbt.Executable>
rbdock ($Id: //depot/dev/client3/rdock/2013.1/src/exe/rbdock.cxx#4 $)

>  <Rbt.Library>
libRbt.so (2013.1, Build901 2013/11/27)

>  <Rbt.Parameter_File>
/export/apps/rDock/src/rDock_2013.1_src/data/scripts/dock_solv.prm

>  <Rbt.Receptor>
prm/blind_docking_100.prm

>  <SCORE>
-20.3942

>  <SCORE.INTER>
-22.5417

>  <SCORE.INTER.CONST>
1

>  <SCORE.INTER.POLAR>
0

>  <SCORE.INTER.ROT>
8

>  <SCORE.INTER.SOLV>
16.1478

>  <SCORE.INTER.VDW>
-29.3437

>  <SCORE.INTER.norm>
-0.866988

>  <SCORE.INTRA>
2.14744

>  <SCORE.INTRA.DIHEDRAL>
-0.655751

>  <SCORE.INTRA.DIHEDRAL.0>
7.88077

>  <SCORE.INTRA.POLAR>
0

>  <SCORE.INTRA.POLAR.0>
0

>  <SCORE.INTRA.REPUL>
0

>  <SCORE.INTRA.REPUL.0>
0

>  <SCORE.INTRA.SOLV>
1.80968

>  <SCORE.INTRA.SOLV.lig_0>
-63.2542

>  <SCORE.INTRA.VDW>
1.57047

>  <SCORE.INTRA.VDW.0>
-3.15072

>  <SCORE.INTRA.norm>
0.0825939

>  <SCORE.RESTR>
0

>  <SCORE.RESTR.CAVITY>
0

>  <SCORE.RESTR.norm>
0

>  <SCORE.SYSTEM>
0

>  <SCORE.SYSTEM.CONST>
0

>  <SCORE.SYSTEM.DIHEDRAL>
0

>  <SCORE.SYSTEM.SOLV>
0

>  <SCORE.SYSTEM.norm>
0

>  <SCORE.heavy>
26

>  <SCORE.norm>
-0.784394

>  <RMSD>
11.256

$$$$
ligand
 OpenBabel11021811473D
libRbt.so/2013.1/901 2013/11/27
 26 27  0  0  0  0  0  0  0  0999 V2000
   -1.8073  -17.1519   17.2330 C   0  0  0  0  0  0  0  0  0  0  0  0
   -4.2035  -20.3993   15.0930 C   0  0  0  0  0  0  0  0  0  0  0  0
   -3.8618  -19.0639   15.2796 C   0  0  0  0  0  0  0  0  0  0  0  0
   -2.5929  -18.4319   14.7025 C   0  0  0  0  0  0  0  0  0  0  0  0
   -1.0216  -18.2987   16.5903 C   0  0  1  0  0  0  0  0  0  0  0  0
   -7.5412  -20.5321   16.9300 C   0  0  0  0  0  0  0  0  0  0  0  0
   -6.2233  -20.0175   16.3491 C   0  0  0  0  0  0  0  0  0  0  0  0
   -4.7344  -18.2632   16.0097 C   0  0  0  0  0  0  0  0  0  0  0  0
   -0.6514  -19.8751   14.9900 C   0  0  0  0  0  0  0  0  0  0  0  0
    0.1251  -18.8255   17.1724 C   0  0  2  0  0  0  0  0  0  0  0  0
    0.8465  -18.4642   18.4734 C   0  0  0  0  0  0  0  0  0  0  0  0
    2.2830  -18.9896   18.5242 C   0  0  0  0  0  0  0  0  0  0  0  0
   -5.3956  -20.8898   15.6297 N   0  0  0  0  0  0  0  0  0  0  0  0
   -1.4004  -18.8687   15.4430 N   0  0  0  0  0  0  0  0  0  0  0  0
   -5.8592  -18.7375   16.5122 N   0  0  0  0  0  0  0  0  0  0  0  0
   -3.4629  -21.1480   14.4552 O   0  0  0  0  0  0  0  0  0  0  0  0
    4.8411  -18.3835   21.4544 O   0  5  0  0  0  0  0  0  0  0  0  0
    6.7958  -21.1661   19.3816 O   0  0  0  0  0  0  0  0  0  0  0  0
    2.9518  -18.5903   19.7246 O   0  0  0  0  0  0  0  0  0  0  0  0
    4.4652  -20.6118   20.2784 O   0  0  0  0  0  0  0  0  0  0  0  0
    6.4122  -21.0039   21.9348 O   0  5  0  0  0  0  0  0  0  0  0  0
    5.4022  -18.6233   18.9426 O   0  0  0  0  0  0  0  0  0  0  0  0
    5.4252  -22.9594   20.5968 O   0  0  0  0  0  0  0  0  0  0  0  0
    0.6959  -20.0576   16.0819 S   0  0  0  0  0  0  0  0  0  0  0  0
    4.4734  -19.0239   20.0243 P   0  0  2  0  0  0  0  0  0  0  0  0
    5.8183  -21.4009   20.6386 P   0  0  2  0  0  0  0  0  0  0  0  0
  2 16  2  0  0  0  0
  2  3  1  0  0  0  0
  2 13  1  0  0  0  0
  3  8  2  0  0  0  0
  3  4  1  0  0  0  0
  4 14  1  0  0  0  0
  5  1  1  1  0  0  0
  5 14  1  0  0  0  0
  5 10  1  0  0  0  0
  6  7  1  0  0  0  0
  7 13  1  0  0  0  0
  7 15  2  0  0  0  0
  8 15  1  0  0  0  0
  9 14  1  0  0  0  0
  9 24  1  0  0  0  0
 10 24  1  0  0  0  0
 10 11  1  6  0  0  0
 11 12  1  0  0  0  0
 12 19  1  0  0  0  0
 17 25  1  0  0  0  0
 19 25  1  0  0  0  0
 20 26  1  0  0  0  0
 21 26  1  0  0  0  0
 22 25  2  0  0  0  0
 23 26  2  0  0  0  0
 25 20  1  1  0  0  0
 26 18  1  6  0  0  0
M  CHG  2  17  -1  21  -1
M  END
>  <CHROM.1>
-73.89025678,-162.44567492,177.54198642,-82.31674279,179.59319649,-66.76035030
-179.87032780,-60.47759282,0.73528949,-19.70981394,17.91228627,-3.06252064
0.43890222,3.12652012

>  <Name>
ligand

>  <RI>
0

>  <Rbt.Current_Directory>
/home/itssahil/PROJECTS/Mol_Feturizer/New_Systems/rnas/3D2X

>  <Rbt.Executable>
rbdock ($Id: //depot/dev/client3/rdock/2013.1/src/exe/rbdock.cxx#4 $)

>  <Rbt.Library>
libRbt.so (2013.1, Build901 2013/11/27)

>  <Rbt.Parameter_File>
/export/apps/rDock/src/rDock_2013.1_src/data/scripts/dock_solv.prm

>  <Rbt.Receptor>
prm/blind_docking_100.prm

>  <SCORE>
-23.5022

>  <SCORE.INTER>
-21.2477

>  <SCORE.INTER.CONST>
1

>  <SCORE.INTER.POLAR>
0

>  <SCORE.INTER.ROT>
8

>  <SCORE.INTER.SOLV>
12.497

>  <SCORE.INTER.VDW>
-27.2641

>  <SCORE.INTER.norm>
-0.817217

>  <SCORE.INTRA>
-2.25456

>  <SCORE.INTRA.DIHEDRAL>
-2.98886

>  <SCORE.INTRA.DIHEDRAL.0>
7.88077

>  <SCORE.INTRA.POLAR>
0

>  <SCORE.INTRA.POLAR.0>
0

>  <SCORE.INTRA.REPUL>
0

>  <SCORE.INTRA.REPUL.0>
0

>  <SCORE.INTRA.SOLV>
-1.46507

>  <SCORE.INTRA.SOLV.lig_0>
-63.2542

>  <SCORE.INTRA.VDW>
-0.0275916

>  <SCORE.INTRA.VDW.0>
-3.15072

>  <SCORE.INTRA.norm>
-0.0867137

>  <SCORE.RESTR>
0

>  <SCORE.RESTR.CAVITY>
0

>  <SCORE.RESTR.norm>
0

>  <SCORE.SYSTEM>
0

>  <SCORE.SYSTEM.CONST>
0

>  <SCORE.SYSTEM.DIHEDRAL>
0

>  <SCORE.SYSTEM.SOLV>
0

>  <SCORE.SYSTEM.norm>
0

>  <SCORE.heavy>
26

>  <SCORE.norm>
-0.903931

>  <RMSD>
11.269

$$$$
ligand
 OpenBabel11021811473D
libRbt.so/2013.1/901 2013/11/27
 26 27  0  0  0  0  0  0  0  0999 V2000
    0.3284  -22.1536   18.4957 C   0  0  0  0  0  0  0  0  0  0  0  0
    2.3344  -17.5670   19.5817 C   0  0  0  0  0  0  0  0  0  0  0  0
    1.4702  -18.2613   18.7415 C   0  0  0  0  0  0  0  0  0  0  0  0
    1.7999  -19.6301   18.1412 C   0  0  0  0  0  0  0  0  0  0  0  0
    0.0880  -21.1963   17.3246 C   0  0  1  0  0  0  0  0  0  0  0  0
    0.2293  -14.4859   20.3611 C   0  0  0  0  0  0  0  0  0  0  0  0
    0.6817  -15.8254   19.7780 C   0  0  0  0  0  0  0  0  0  0  0  0
    0.2362  -17.6861   18.4555 C   0  0  0  0  0  0  0  0  0  0  0  0
    0.4538  -19.2869   16.1399 C   0  0  0  0  0  0  0  0  0  0  0  0
   -0.8613  -21.4542   16.3429 C   0  0  2  0  0  0  0  0  0  0  0  0
   -1.8336  -22.6239   16.1701 C   0  0  0  0  0  0  0  0  0  0  0  0
   -2.9933  -22.3005   15.2253 C   0  0  0  0  0  0  0  0  0  0  0  0
    1.9438  -16.3352   20.1106 N   0  0  0  0  0  0  0  0  0  0  0  0
    0.7646  -20.0526   17.1869 N   0  0  0  0  0  0  0  0  0  0  0  0
   -0.1229  -16.5210   18.9616 N   0  0  0  0  0  0  0  0  0  0  0  0
    3.4381  -18.0344   19.8632 O   0  0  0  0  0  0  0  0  0  0  0  0
   -3.9666  -20.6595   13.1384 O   0  5  0  0  0  0  0  0  0  0  0  0
   -8.3910  -19.9625   15.4079 O   0  0  0  0  0  0  0  0  0  0  0  0
   -3.7162  -21.1409   15.6503 O   0  0  0  0  0  0  0  0  0  0  0  0
   -6.0193  -20.5389   14.6421 O   0  0  0  0  0  0  0  0  0  0  0  0
   -6.8294  -21.3011   16.9769 O   0  5  0  0  0  0  0  0  0  0  0  0
   -4.1921  -18.7410   14.8560 O   0  0  0  0  0  0  0  0  0  0  0  0
   -6.3732  -18.8204   16.5012 O   0  0  0  0  0  0  0  0  0  0  0  0
   -0.7504  -20.1373   15.2085 S   0  0  0  0  0  0  0  0  0  0  0  0
   -4.4537  -20.1750   14.5938 P   0  0  2  0  0  0  0  0  0  0  0  0
   -6.9009  -20.2363   15.9515 P   0  0  2  0  0  0  0  0  0  0  0  0
  2 16  2  0  0  0  0
  2  3  1  0  0  0  0
  2 13  1  0  0  0  0
  3  8  2  0  0  0  0
  3  4  1  0  0  0  0
  4 14  1  0  0  0  0
  5  1  1  1  0  0  0
  5 14  1  0  0  0  0
  5 10  1  0  0  0  0
  6  7  1  0  0  0  0
  7 13  1  0  0  0  0
  7 15  2  0  0  0  0
  8 15  1  0  0  0  0
  9 14  1  0  0  0  0
  9 24  1  0  0  0  0
 10 24  1  0  0  0  0
 10 11  1  6  0  0  0
 11 12  1  0  0  0  0
 12 19  1  0  0  0  0
 17 25  1  0  0  0  0
 19 25  1  0  0  0  0
 20 26  1  0  0  0  0
 21 26  1  0  0  0  0
 22 25  2  0  0  0  0
 23 26  2  0  0  0  0
 25 20  1  1  0  0  0
 26 18  1  6  0  0  0
M  CHG  2  17  -1  21  -1
M  END
>  <CHROM.1>
-174.06964054,161.37595096,-56.17035337,-122.50147539,149.90670711,179.07826209
-9.52253096,150.09857471,-2.13566818,-19.55642326,16.77809369,-0.52595742
0.22656627,-2.56567222

>  <Name>
ligand

>  <RI>
0

>  <Rbt.Current_Directory>
/home/itssahil/PROJECTS/Mol_Feturizer/New_Systems/rnas/3D2X

>  <Rbt.Executable>
rbdock ($Id: //depot/dev/client3/rdock/2013.1/src/exe/rbdock.cxx#4 $)

>  <Rbt.Library>
libRbt.so (2013.1, Build901 2013/11/27)

>  <Rbt.Parameter_File>
/export/apps/rDock/src/rDock_2013.1_src/data/scripts/dock_solv.prm

>  <Rbt.Receptor>
prm/blind_docking_40.prm

>  <SCORE>
-16.8593

>  <SCORE.INTER>
-19.1883

>  <SCORE.INTER.CONST>
1

>  <SCORE.INTER.POLAR>
0

>  <SCORE.INTER.ROT>
8

>  <SCORE.INTER.SOLV>
18.0353

>  <SCORE.INTER.VDW>
-27.7373

>  <SCORE.INTER.norm>
-0.738013

>  <SCORE.INTRA>
2.32905

>  <SCORE.INTRA.DIHEDRAL>
3.44238

>  <SCORE.INTRA.DIHEDRAL.0>
7.88077

>  <SCORE.INTRA.POLAR>
0

>  <SCORE.INTRA.POLAR.0>
0

>  <SCORE.INTRA.REPUL>
0

>  <SCORE.INTRA.REPUL.0>
0

>  <SCORE.INTRA.SOLV>
-0.173666

>  <SCORE.INTRA.SOLV.lig_0>
-63.2542

>  <SCORE.INTRA.VDW>
0.694698

>  <SCORE.INTRA.VDW.0>
-3.15072

>  <SCORE.INTRA.norm>
0.089579

>  <SCORE.RESTR>
0

>  <SCORE.RESTR.CAVITY>
0

>  <SCORE.RESTR.norm>
0

>  <SCORE.SYSTEM>
0

>  <SCORE.SYSTEM.CONST>
0

>  <SCORE.SYSTEM.DIHEDRAL>
0

>  <SCORE.SYSTEM.SOLV>
0

>  <SCORE.SYSTEM.norm>
0

>  <SCORE.heavy>
26

>  <SCORE.norm>
-0.648434

>  <RMSD>
11.353

$$$$
ligand
 OpenBabel11021811473D
libRbt.so/2013.1/901 2013/11/27
 26 27  0  0  0  0  0  0  0  0999 V2000
    0.4420  -20.5085   17.1294 C   0  0  0  0  0  0  0  0  0  0  0  0
   -3.9812  -17.5336   16.5547 C   0  0  0  0  0  0  0  0  0  0  0  0
   -2.9161  -17.9271   15.7513 C   0  0  0  0  0  0  0  0  0  0  0  0
   -1.8775  -18.9660   16.1809 C   0  0  0  0  0  0  0  0  0  0  0  0
    0.1561  -19.0671   17.5610 C   0  0  1  0  0  0  0  0  0  0  0  0
   -5.7344  -15.0673   14.2360 C   0  0  0  0  0  0  0  0  0  0  0  0
   -4.7270  -16.0783   14.7859 C   0  0  0  0  0  0  0  0  0  0  0  0
   -2.8093  -17.3596   14.4856 C   0  0  0  0  0  0  0  0  0  0  0  0
   -1.0354  -17.1272   17.5391 C   0  0  0  0  0  0  0  0  0  0  0  0
    0.9900  -18.3783   18.4336 C   0  0  2  0  0  0  0  0  0  0  0  0
    2.2865  -18.8033   19.1279 C   0  0  0  0  0  0  0  0  0  0  0  0
    3.3461  -17.6991   19.1396 C   0  0  0  0  0  0  0  0  0  0  0  0
   -4.9018  -16.5999   16.0745 N   0  0  0  0  0  0  0  0  0  0  0  0
   -0.9009  -18.3839   17.1128 N   0  0  0  0  0  0  0  0  0  0  0  0
   -3.6858  -16.4780   14.0416 N   0  0  0  0  0  0  0  0  0  0  0  0
   -4.1177  -18.0066   17.6832 O   0  0  0  0  0  0  0  0  0  0  0  0
    4.7654  -20.7515   19.1585 O   0  5  0  0  0  0  0  0  0  0  0  0
    9.1749  -18.2546   18.9536 O   0  0  0  0  0  0  0  0  0  0  0  0
    4.6450  -18.2069   18.8192 O   0  0  0  0  0  0  0  0  0  0  0  0
    6.9008  -19.3706   19.3094 O   0  0  0  0  0  0  0  0  0  0  0  0
    7.3489  -17.0319   20.3183 O   0  5  0  0  0  0  0  0  0  0  0  0
    5.1276  -19.1569   21.1605 O   0  0  0  0  0  0  0  0  0  0  0  0
    8.5113  -19.1097   21.2773 O   0  0  0  0  0  0  0  0  0  0  0  0
    0.2551  -16.8171   18.6701 S   0  0  0  0  0  0  0  0  0  0  0  0
    5.3432  -19.3535   19.7085 P   0  0  2  0  0  0  0  0  0  0  0  0
    7.9405  -18.3462   19.9825 P   0  0  2  0  0  0  0  0  0  0  0  0
  2 16  2  0  0  0  0
  2  3  1  0  0  0  0
  2 13  1  0  0  0  0
  3  8  2  0  0  0  0
  3  4  1  0  0  0  0
  4 14  1  0  0  0  0
  5  1  1  6  0  0  0
  5 14  1  0  0  0  0
  5 10  1  0  0  0  0
  6  7  1  0  0  0  0
  7 13  1  0  0  0  0
  7 15  2  0  0  0  0
  8 15  1  0  0  0  0
  9 14  1  0  0  0  0
  9 24  1  0  0  0  0
 10 24  1  0  0  0  0
 10 11  1  1  0  0  0
 11 12  1  0  0  0  0
 12 19  1  0  0  0  0
 17 25  1  0  0  0  0
 19 25  1  0  0  0  0
 20 26  1  0  0  0  0
 21 26  1  0  0  0  0
 22 25  2  0  0  0  0
 23 26  2  0  0  0  0
 25 20  1  6  0  0  0
 26 18  1  6  0  0  0
M  CHG  2  17  -1  21  -1
M  END
>  <CHROM.1>
-77.61432034,138.70017418,-136.58007576,-175.46300730,-59.40366216,-164.36961706
84.09842219,-157.71021151,1.82147213,-18.13619687,18.11818342,2.88815642
-0.31385711,-0.31255420

>  <Name>
ligand

>  <RI>
0

>  <Rbt.Current_Directory>
/home/itssahil/PROJECTS/Mol_Feturizer/New_Systems/rnas/3D2X

>  <Rbt.Executable>
rbdock ($Id: //depot/dev/client3/rdock/2013.1/src/exe/rbdock.cxx#4 $)

>  <Rbt.Library>
libRbt.so (2013.1, Build901 2013/11/27)

>  <Rbt.Parameter_File>
/export/apps/rDock/src/rDock_2013.1_src/data/scripts/dock_solv.prm

>  <Rbt.Receptor>
prm/blind_docking_60.prm

>  <SCORE>
-17.1631

>  <SCORE.INTER>
-20.3867

>  <SCORE.INTER.CONST>
1

>  <SCORE.INTER.POLAR>
0

>  <SCORE.INTER.ROT>
8

>  <SCORE.INTER.SOLV>
18.1342

>  <SCORE.INTER.VDW>
-28.5692

>  <SCORE.INTER.norm>
-0.784103

>  <SCORE.INTRA>
3.13397

>  <SCORE.INTRA.DIHEDRAL>
3.86874

>  <SCORE.INTRA.DIHEDRAL.0>
7.88077

>  <SCORE.INTRA.POLAR>
0

>  <SCORE.INTRA.POLAR.0>
0

>  <SCORE.INTRA.REPUL>
0

>  <SCORE.INTRA.REPUL.0>
0

>  <SCORE.INTRA.SOLV>
0.917149

>  <SCORE.INTRA.SOLV.lig_0>
-63.2542

>  <SCORE.INTRA.VDW>
0.741028

>  <SCORE.INTRA.VDW.0>
-3.15072

>  <SCORE.INTRA.norm>
0.120537

>  <SCORE.RESTR>
0.0896491

>  <SCORE.RESTR.CAVITY>
0.0896491

>  <SCORE.RESTR.norm>
0.00344804

>  <SCORE.SYSTEM>
0

>  <SCORE.SYSTEM.CONST>
0

>  <SCORE.SYSTEM.DIHEDRAL>
0

>  <SCORE.SYSTEM.SOLV>
0

>  <SCORE.SYSTEM.norm>
0

>  <SCORE.heavy>
26

>  <SCORE.norm>
-0.660118

>  <RMSD>
11.355

$$$$
ligand
 OpenBabel11021811473D
libRbt.so/2013.1/901 2013/11/27
 26 27  0  0  0  0  0  0  0  0999 V2000
    0.4367  -20.7553   16.8884 C   0  0  0  0  0  0  0  0  0  0  0  0
   -4.0603  -17.6886   16.7399 C   0  0  0  0  0  0  0  0  0  0  0  0
   -3.0103  -18.1419   15.9482 C   0  0  0  0  0  0  0  0  0  0  0  0
   -2.0311  -19.2310   16.3928 C   0  0  0  0  0  0  0  0  0  0  0  0
    0.2042  -19.3356   17.4139 C   0  0  1  0  0  0  0  0  0  0  0  0
   -5.6623  -15.1482   14.3921 C   0  0  0  0  0  0  0  0  0  0  0  0
   -4.7138  -16.2069   14.9564 C   0  0  0  0  0  0  0  0  0  0  0  0
   -2.8632  -17.5884   14.6803 C   0  0  0  0  0  0  0  0  0  0  0  0
   -1.0039  -17.4217   17.6601 C   0  0  0  0  0  0  0  0  0  0  0  0
    1.1605  -18.6591   18.1617 C   0  0  2  0  0  0  0  0  0  0  0  0
    2.5603  -19.0799   18.6166 C   0  0  0  0  0  0  0  0  0  0  0  0
    3.3323  -17.9463   19.2958 C   0  0  0  0  0  0  0  0  0  0  0  0
   -4.9266  -16.7110   16.2464 N   0  0  0  0  0  0  0  0  0  0  0  0
   -0.9227  -18.6601   17.1716 N   0  0  0  0  0  0  0  0  0  0  0  0
   -3.6886  -16.6649   14.2237 N   0  0  0  0  0  0  0  0  0  0  0  0
   -4.2309  -18.1470   17.8697 O   0  0  0  0  0  0  0  0  0  0  0  0
    4.6348  -20.7202   19.7952 O   0  5  0  0  0  0  0  0  0  0  0  0
    7.5035  -17.1412   20.3411 O   0  0  0  0  0  0  0  0  0  0  0  0
    4.7407  -18.1985   19.3113 O   0  0  0  0  0  0  0  0  0  0  0  0
    6.8991  -19.5541   19.7443 O   0  0  0  0  0  0  0  0  0  0  0  0
    8.5690  -19.0921   21.6642 O   0  5  0  0  0  0  0  0  0  0  0  0
    5.2714  -19.0639   21.6749 O   0  0  0  0  0  0  0  0  0  0  0  0
    9.2376  -18.6627   19.2236 O   0  0  0  0  0  0  0  0  0  0  0  0
    0.4512  -17.1227   18.5734 S   0  0  0  0  0  0  0  0  0  0  0  0
    5.3777  -19.3595   20.2276 P   0  0  2  0  0  0  0  0  0  0  0  0
    8.0815  -18.6434   20.3408 P   0  0  2  0  0  0  0  0  0  0  0  0
  2 16  2  0  0  0  0
  2  3  1  0  0  0  0
  2 13  1  0  0  0  0
  3  8  2  0  0  0  0
  3  4  1  0  0  0  0
  4 14  1  0  0  0  0
  5  1  1  6  0  0  0
  5 14  1  0  0  0  0
  5 10  1  0  0  0  0
  6  7  1  0  0  0  0
  7 13  1  0  0  0  0
  7 15  2  0  0  0  0
  8 15  1  0  0  0  0
  9 14  1  0  0  0  0
  9 24  1  0  0  0  0
 10 24  1  0  0  0  0
 10 11  1  1  0  0  0
 11 12  1  0  0  0  0
 12 19  1  0  0  0  0
 17 25  1  0  0  0  0
 19 25  1  0  0  0  0
 20 26  1  0  0  0  0
 21 26  1  0  0  0  0
 22 25  2  0  0  0  0
 23 26  2  0  0  0  0
 25 20  1  6  0  0  0
 26 18  1  1  0  0  0
M  CHG  2  17  -1  21  -1
M  END
>  <CHROM.1>
-85.82926022,173.47124992,-160.69765836,-164.53152569,-69.62498275,-161.85778372
56.59179056,-44.49601460,1.86494918,-18.31024141,18.30635029,2.90261609,-0.34033217
-0.27734413

>  <Name>
ligand

>  <RI>
0

>  <Rbt.Current_Directory>
/home/itssahil/PROJECTS/Mol_Feturizer/New_Systems/rnas/3D2X

>  <Rbt.Executable>
rbdock ($Id: //depot/dev/client3/rdock/2013.1/src/exe/rbdock.cxx#4 $)

>  <Rbt.Library>
libRbt.so (2013.1, Build901 2013/11/27)

>  <Rbt.Parameter_File>
/export/apps/rDock/src/rDock_2013.1_src/data/scripts/dock_solv.prm

>  <Rbt.Receptor>
prm/blind_docking_40.prm

>  <SCORE>
-20.6349

>  <SCORE.INTER>
-21.3136

>  <SCORE.INTER.CONST>
1

>  <SCORE.INTER.POLAR>
0

>  <SCORE.INTER.ROT>
8

>  <SCORE.INTER.SOLV>
15.9815

>  <SCORE.INTER.VDW>
-28.4696

>  <SCORE.INTER.norm>
-0.819755

>  <SCORE.INTRA>
0.664676

>  <SCORE.INTRA.DIHEDRAL>
-0.0686535

>  <SCORE.INTRA.DIHEDRAL.0>
7.88077

>  <SCORE.INTRA.POLAR>
0

>  <SCORE.INTRA.POLAR.0>
0

>  <SCORE.INTRA.REPUL>
0

>  <SCORE.INTRA.REPUL.0>
0

>  <SCORE.INTRA.SOLV>
-1.35671

>  <SCORE.INTRA.SOLV.lig_0>
-63.2542

>  <SCORE.INTRA.VDW>
1.37736

>  <SCORE.INTRA.VDW.0>
-3.15072

>  <SCORE.INTRA.norm>
0.0255645

>  <SCORE.RESTR>
0.0140494

>  <SCORE.RESTR.CAVITY>
0.0140494

>  <SCORE.RESTR.norm>
0.000540361

>  <SCORE.SYSTEM>
0

>  <SCORE.SYSTEM.CONST>
0

>  <SCORE.SYSTEM.DIHEDRAL>
0

>  <SCORE.SYSTEM.SOLV>
0

>  <SCORE.SYSTEM.norm>
0

>  <SCORE.heavy>
26

>  <SCORE.norm>
-0.793651

>  <RMSD>
11.386

$$$$
ligand
 OpenBabel11021811473D
libRbt.so/2013.1/901 2013/11/27
 26 27  0  0  0  0  0  0  0  0999 V2000
    0.6512  -20.0885   17.7862 C   0  0  0  0  0  0  0  0  0  0  0  0
   -4.0066  -19.7067   16.6726 C   0  0  0  0  0  0  0  0  0  0  0  0
   -2.6993  -19.2381   16.5950 C   0  0  0  0  0  0  0  0  0  0  0  0
   -1.5791  -19.9871   15.8693 C   0  0  0  0  0  0  0  0  0  0  0  0
   -0.2196  -21.3007   17.4429 C   0  0  1  0  0  0  0  0  0  0  0  0
   -5.6555  -16.8668   18.6088 C   0  0  0  0  0  0  0  0  0  0  0  0
   -4.6040  -17.7216   17.8997 C   0  0  0  0  0  0  0  0  0  0  0  0
   -2.4085  -18.0147   17.1902 C   0  0  0  0  0  0  0  0  0  0  0  0
   -1.9353  -22.3443   16.3704 C   0  0  0  0  0  0  0  0  0  0  0  0
   -0.0183  -22.5444   18.0295 C   0  0  2  0  0  0  0  0  0  0  0  0
    1.0029  -23.0089   19.0711 C   0  0  0  0  0  0  0  0  0  0  0  0
    2.2722  -23.5900   18.4436 C   0  0  0  0  0  0  0  0  0  0  0  0
   -4.9761  -18.9464   17.3298 N   0  0  0  0  0  0  0  0  0  0  0  0
   -1.2311  -21.2299   16.5731 N   0  0  0  0  0  0  0  0  0  0  0  0
   -3.3332  -17.3040   17.8086 N   0  0  0  0  0  0  0  0  0  0  0  0
   -4.3128  -20.7846   16.1625 O   0  0  0  0  0  0  0  0  0  0  0  0
    5.6492  -22.8037   19.2261 O   0  5  0  0  0  0  0  0  0  0  0  0
    3.5968  -18.7987   18.6039 O   0  0  0  0  0  0  0  0  0  0  0  0
    3.2934  -23.8119   19.4211 O   0  0  0  0  0  0  0  0  0  0  0  0
    3.6328  -21.2506   19.3321 O   0  0  0  0  0  0  0  0  0  0  0  0
    4.5295  -19.4283   20.9332 O   0  5  0  0  0  0  0  0  0  0  0  0
    4.3176  -22.5731   21.4295 O   0  0  0  0  0  0  0  0  0  0  0  0
    5.8262  -20.0476   18.8064 O   0  0  0  0  0  0  0  0  0  0  0  0
   -1.1936  -23.6108   17.3121 S   0  0  0  0  0  0  0  0  0  0  0  0
    4.2256  -22.6109   19.9518 P   0  0  2  0  0  0  0  0  0  0  0  0
    4.3992  -19.8505   19.5207 P   0  0  2  0  0  0  0  0  0  0  0  0
  2 16  2  0  0  0  0
  2  3  1  0  0  0  0
  2 13  1  0  0  0  0
  3  8  2  0  0  0  0
  3  4  1  0  0  0  0
  4 14  1  0  0  0  0
  5  1  1  1  0  0  0
  5 14  1  0  0  0  0
  5 10  1  0  0  0  0
  6  7  1  0  0  0  0
  7 13  1  0  0  0  0
  7 15  2  0  0  0  0
  8 15  1  0  0  0  0
  9 14  1  0  0  0  0
  9 24  1  0  0  0  0
 10 24  1  0  0  0  0
 10 11  1  6  0  0  0
 11 12  1  0  0  0  0
 12 19  1  0  0  0  0
 17 25  1  0  0  0  0
 19 25  1  0  0  0  0
 20 26  1  0  0  0  0
 21 26  1  0  0  0  0
 22 25  2  0  0  0  0
 23 26  2  0  0  0  0
 25 20  1  6  0  0  0
 26 18  1  6  0  0  0
M  CHG  2  17  -1  21  -1
M  END
>  <CHROM.1>
-68.40338108,-92.60507003,170.44118665,-95.72631583,-80.41395468,-61.50364544
-104.01154117,172.76458226,0.66016857,-20.87028984,18.33246647,-2.92338839
0.34331947,-2.97484993

>  <Name>
ligand

>  <RI>
0

>  <Rbt.Current_Directory>
/home/itssahil/PROJECTS/Mol_Feturizer/New_Systems/rnas/3D2X

>  <Rbt.Executable>
rbdock ($Id: //depot/dev/client3/rdock/2013.1/src/exe/rbdock.cxx#4 $)

>  <Rbt.Library>
libRbt.so (2013.1, Build901 2013/11/27)

>  <Rbt.Parameter_File>
/export/apps/rDock/src/rDock_2013.1_src/data/scripts/dock_solv.prm

>  <Rbt.Receptor>
prm/blind_docking_80.prm

>  <SCORE>
-17.874

>  <SCORE.INTER>
-18.7289

>  <SCORE.INTER.CONST>
1

>  <SCORE.INTER.POLAR>
0

>  <SCORE.INTER.ROT>
8

>  <SCORE.INTER.SOLV>
18.7956

>  <SCORE.INTER.VDW>
-27.6844

>  <SCORE.INTER.norm>
-0.720341

>  <SCORE.INTRA>
0.340168

>  <SCORE.INTRA.DIHEDRAL>
1.39626

>  <SCORE.INTRA.DIHEDRAL.0>
7.88077

>  <SCORE.INTRA.POLAR>
0

>  <SCORE.INTRA.POLAR.0>
0

>  <SCORE.INTRA.REPUL>
0

>  <SCORE.INTRA.REPUL.0>
0

>  <SCORE.INTRA.SOLV>
1.33501

>  <SCORE.INTRA.SOLV.lig_0>
-63.2542

>  <SCORE.INTRA.VDW>
-1.02547

>  <SCORE.INTRA.VDW.0>
-3.15072

>  <SCORE.INTRA.norm>
0.0130834

>  <SCORE.RESTR>
0.514693

>  <SCORE.RESTR.CAVITY>
0.514693

>  <SCORE.RESTR.norm>
0.0197959

>  <SCORE.SYSTEM>
0

>  <SCORE.SYSTEM.CONST>
0

>  <SCORE.SYSTEM.DIHEDRAL>
0

>  <SCORE.SYSTEM.SOLV>
0

>  <SCORE.SYSTEM.norm>
0

>  <SCORE.heavy>
26

>  <SCORE.norm>
-0.687462

>  <RMSD>
11.435

$$$$
ligand
 OpenBabel11021811473D
libRbt.so/2013.1/901 2013/11/27
 26 27  0  0  0  0  0  0  0  0999 V2000
   -2.1841  -17.7483   17.2036 C   0  0  0  0  0  0  0  0  0  0  0  0
   -5.0904  -21.0355   14.3393 C   0  0  0  0  0  0  0  0  0  0  0  0
   -4.7505  -20.0688   15.2798 C   0  0  0  0  0  0  0  0  0  0  0  0
   -3.7331  -18.9569   15.0130 C   0  0  0  0  0  0  0  0  0  0  0  0
   -1.6435  -18.8663   16.3073 C   0  0  1  0  0  0  0  0  0  0  0  0
   -7.7186  -23.0039   16.2760 C   0  0  0  0  0  0  0  0  0  0  0  0
   -6.6520  -21.9675   15.9192 C   0  0  0  0  0  0  0  0  0  0  0  0
   -5.3888  -20.1078   16.5154 C   0  0  0  0  0  0  0  0  0  0  0  0
   -1.8011  -20.3882   14.6214 C   0  0  0  0  0  0  0  0  0  0  0  0
   -0.3712  -19.3991   16.4775 C   0  0  2  0  0  0  0  0  0  0  0  0
    0.7262  -19.0711   17.4932 C   0  0  0  0  0  0  0  0  0  0  0  0
    1.2827  -20.3139   18.1918 C   0  0  0  0  0  0  0  0  0  0  0  0
   -6.0511  -21.9989   14.6538 N   0  0  0  0  0  0  0  0  0  0  0  0
   -2.3672  -19.4042   15.3216 N   0  0  0  0  0  0  0  0  0  0  0  0
   -6.2960  -21.0230   16.8018 N   0  0  0  0  0  0  0  0  0  0  0  0
   -4.5520  -21.0433   13.2321 O   0  0  0  0  0  0  0  0  0  0  0  0
    1.4131  -23.1162   17.5060 O   0  5  0  0  0  0  0  0  0  0  0  0
    3.4224  -22.1424   19.3819 O   0  0  0  0  0  0  0  0  0  0  0  0
    0.2375  -21.1582   18.6844 O   0  0  0  0  0  0  0  0  0  0  0  0
    1.1668  -23.1529   20.0412 O   0  0  0  0  0  0  0  0  0  0  0  0
    3.2958  -23.8136   21.3525 O   0  5  0  0  0  0  0  0  0  0  0  0
   -0.9198  -23.4525   18.5672 O   0  0  0  0  0  0  0  0  0  0  0  0
    2.9462  -24.6225   18.9417 O   0  0  0  0  0  0  0  0  0  0  0  0
   -0.1766  -20.5907   15.2223 S   0  0  0  0  0  0  0  0  0  0  0  0
    0.3843  -22.7618   18.6919 P   0  0  2  0  0  0  0  0  0  0  0  0
    2.7459  -23.4528   20.0267 P   0  0  2  0  0  0  0  0  0  0  0  0
  2 16  2  0  0  0  0
  2  3  1  0  0  0  0
  2 13  1  0  0  0  0
  3  8  2  0  0  0  0
  3  4  1  0  0  0  0
  4 14  1  0  0  0  0
  5  1  1  1  0  0  0
  5 14  1  0  0  0  0
  5 10  1  0  0  0  0
  6  7  1  0  0  0  0
  7 13  1  0  0  0  0
  7 15  2  0  0  0  0
  8 15  1  0  0  0  0
  9 14  1  0  0  0  0
  9 24  1  0  0  0  0
 10 24  1  0  0  0  0
 10 11  1  6  0  0  0
 11 12  1  0  0  0  0
 12 19  1  0  0  0  0
 17 25  1  0  0  0  0
 19 25  1  0  0  0  0
 20 26  1  0  0  0  0
 21 26  1  0  0  0  0
 22 25  2  0  0  0  0
 23 26  2  0  0  0  0
 25 20  1  1  0  0  0
 26 18  1  6  0  0  0
M  CHG  2  17  -1  21  -1
M  END
>  <CHROM.1>
-87.03997315,129.74940818,-48.57713816,-114.85850813,145.20066509,13.26383099
-26.49607249,55.65317843,-1.15257691,-21.46459751,17.21576528,-2.64698723
0.30792927,2.57293785

>  <Name>
ligand

>  <RI>
0

>  <Rbt.Current_Directory>
/home/itssahil/PROJECTS/Mol_Feturizer/New_Systems/rnas/3D2X

>  <Rbt.Executable>
rbdock ($Id: //depot/dev/client3/rdock/2013.1/src/exe/rbdock.cxx#4 $)

>  <Rbt.Library>
libRbt.so (2013.1, Build901 2013/11/27)

>  <Rbt.Parameter_File>
/export/apps/rDock/src/rDock_2013.1_src/data/scripts/dock_solv.prm

>  <Rbt.Receptor>
prm/blind_docking_60.prm

>  <SCORE>
-7.9539

>  <SCORE.INTER>
-10.0484

>  <SCORE.INTER.CONST>
1

>  <SCORE.INTER.POLAR>
0

>  <SCORE.INTER.ROT>
8

>  <SCORE.INTER.SOLV>
19.2557

>  <SCORE.INTER.VDW>
-22.0509

>  <SCORE.INTER.norm>
-0.386478

>  <SCORE.INTRA>
1.95054

>  <SCORE.INTRA.DIHEDRAL>
5.3317

>  <SCORE.INTRA.DIHEDRAL.0>
7.88077

>  <SCORE.INTRA.POLAR>
0

>  <SCORE.INTRA.POLAR.0>
0

>  <SCORE.INTRA.REPUL>
0

>  <SCORE.INTRA.REPUL.0>
0

>  <SCORE.INTRA.SOLV>
-0.304681

>  <SCORE.INTRA.SOLV.lig_0>
-63.2542

>  <SCORE.INTRA.VDW>
-0.562966

>  <SCORE.INTRA.VDW.0>
-3.15072

>  <SCORE.INTRA.norm>
0.0750208

>  <SCORE.RESTR>
0.143987

>  <SCORE.RESTR.CAVITY>
0.143987

>  <SCORE.RESTR.norm>
0.00553796

>  <SCORE.SYSTEM>
0

>  <SCORE.SYSTEM.CONST>
0

>  <SCORE.SYSTEM.DIHEDRAL>
0

>  <SCORE.SYSTEM.SOLV>
0

>  <SCORE.SYSTEM.norm>
0

>  <SCORE.heavy>
26

>  <SCORE.norm>
-0.305919

>  <RMSD>
11.484

$$$$
ligand
 OpenBabel11021811473D
libRbt.so/2013.1/901 2013/11/27
 26 27  0  0  0  0  0  0  0  0999 V2000
    0.6402  -20.5114   15.9557 C   0  0  0  0  0  0  0  0  0  0  0  0
   -4.1497  -17.9611   15.9626 C   0  0  0  0  0  0  0  0  0  0  0  0
   -3.0045  -18.1033   15.1860 C   0  0  0  0  0  0  0  0  0  0  0  0
   -1.9208  -19.1465   15.4687 C   0  0  0  0  0  0  0  0  0  0  0  0
    0.1814  -19.2779   16.7390 C   0  0  1  0  0  0  0  0  0  0  0  0
   -5.9242  -15.1561   14.0875 C   0  0  0  0  0  0  0  0  0  0  0  0
   -4.8820  -16.2004   14.4906 C   0  0  0  0  0  0  0  0  0  0  0  0
   -2.8549  -17.2661   14.0850 C   0  0  0  0  0  0  0  0  0  0  0  0
   -1.2675  -17.5906   17.2258 C   0  0  0  0  0  0  0  0  0  0  0  0
    0.9593  -18.7068   17.7391 C   0  0  2  0  0  0  0  0  0  0  0  0
    2.3392  -19.0908   18.2793 C   0  0  0  0  0  0  0  0  0  0  0  0
    2.6954  -18.3618   19.5769 C   0  0  0  0  0  0  0  0  0  0  0  0
   -5.1044  -17.0021   15.6181 N   0  0  0  0  0  0  0  0  0  0  0  0
   -0.9838  -18.6709   16.4967 N   0  0  0  0  0  0  0  0  0  0  0  0
   -3.7642  -16.3631   13.7683 N   0  0  0  0  0  0  0  0  0  0  0  0
   -4.3266  -18.6779   16.9478 O   0  0  0  0  0  0  0  0  0  0  0  0
    5.8282  -19.8169   18.5827 O   0  5  0  0  0  0  0  0  0  0  0  0
    7.9824  -18.4426   22.3304 O   0  0  0  0  0  0  0  0  0  0  0  0
    4.1067  -18.3588   19.8135 O   0  0  0  0  0  0  0  0  0  0  0  0
    6.0157  -19.5279   21.1067 O   0  0  0  0  0  0  0  0  0  0  0  0
    8.3164  -19.3651   19.9367 O   0  5  0  0  0  0  0  0  0  0  0  0
    4.0757  -20.9107   20.1365 O   0  0  0  0  0  0  0  0  0  0  0  0
    6.9018  -17.2596   20.3294 O   0  0  0  0  0  0  0  0  0  0  0  0
    0.0289  -17.3776   18.3724 S   0  0  0  0  0  0  0  0  0  0  0  0
    4.9441  -19.7298   19.9248 P   0  0  2  0  0  0  0  0  0  0  0  0
    7.3725  -18.7013   20.8635 P   0  0  2  0  0  0  0  0  0  0  0  0
  2 16  2  0  0  0  0
  2  3  1  0  0  0  0
  2 13  1  0  0  0  0
  3  8  2  0  0  0  0
  3  4  1  0  0  0  0
  4 14  1  0  0  0  0
  5  1  1  6  0  0  0
  5 14  1  0  0  0  0
  5 10  1  0  0  0  0
  6  7  1  0  0  0  0
  7 13  1  0  0  0  0
  7 15  2  0  0  0  0
  8 15  1  0  0  0  0
  9 14  1  0  0  0  0
  9 24  1  0  0  0  0
 10 24  1  0  0  0  0
 10 11  1  1  0  0  0
 11 12  1  0  0  0  0
 12 19  1  0  0  0  0
 17 25  1  0  0  0  0
 19 25  1  0  0  0  0
 20 26  1  0  0  0  0
 21 26  1  0  0  0  0
 22 25  2  0  0  0  0
 23 26  2  0  0  0  0
 25 20  1  1  0  0  0
 26 18  1  1  0  0  0
M  CHG  2  17  -1  21  -1
M  END
>  <CHROM.1>
-82.89263650,-168.18664889,-159.73056971,-167.09090958,-58.00080654,33.26364805
108.52880064,167.32673810,1.54828001,-18.43382272,18.03674184,3.11016079
-0.49261974,0.25719880

>  <Name>
ligand

>  <RI>
0

>  <Rbt.Current_Directory>
/home/itssahil/PROJECTS/Mol_Feturizer/New_Systems/rnas/3D2X

>  <Rbt.Executable>
rbdock ($Id: //depot/dev/client3/rdock/2013.1/src/exe/rbdock.cxx#4 $)

>  <Rbt.Library>
libRbt.so (2013.1, Build901 2013/11/27)

>  <Rbt.Parameter_File>
/export/apps/rDock/src/rDock_2013.1_src/data/scripts/dock_solv.prm

>  <Rbt.Receptor>
prm/blind_docking_60.prm

>  <SCORE>
-16.6103

>  <SCORE.INTER>
-19.4518

>  <SCORE.INTER.CONST>
1

>  <SCORE.INTER.POLAR>
0

>  <SCORE.INTER.ROT>
8

>  <SCORE.INTER.SOLV>
18.3915

>  <SCORE.INTER.VDW>
-28.0317

>  <SCORE.INTER.norm>
-0.748147

>  <SCORE.INTRA>
2.84153

>  <SCORE.INTRA.DIHEDRAL>
1.14491

>  <SCORE.INTRA.DIHEDRAL.0>
7.88077

>  <SCORE.INTRA.POLAR>
0

>  <SCORE.INTRA.POLAR.0>
0

>  <SCORE.INTRA.REPUL>
0

>  <SCORE.INTRA.REPUL.0>
0

>  <SCORE.INTRA.SOLV>
1.49705

>  <SCORE.INTRA.SOLV.lig_0>
-63.2542

>  <SCORE.INTRA.VDW>
1.52055

>  <SCORE.INTRA.VDW.0>
-3.15072

>  <SCORE.INTRA.norm>
0.10929

>  <SCORE.RESTR>
0

>  <SCORE.RESTR.CAVITY>
0

>  <SCORE.RESTR.norm>
0

>  <SCORE.SYSTEM>
0

>  <SCORE.SYSTEM.CONST>
0

>  <SCORE.SYSTEM.DIHEDRAL>
0

>  <SCORE.SYSTEM.SOLV>
0

>  <SCORE.SYSTEM.norm>
0

>  <SCORE.heavy>
26

>  <SCORE.norm>
-0.638858

>  <RMSD>
11.511

$$$$
ligand
 OpenBabel11021811473D
libRbt.so/2013.1/901 2013/11/27
 26 27  0  0  0  0  0  0  0  0999 V2000
   -2.5309  -23.7663   17.2724 C   0  0  0  0  0  0  0  0  0  0  0  0
    2.5370  -22.4785   18.9278 C   0  0  0  0  0  0  0  0  0  0  0  0
    1.3576  -21.9671   18.3966 C   0  0  0  0  0  0  0  0  0  0  0  0
    0.1681  -22.8419   17.9934 C   0  0  0  0  0  0  0  0  0  0  0  0
   -1.7934  -22.6538   16.5213 C   0  0  1  0  0  0  0  0  0  0  0  0
    4.4859  -19.2588   19.5351 C   0  0  0  0  0  0  0  0  0  0  0  0
    3.3791  -20.2297   19.1207 C   0  0  0  0  0  0  0  0  0  0  0  0
    1.2529  -20.5878   18.2486 C   0  0  0  0  0  0  0  0  0  0  0  0
   -0.0357  -21.2534   16.1576 C   0  0  0  0  0  0  0  0  0  0  0  0
   -2.3616  -21.9905   15.4403 C   0  0  2  0  0  0  0  0  0  0  0  0
   -3.7286  -22.1512   14.7704 C   0  0  0  0  0  0  0  0  0  0  0  0
   -4.7031  -21.0262   15.1268 C   0  0  0  0  0  0  0  0  0  0  0  0
    3.5640  -21.6074   19.2971 N   0  0  0  0  0  0  0  0  0  0  0  0
   -0.5699  -22.2464   16.8701 N   0  0  0  0  0  0  0  0  0  0  0  0
    2.2302  -19.7735   18.6016 N   0  0  0  0  0  0  0  0  0  0  0  0
    2.6777  -23.6924   19.0769 O   0  0  0  0  0  0  0  0  0  0  0  0
   -6.2466  -19.6331   17.7814 O   0  5  0  0  0  0  0  0  0  0  0  0
   -3.2261  -16.7983   15.9059 O   0  0  0  0  0  0  0  0  0  0  0  0
   -4.2702  -20.2943   16.2777 O   0  0  0  0  0  0  0  0  0  0  0  0
   -4.1207  -18.2304   17.8274 O   0  0  0  0  0  0  0  0  0  0  0  0
   -2.1764  -16.5809   18.2603 O   0  5  0  0  0  0  0  0  0  0  0  0
   -5.6238  -18.1738   15.7408 O   0  0  0  0  0  0  0  0  0  0  0  0
   -1.8004  -18.7012   16.8636 O   0  0  0  0  0  0  0  0  0  0  0  0
   -1.1598  -20.8593   14.8841 S   0  0  0  0  0  0  0  0  0  0  0  0
   -5.0979  -19.0282   16.8301 P   0  0  2  0  0  0  0  0  0  0  0  0
   -2.7919  -17.5074   17.2841 P   0  0  2  0  0  0  0  0  0  0  0  0
  2 16  2  0  0  0  0
  2  3  1  0  0  0  0
  2 13  1  0  0  0  0
  3  8  2  0  0  0  0
  3  4  1  0  0  0  0
  4 14  1  0  0  0  0
  5  1  1  1  0  0  0
  5 14  1  0  0  0  0
  5 10  1  0  0  0  0
  6  7  1  0  0  0  0
  7 13  1  0  0  0  0
  7 15  2  0  0  0  0
  8 15  1  0  0  0  0
  9 14  1  0  0  0  0
  9 24  1  0  0  0  0
 10 24  1  0  0  0  0
 10 11  1  6  0  0  0
 11 12  1  0  0  0  0
 12 19  1  0  0  0  0
 17 25  1  0  0  0  0
 19 25  1  0  0  0  0
 20 26  1  0  0  0  0
 21 26  1  0  0  0  0
 22 25  2  0  0  0  0
 23 26  2  0  0  0  0
 25 20  1  1  0  0  0
 26 18  1  6  0  0  0
M  CHG  2  17  -1  21  -1
M  END
>  <CHROM.1>
-149.06797396,104.54878247,-16.49875839,-165.30874155,178.02025499,177.79085266
84.67902660,42.11095589,-1.52146582,-20.25862767,17.14427071,0.24580900,0.37851674
-2.87802030

>  <Name>
ligand

>  <RI>
0

>  <Rbt.Current_Directory>
/home/itssahil/PROJECTS/Mol_Feturizer/New_Systems/rnas/3D2X

>  <Rbt.Executable>
rbdock ($Id: //depot/dev/client3/rdock/2013.1/src/exe/rbdock.cxx#4 $)

>  <Rbt.Library>
libRbt.so (2013.1, Build901 2013/11/27)

>  <Rbt.Parameter_File>
/export/apps/rDock/src/rDock_2013.1_src/data/scripts/dock_solv.prm

>  <Rbt.Receptor>
prm/blind_docking_60.prm

>  <SCORE>
-8.58508

>  <SCORE.INTER>
-11.0986

>  <SCORE.INTER.CONST>
1

>  <SCORE.INTER.POLAR>
0

>  <SCORE.INTER.ROT>
8

>  <SCORE.INTER.SOLV>
20.1105

>  <SCORE.INTER.VDW>
-23.0359

>  <SCORE.INTER.norm>
-0.42687

>  <SCORE.INTRA>
2.51353

>  <SCORE.INTRA.DIHEDRAL>
2.70853

>  <SCORE.INTRA.DIHEDRAL.0>
7.88077

>  <SCORE.INTRA.POLAR>
0

>  <SCORE.INTRA.POLAR.0>
0

>  <SCORE.INTRA.REPUL>
0

>  <SCORE.INTRA.REPUL.0>
0

>  <SCORE.INTRA.SOLV>
-1.00478

>  <SCORE.INTRA.SOLV.lig_0>
-63.2542

>  <SCORE.INTRA.VDW>
1.66166

>  <SCORE.INTRA.VDW.0>
-3.15072

>  <SCORE.INTRA.norm>
0.0966744

>  <SCORE.RESTR>
0

>  <SCORE.RESTR.CAVITY>
0

>  <SCORE.RESTR.norm>
0

>  <SCORE.SYSTEM>
0

>  <SCORE.SYSTEM.CONST>
0

>  <SCORE.SYSTEM.DIHEDRAL>
0

>  <SCORE.SYSTEM.SOLV>
0

>  <SCORE.SYSTEM.norm>
0

>  <SCORE.heavy>
26

>  <SCORE.norm>
-0.330195

>  <RMSD>
11.513

$$$$
ligand
 OpenBabel11021811473D
libRbt.so/2013.1/901 2013/11/27
 26 27  0  0  0  0  0  0  0  0999 V2000
   -0.0380  -22.5039   18.2486 C   0  0  0  0  0  0  0  0  0  0  0  0
    1.6481  -17.7430   19.2378 C   0  0  0  0  0  0  0  0  0  0  0  0
    0.8468  -18.5033   18.3925 C   0  0  0  0  0  0  0  0  0  0  0  0
    1.2487  -19.8848   17.8702 C   0  0  0  0  0  0  0  0  0  0  0  0
   -0.3337  -21.5847   17.0599 C   0  0  1  0  0  0  0  0  0  0  0  0
   -0.5910  -14.7061   19.7819 C   0  0  0  0  0  0  0  0  0  0  0  0
   -0.0684  -16.0533   19.2810 C   0  0  0  0  0  0  0  0  0  0  0  0
   -0.3910  -17.9847   18.0259 C   0  0  0  0  0  0  0  0  0  0  0  0
   -0.0946  -19.6716   15.8491 C   0  0  0  0  0  0  0  0  0  0  0  0
   -1.2496  -21.9263   16.0721 C   0  0  2  0  0  0  0  0  0  0  0  0
   -2.1313  -23.1668   15.9072 C   0  0  0  0  0  0  0  0  0  0  0  0
   -3.4773  -23.0411   16.6249 C   0  0  0  0  0  0  0  0  0  0  0  0
    1.1932  -16.5035   19.6923 N   0  0  0  0  0  0  0  0  0  0  0  0
    0.2587  -20.3965   16.9114 N   0  0  0  0  0  0  0  0  0  0  0  0
   -0.8112  -16.8118   18.4621 N   0  0  0  0  0  0  0  0  0  0  0  0
    2.7524  -18.1587   19.5892 O   0  0  0  0  0  0  0  0  0  0  0  0
   -5.7806  -23.3667   14.5416 O   0  5  0  0  0  0  0  0  0  0  0  0
   -8.0531  -19.5158   14.8914 O   0  0  0  0  0  0  0  0  0  0  0  0
   -4.2682  -21.9772   16.0863 O   0  0  0  0  0  0  0  0  0  0  0  0
   -5.9004  -20.8239   14.4464 O   0  0  0  0  0  0  0  0  0  0  0  0
   -7.6612  -21.7785   16.0824 O   0  5  0  0  0  0  0  0  0  0  0  0
   -3.8053  -22.0218   13.5563 O   0  0  0  0  0  0  0  0  0  0  0  0
   -6.2697  -19.7186   16.7215 O   0  0  0  0  0  0  0  0  0  0  0  0
   -1.2219  -20.6221   14.9182 S   0  0  0  0  0  0  0  0  0  0  0  0
   -4.8639  -22.0447   14.5917 P   0  0  2  0  0  0  0  0  0  0  0  0
   -7.0197  -20.5486   15.5666 P   0  0  2  0  0  0  0  0  0  0  0  0
  2 16  2  0  0  0  0
  2  3  1  0  0  0  0
  2 13  1  0  0  0  0
  3  8  2  0  0  0  0
  3  4  1  0  0  0  0
  4 14  1  0  0  0  0
  5  1  1  1  0  0  0
  5 14  1  0  0  0  0
  5 10  1  0  0  0  0
  6  7  1  0  0  0  0
  7 13  1  0  0  0  0
  7 15  2  0  0  0  0
  8 15  1  0  0  0  0
  9 14  1  0  0  0  0
  9 24  1  0  0  0  0
 10 24  1  0  0  0  0
 10 11  1  6  0  0  0
 11 12  1  0  0  0  0
 12 19  1  0  0  0  0
 17 25  1  0  0  0  0
 19 25  1  0  0  0  0
 20 26  1  0  0  0  0
 21 26  1  0  0  0  0
 22 25  2  0  0  0  0
 23 26  2  0  0  0  0
 25 20  1  6  0  0  0
 26 18  1  6  0  0  0
M  CHG  2  17  -1  21  -1
M  END
>  <CHROM.1>
-175.22161311,87.59854364,63.02702207,-125.32949708,67.18471555,63.86164607
58.58606103,-166.23959189,-2.58979832,-20.22609060,16.57441842,-0.61315063
0.22652145,-2.67026690

>  <Name>
ligand

>  <RI>
0

>  <Rbt.Current_Directory>
/home/itssahil/PROJECTS/Mol_Feturizer/New_Systems/rnas/3D2X

>  <Rbt.Executable>
rbdock ($Id: //depot/dev/client3/rdock/2013.1/src/exe/rbdock.cxx#4 $)

>  <Rbt.Library>
libRbt.so (2013.1, Build901 2013/11/27)

>  <Rbt.Parameter_File>
/export/apps/rDock/src/rDock_2013.1_src/data/scripts/dock_solv.prm

>  <Rbt.Receptor>
prm/blind_docking_60.prm

>  <SCORE>
-20.3382

>  <SCORE.INTER>
-19.8907

>  <SCORE.INTER.CONST>
1

>  <SCORE.INTER.POLAR>
0

>  <SCORE.INTER.ROT>
8

>  <SCORE.INTER.SOLV>
12.7735

>  <SCORE.INTER.VDW>
-26.4516

>  <SCORE.INTER.norm>
-0.765026

>  <SCORE.INTRA>
-0.447527

>  <SCORE.INTRA.DIHEDRAL>
-2.00772

>  <SCORE.INTRA.DIHEDRAL.0>
7.88077

>  <SCORE.INTRA.POLAR>
0

>  <SCORE.INTRA.POLAR.0>
0

>  <SCORE.INTRA.REPUL>
0

>  <SCORE.INTRA.REPUL.0>
0

>  <SCORE.INTRA.SOLV>
1.45929

>  <SCORE.INTRA.SOLV.lig_0>
-63.2542

>  <SCORE.INTRA.VDW>
-0.173312

>  <SCORE.INTRA.VDW.0>
-3.15072

>  <SCORE.INTRA.norm>
-0.0172126

>  <SCORE.RESTR>
0

>  <SCORE.RESTR.CAVITY>
0

>  <SCORE.RESTR.norm>
0

>  <SCORE.SYSTEM>
0

>  <SCORE.SYSTEM.CONST>
0

>  <SCORE.SYSTEM.DIHEDRAL>
0

>  <SCORE.SYSTEM.SOLV>
0

>  <SCORE.SYSTEM.norm>
0

>  <SCORE.heavy>
26

>  <SCORE.norm>
-0.782239

>  <RMSD>
11.519

$$$$
ligand
 OpenBabel11021811473D
libRbt.so/2013.1/901 2013/11/27
 26 27  0  0  0  0  0  0  0  0999 V2000
   -0.0201  -20.7404   16.1806 C   0  0  0  0  0  0  0  0  0  0  0  0
   -3.1706  -17.1508   13.9025 C   0  0  0  0  0  0  0  0  0  0  0  0
   -3.1501  -17.7543   15.1555 C   0  0  0  0  0  0  0  0  0  0  0  0
   -2.2470  -18.9401   15.5033 C   0  0  0  0  0  0  0  0  0  0  0  0
   -0.2088  -19.3591   16.8148 C   0  0  1  0  0  0  0  0  0  0  0  0
   -5.7127  -14.3742   14.5033 C   0  0  0  0  0  0  0  0  0  0  0  0
   -4.8058  -15.5854   14.7263 C   0  0  0  0  0  0  0  0  0  0  0  0
   -3.9790  -17.2334   16.1440 C   0  0  0  0  0  0  0  0  0  0  0  0
   -1.2744  -17.3659   17.0878 C   0  0  0  0  0  0  0  0  0  0  0  0
    0.6771  -18.8525   17.7582 C   0  0  2  0  0  0  0  0  0  0  0  0
    1.9515  -19.4499   18.3603 C   0  0  0  0  0  0  0  0  0  0  0  0
    2.9510  -18.3847   18.8170 C   0  0  0  0  0  0  0  0  0  0  0  0
   -4.0041  -16.0535   13.6768 N   0  0  0  0  0  0  0  0  0  0  0  0
   -1.2250  -18.5560   16.4876 N   0  0  0  0  0  0  0  0  0  0  0  0
   -4.7627  -16.1952   15.9196 N   0  0  0  0  0  0  0  0  0  0  0  0
   -2.4559  -17.5765   12.9948 O   0  0  0  0  0  0  0  0  0  0  0  0
    6.3780  -20.3059   19.0566 O   0  5  0  0  0  0  0  0  0  0  0  0
    5.4015  -17.4602   22.4779 O   0  0  0  0  0  0  0  0  0  0  0  0
    4.3029  -18.8355   18.6870 O   0  0  0  0  0  0  0  0  0  0  0  0
    5.0055  -19.5575   21.0679 O   0  0  0  0  0  0  0  0  0  0  0  0
    7.3552  -19.1000   22.0465 O   0  5  0  0  0  0  0  0  0  0  0  0
    4.0136  -21.2797   19.4348 O   0  0  0  0  0  0  0  0  0  0  0  0
    6.4330  -17.6512   20.1390 O   0  0  0  0  0  0  0  0  0  0  0  0
    0.0458  -17.2979   18.2250 S   0  0  0  0  0  0  0  0  0  0  0  0
    4.8642  -20.0729   19.5512 P   0  0  2  0  0  0  0  0  0  0  0  0
    6.1331  -18.4883   21.4786 P   0  0  2  0  0  0  0  0  0  0  0  0
  2 16  2  0  0  0  0
  2  3  1  0  0  0  0
  2 13  1  0  0  0  0
  3  8  2  0  0  0  0
  3  4  1  0  0  0  0
  4 14  1  0  0  0  0
  5  1  1  6  0  0  0
  5 14  1  0  0  0  0
  5 10  1  0  0  0  0
  6  7  1  0  0  0  0
  7 13  1  0  0  0  0
  7 15  2  0  0  0  0
  8 15  1  0  0  0  0
  9 14  1  0  0  0  0
  9 24  1  0  0  0  0
 10 24  1  0  0  0  0
 10 11  1  1  0  0  0
 11 12  1  0  0  0  0
 12 19  1  0  0  0  0
 17 25  1  0  0  0  0
 19 25  1  0  0  0  0
 20 26  1  0  0  0  0
 21 26  1  0  0  0  0
 22 25  2  0  0  0  0
 23 26  2  0  0  0  0
 25 20  1  1  0  0  0
 26 18  1  1  0  0  0
M  CHG  2  17  -1  21  -1
M  END
>  <CHROM.1>
112.81297409,152.54817119,-148.48899016,-170.68521201,-64.51565403,41.99174095
177.01773717,137.99087690,1.29688929,-18.30821329,17.93116752,-3.03022317
-0.57736847,0.58843532

>  <Name>
ligand

>  <RI>
0

>  <Rbt.Current_Directory>
/home/itssahil/PROJECTS/Mol_Feturizer/New_Systems/rnas/3D2X

>  <Rbt.Executable>
rbdock ($Id: //depot/dev/client3/rdock/2013.1/src/exe/rbdock.cxx#4 $)

>  <Rbt.Library>
libRbt.so (2013.1, Build901 2013/11/27)

>  <Rbt.Parameter_File>
/export/apps/rDock/src/rDock_2013.1_src/data/scripts/dock_solv.prm

>  <Rbt.Receptor>
prm/blind_docking_80.prm

>  <SCORE>
-15.7073

>  <SCORE.INTER>
-18.9782

>  <SCORE.INTER.CONST>
1

>  <SCORE.INTER.POLAR>
0

>  <SCORE.INTER.ROT>
8

>  <SCORE.INTER.SOLV>
19.2459

>  <SCORE.INTER.VDW>
-28.0008

>  <SCORE.INTER.norm>
-0.729933

>  <SCORE.INTRA>
3.27096

>  <SCORE.INTRA.DIHEDRAL>
2.03092

>  <SCORE.INTRA.DIHEDRAL.0>
7.88077

>  <SCORE.INTRA.POLAR>
0

>  <SCORE.INTRA.POLAR.0>
0

>  <SCORE.INTRA.REPUL>
0

>  <SCORE.INTRA.REPUL.0>
0

>  <SCORE.INTRA.SOLV>
1.31622

>  <SCORE.INTRA.SOLV.lig_0>
-63.2542

>  <SCORE.INTRA.VDW>
1.59739

>  <SCORE.INTRA.VDW.0>
-3.15072

>  <SCORE.INTRA.norm>
0.125806

>  <SCORE.RESTR>
0

>  <SCORE.RESTR.CAVITY>
0

>  <SCORE.RESTR.norm>
0

>  <SCORE.SYSTEM>
0

>  <SCORE.SYSTEM.CONST>
0

>  <SCORE.SYSTEM.DIHEDRAL>
0

>  <SCORE.SYSTEM.SOLV>
0

>  <SCORE.SYSTEM.norm>
0

>  <SCORE.heavy>
26

>  <SCORE.norm>
-0.604126

>  <RMSD>
11.521

$$$$
ligand
 OpenBabel11021811473D
libRbt.so/2013.1/901 2013/11/27
 26 27  0  0  0  0  0  0  0  0999 V2000
   -0.8335  -17.2531   17.4134 C   0  0  0  0  0  0  0  0  0  0  0  0
    3.5051  -17.3949   19.5655 C   0  0  0  0  0  0  0  0  0  0  0  0
    2.6756  -18.4683   19.2584 C   0  0  0  0  0  0  0  0  0  0  0  0
    1.1476  -18.3817   19.2736 C   0  0  0  0  0  0  0  0  0  0  0  0
   -0.3440  -18.7027   17.3442 C   0  0  1  0  0  0  0  0  0  0  0  0
    6.9303  -18.9797   19.0279 C   0  0  0  0  0  0  0  0  0  0  0  0
    5.4151  -18.7946   19.1228 C   0  0  0  0  0  0  0  0  0  0  0  0
    3.2729  -19.6720   18.8980 C   0  0  0  0  0  0  0  0  0  0  0  0
    0.9294  -20.4626   18.0257 C   0  0  0  0  0  0  0  0  0  0  0  0
   -0.8015  -19.5914   16.3787 C   0  0  2  0  0  0  0  0  0  0  0  0
   -1.8007  -19.4025   15.2344 C   0  0  0  0  0  0  0  0  0  0  0  0
   -2.7704  -20.5777   15.0897 C   0  0  0  0  0  0  0  0  0  0  0  0
    4.8912  -17.5507   19.4991 N   0  0  0  0  0  0  0  0  0  0  0  0
    0.5609  -19.1921   18.1965 N   0  0  0  0  0  0  0  0  0  0  0  0
    4.5846  -19.8079   18.8380 N   0  0  0  0  0  0  0  0  0  0  0  0
    3.0238  -16.3095   19.8912 O   0  0  0  0  0  0  0  0  0  0  0  0
   -5.8720  -19.8177   17.3606 O   0  5  0  0  0  0  0  0  0  0  0  0
   -3.2631  -16.7370   15.3867 O   0  0  0  0  0  0  0  0  0  0  0  0
   -3.7501  -20.5885   16.1327 O   0  0  0  0  0  0  0  0  0  0  0  0
   -5.0830  -18.5329   15.3073 O   0  0  0  0  0  0  0  0  0  0  0  0
   -5.5193  -16.3265   16.5840 O   0  5  0  0  0  0  0  0  0  0  0  0
   -6.0482  -20.8998   15.0197 O   0  0  0  0  0  0  0  0  0  0  0  0
   -3.8605  -18.0572   17.5013 O   0  0  0  0  0  0  0  0  0  0  0  0
   -0.0184  -21.1106   16.7132 S   0  0  0  0  0  0  0  0  0  0  0  0
   -5.2385  -20.0215   15.8951 P   0  0  2  0  0  0  0  0  0  0  0  0
   -4.5049  -17.3391   16.2151 P   0  0  2  0  0  0  0  0  0  0  0  0
  2 16  2  0  0  0  0
  2  3  1  0  0  0  0
  2 13  1  0  0  0  0
  3  8  2  0  0  0  0
  3  4  1  0  0  0  0
  4 14  1  0  0  0  0
  5  1  1  6  0  0  0
  5 14  1  0  0  0  0
  5 10  1  0  0  0  0
  6  7  1  0  0  0  0
  7 13  1  0  0  0  0
  7 15  2  0  0  0  0
  8 15  1  0  0  0  0
  9 14  1  0  0  0  0
  9 24  1  0  0  0  0
 10 24  1  0  0  0  0
 10 11  1  1  0  0  0
 11 12  1  0  0  0  0
 12 19  1  0  0  0  0
 17 25  1  0  0  0  0
 19 25  1  0  0  0  0
 20 26  1  0  0  0  0
 21 26  1  0  0  0  0
 22 25  2  0  0  0  0
 23 26  2  0  0  0  0
 25 20  1  6  0  0  0
 26 18  1  6  0  0  0
M  CHG  2  17  -1  21  -1
M  END
>  <CHROM.1>
143.60367502,-137.15034465,73.47149626,-129.18748640,99.85954646,43.84813598
-164.19340918,124.88671313,-1.01871363,-18.90350645,17.23076154,0.14250022
-0.30815673,0.30979048

>  <Name>
ligand

>  <RI>
0

>  <Rbt.Current_Directory>
/home/itssahil/PROJECTS/Mol_Feturizer/New_Systems/rnas/3D2X

>  <Rbt.Executable>
rbdock ($Id: //depot/dev/client3/rdock/2013.1/src/exe/rbdock.cxx#4 $)

>  <Rbt.Library>
libRbt.so (2013.1, Build901 2013/11/27)

>  <Rbt.Parameter_File>
/export/apps/rDock/src/rDock_2013.1_src/data/scripts/dock_solv.prm

>  <Rbt.Receptor>
prm/blind_docking_40.prm

>  <SCORE>
-13.4682

>  <SCORE.INTER>
-18.2819

>  <SCORE.INTER.CONST>
1

>  <SCORE.INTER.POLAR>
0

>  <SCORE.INTER.ROT>
8

>  <SCORE.INTER.SOLV>
17.0209

>  <SCORE.INTER.VDW>
-26.7949

>  <SCORE.INTER.norm>
-0.703151

>  <SCORE.INTRA>
4.81375

>  <SCORE.INTRA.DIHEDRAL>
6.02211

>  <SCORE.INTRA.DIHEDRAL.0>
7.88077

>  <SCORE.INTRA.POLAR>
0

>  <SCORE.INTRA.POLAR.0>
0

>  <SCORE.INTRA.REPUL>
0

>  <SCORE.INTRA.REPUL.0>
0

>  <SCORE.INTRA.SOLV>
2.65878

>  <SCORE.INTRA.SOLV.lig_0>
-63.2542

>  <SCORE.INTRA.VDW>
0.473302

>  <SCORE.INTRA.VDW.0>
-3.15072

>  <SCORE.INTRA.norm>
0.185144

>  <SCORE.RESTR>
0

>  <SCORE.RESTR.CAVITY>
0

>  <SCORE.RESTR.norm>
0

>  <SCORE.SYSTEM>
0

>  <SCORE.SYSTEM.CONST>
0

>  <SCORE.SYSTEM.DIHEDRAL>
0

>  <SCORE.SYSTEM.SOLV>
0

>  <SCORE.SYSTEM.norm>
0

>  <SCORE.heavy>
26

>  <SCORE.norm>
-0.518007

>  <RMSD>
11.551

$$$$
ligand
 OpenBabel11021811473D
libRbt.so/2013.1/901 2013/11/27
 26 27  0  0  0  0  0  0  0  0999 V2000
   -1.4303  -20.9995   15.0238 C   0  0  0  0  0  0  0  0  0  0  0  0
   -0.0971  -17.7504   17.5140 C   0  0  0  0  0  0  0  0  0  0  0  0
    0.8704  -18.7493   17.4864 C   0  0  0  0  0  0  0  0  0  0  0  0
    0.8847  -19.8781   16.4528 C   0  0  0  0  0  0  0  0  0  0  0  0
   -0.8796  -21.5873   16.3264 C   0  0  1  0  0  0  0  0  0  0  0  0
    1.1480  -15.6493   20.4411 C   0  0  0  0  0  0  0  0  0  0  0  0
    1.0374  -16.7576   19.3930 C   0  0  0  0  0  0  0  0  0  0  0  0
    1.8862  -18.6999   18.4357 C   0  0  0  0  0  0  0  0  0  0  0  0
    0.5819  -21.6749   18.0698 C   0  0  0  0  0  0  0  0  0  0  0  0
   -1.4379  -22.7112   16.9235 C   0  0  2  0  0  0  0  0  0  0  0  0
   -2.6179  -23.5901   16.5009 C   0  0  0  0  0  0  0  0  0  0  0  0
   -3.6268  -22.8501   15.6195 C   0  0  0  0  0  0  0  0  0  0  0  0
   -0.0203  -16.7393   18.4740 N   0  0  0  0  0  0  0  0  0  0  0  0
    0.1768  -21.0645   16.9553 N   0  0  0  0  0  0  0  0  0  0  0  0
    1.9493  -17.7390   19.3386 N   0  0  0  0  0  0  0  0  0  0  0  0
   -1.0167  -17.7517   16.6954 O   0  0  0  0  0  0  0  0  0  0  0  0
   -6.1668  -21.4758   14.6222 O   0  5  0  0  0  0  0  0  0  0  0  0
   -7.9750  -19.8067   18.3602 O   0  0  0  0  0  0  0  0  0  0  0  0
   -4.2696  -21.7858   16.3278 O   0  0  0  0  0  0  0  0  0  0  0  0
   -6.0655  -19.9569   16.6648 O   0  0  0  0  0  0  0  0  0  0  0  0
   -8.5099  -20.2268   15.8643 O   0  5  0  0  0  0  0  0  0  0  0  0
   -4.2944  -19.7044   14.8165 O   0  0  0  0  0  0  0  0  0  0  0  0
   -7.3913  -22.0552   17.2764 O   0  0  0  0  0  0  0  0  0  0  0  0
   -0.5288  -22.9819   18.3841 S   0  0  0  0  0  0  0  0  0  0  0  0
   -5.1381  -20.6680   15.5601 P   0  0  2  0  0  0  0  0  0  0  0  0
   -7.5534  -20.4864   16.9635 P   0  0  2  0  0  0  0  0  0  0  0  0
  2 16  2  0  0  0  0
  2  3  1  0  0  0  0
  2 13  1  0  0  0  0
  3  8  2  0  0  0  0
  3  4  1  0  0  0  0
  4 14  1  0  0  0  0
  5  1  1  6  0  0  0
  5 14  1  0  0  0  0
  5 10  1  0  0  0  0
  6  7  1  0  0  0  0
  7 13  1  0  0  0  0
  7 15  2  0  0  0  0
  8 15  1  0  0  0  0
  9 14  1  0  0  0  0
  9 24  1  0  0  0  0
 10 24  1  0  0  0  0
 10 11  1  1  0  0  0
 11 12  1  0  0  0  0
 12 19  1  0  0  0  0
 17 25  1  0  0  0  0
 19 25  1  0  0  0  0
 20 26  1  0  0  0  0
 21 26  1  0  0  0  0
 22 25  2  0  0  0  0
 23 26  2  0  0  0  0
 25 20  1  1  0  0  0
 26 18  1  1  0  0  0
M  CHG  2  17  -1  21  -1
M  END
>  <CHROM.1>
-92.94615201,-25.30569250,-64.98409586,121.04985361,167.14394511,19.82260979
50.83547474,164.84565478,-2.77797668,-20.30106203,17.03638490,-0.35641564
0.15371557,-2.81741020

>  <Name>
ligand

>  <RI>
0

>  <Rbt.Current_Directory>
/home/itssahil/PROJECTS/Mol_Feturizer/New_Systems/rnas/3D2X

>  <Rbt.Executable>
rbdock ($Id: //depot/dev/client3/rdock/2013.1/src/exe/rbdock.cxx#4 $)

>  <Rbt.Library>
libRbt.so (2013.1, Build901 2013/11/27)

>  <Rbt.Parameter_File>
/export/apps/rDock/src/rDock_2013.1_src/data/scripts/dock_solv.prm

>  <Rbt.Receptor>
prm/blind_docking_60.prm

>  <SCORE>
-17.9793

>  <SCORE.INTER>
-20.543

>  <SCORE.INTER.CONST>
1

>  <SCORE.INTER.POLAR>
0

>  <SCORE.INTER.ROT>
8

>  <SCORE.INTER.SOLV>
18.6421

>  <SCORE.INTER.VDW>
-28.8427

>  <SCORE.INTER.norm>
-0.790115

>  <SCORE.INTRA>
2.56374

>  <SCORE.INTRA.DIHEDRAL>
0.125822

>  <SCORE.INTRA.DIHEDRAL.0>
7.88077

>  <SCORE.INTRA.POLAR>
0

>  <SCORE.INTRA.POLAR.0>
0

>  <SCORE.INTRA.REPUL>
0.00766829

>  <SCORE.INTRA.REPUL.0>
0

>  <SCORE.INTRA.SOLV>
1.90625

>  <SCORE.INTRA.SOLV.lig_0>
-63.2542

>  <SCORE.INTRA.VDW>
1.50936

>  <SCORE.INTRA.VDW.0>
-3.15072

>  <SCORE.INTRA.norm>
0.0986053

>  <SCORE.RESTR>
0

>  <SCORE.RESTR.CAVITY>
0

>  <SCORE.RESTR.norm>
0

>  <SCORE.SYSTEM>
0

>  <SCORE.SYSTEM.CONST>
0

>  <SCORE.SYSTEM.DIHEDRAL>
0

>  <SCORE.SYSTEM.SOLV>
0

>  <SCORE.SYSTEM.norm>
0

>  <SCORE.heavy>
26

>  <SCORE.norm>
-0.69151

>  <RMSD>
11.569

$$$$
ligand
 OpenBabel11021811473D
libRbt.so/2013.1/901 2013/11/27
 26 27  0  0  0  0  0  0  0  0999 V2000
    0.1485  -18.3189   17.0127 C   0  0  0  0  0  0  0  0  0  0  0  0
    4.8317  -18.8032   18.8010 C   0  0  0  0  0  0  0  0  0  0  0  0
    3.6702  -18.6654   19.5538 C   0  0  0  0  0  0  0  0  0  0  0  0
    2.2664  -18.8710   18.9795 C   0  0  0  0  0  0  0  0  0  0  0  0
    0.5278  -17.3493   18.1359 C   0  0  1  0  0  0  0  0  0  0  0  0
    7.4762  -18.1308   21.4632 C   0  0  0  0  0  0  0  0  0  0  0  0
    6.1225  -18.3113   20.7746 C   0  0  0  0  0  0  0  0  0  0  0  0
    3.8005  -18.3467   20.9017 C   0  0  0  0  0  0  0  0  0  0  0  0
    1.7171  -16.7143   19.9704 C   0  0  0  0  0  0  0  0  0  0  0  0
   -0.1188  -16.1314   18.3098 C   0  0  2  0  0  0  0  0  0  0  0  0
   -1.2664  -15.4845   17.5302 C   0  0  0  0  0  0  0  0  0  0  0  0
   -2.4923  -16.3929   17.4106 C   0  0  0  0  0  0  0  0  0  0  0  0
    6.0757  -18.6265   19.4101 N   0  0  0  0  0  0  0  0  0  0  0  0
    1.4897  -17.6236   19.0215 N   0  0  0  0  0  0  0  0  0  0  0  0
    4.9818  -18.1824   21.4673 N   0  0  0  0  0  0  0  0  0  0  0  0
    4.7680  -19.0832   17.6038 O   0  0  0  0  0  0  0  0  0  0  0  0
   -5.6661  -15.6763   15.1945 O   0  5  0  0  0  0  0  0  0  0  0  0
   -4.1697  -19.4004   17.4952 O   0  0  0  0  0  0  0  0  0  0  0  0
   -3.4686  -15.8513   16.5155 O   0  0  0  0  0  0  0  0  0  0  0  0
   -4.5256  -17.9426   15.4235 O   0  0  0  0  0  0  0  0  0  0  0  0
   -6.2919  -19.7242   16.0516 O   0  5  0  0  0  0  0  0  0  0  0  0
   -5.6221  -16.8685   17.4876 O   0  0  0  0  0  0  0  0  0  0  0  0
   -3.9927  -20.4281   15.1535 O   0  0  0  0  0  0  0  0  0  0  0  0
    0.6663  -15.3582   19.6585 S   0  0  0  0  0  0  0  0  0  0  0  0
   -4.8672  -16.6011   16.2418 P   0  0  2  0  0  0  0  0  0  0  0  0
   -4.8496  -19.3928   16.0362 P   0  0  2  0  0  0  0  0  0  0  0  0
  2 16  2  0  0  0  0
  2  3  1  0  0  0  0
  2 13  1  0  0  0  0
  3  8  2  0  0  0  0
  3  4  1  0  0  0  0
  4 14  1  0  0  0  0
  5  1  1  1  0  0  0
  5 14  1  0  0  0  0
  5 10  1  0  0  0  0
  6  7  1  0  0  0  0
  7 13  1  0  0  0  0
  7 15  2  0  0  0  0
  8 15  1  0  0  0  0
  9 14  1  0  0  0  0
  9 24  1  0  0  0  0
 10 24  1  0  0  0  0
 10 11  1  6  0  0  0
 11 12  1  0  0  0  0
 12 19  1  0  0  0  0
 17 25  1  0  0  0  0
 19 25  1  0  0  0  0
 20 26  1  0  0  0  0
 21 26  1  0  0  0  0
 22 25  2  0  0  0  0
 23 26  2  0  0  0  0
 25 20  1  6  0  0  0
 26 18  1  1  0  0  0
M  CHG  2  17  -1  21  -1
M  END
>  <CHROM.1>
-116.10379650,53.63126318,-171.32151232,150.94587445,-178.60384532,-130.26897521
179.90367823,-52.39249035,-0.53970032,-17.70912516,17.93553081,-0.09395320
0.37053662,-2.81533838

>  <Name>
ligand

>  <RI>
0

>  <Rbt.Current_Directory>
/home/itssahil/PROJECTS/Mol_Feturizer/New_Systems/rnas/3D2X

>  <Rbt.Executable>
rbdock ($Id: //depot/dev/client3/rdock/2013.1/src/exe/rbdock.cxx#4 $)

>  <Rbt.Library>
libRbt.so (2013.1, Build901 2013/11/27)

>  <Rbt.Parameter_File>
/export/apps/rDock/src/rDock_2013.1_src/data/scripts/dock_solv.prm

>  <Rbt.Receptor>
prm/blind_docking_80.prm

>  <SCORE>
-18.47

>  <SCORE.INTER>
-17.875

>  <SCORE.INTER.CONST>
1

>  <SCORE.INTER.POLAR>
0

>  <SCORE.INTER.ROT>
8

>  <SCORE.INTER.SOLV>
14.3391

>  <SCORE.INTER.VDW>
-25.6297

>  <SCORE.INTER.norm>
-0.687501

>  <SCORE.INTRA>
-0.59503

>  <SCORE.INTRA.DIHEDRAL>
-0.420397

>  <SCORE.INTRA.DIHEDRAL.0>
7.88077

>  <SCORE.INTRA.POLAR>
0

>  <SCORE.INTRA.POLAR.0>
0

>  <SCORE.INTRA.REPUL>
0

>  <SCORE.INTRA.REPUL.0>
0

>  <SCORE.INTRA.SOLV>
-2.166

>  <SCORE.INTRA.SOLV.lig_0>
-63.2542

>  <SCORE.INTRA.VDW>
0.698168

>  <SCORE.INTRA.VDW.0>
-3.15072

>  <SCORE.INTRA.norm>
-0.0228858

>  <SCORE.RESTR>
0

>  <SCORE.RESTR.CAVITY>
0

>  <SCORE.RESTR.norm>
0

>  <SCORE.SYSTEM>
0

>  <SCORE.SYSTEM.CONST>
0

>  <SCORE.SYSTEM.DIHEDRAL>
0

>  <SCORE.SYSTEM.SOLV>
0

>  <SCORE.SYSTEM.norm>
0

>  <SCORE.heavy>
26

>  <SCORE.norm>
-0.710386

>  <RMSD>
11.626

$$$$
ligand
 OpenBabel11021811473D
libRbt.so/2013.1/901 2013/11/27
 26 27  0  0  0  0  0  0  0  0999 V2000
   -3.1477  -23.4703   16.1971 C   0  0  0  0  0  0  0  0  0  0  0  0
    1.2384  -24.5786   18.3968 C   0  0  0  0  0  0  0  0  0  0  0  0
    0.6373  -23.3260   18.3305 C   0  0  0  0  0  0  0  0  0  0  0  0
   -0.8404  -23.1192   17.9894 C   0  0  0  0  0  0  0  0  0  0  0  0
   -2.0299  -22.4550   15.9414 C   0  0  1  0  0  0  0  0  0  0  0  0
    4.7797  -23.6035   19.4168 C   0  0  0  0  0  0  0  0  0  0  0  0
    3.3061  -23.5102   19.0181 C   0  0  0  0  0  0  0  0  0  0  0  0
    1.4202  -22.2110   18.6123 C   0  0  0  0  0  0  0  0  0  0  0  0
   -0.0930  -21.3766   16.4598 C   0  0  0  0  0  0  0  0  0  0  0  0
   -2.0358  -21.6129   14.8358 C   0  0  2  0  0  0  0  0  0  0  0  0
   -3.0435  -21.4648   13.6930 C   0  0  0  0  0  0  0  0  0  0  0  0
   -4.1015  -20.3932   13.9663 C   0  0  0  0  0  0  0  0  0  0  0  0
    2.5870  -24.6811   18.7441 N   0  0  0  0  0  0  0  0  0  0  0  0
   -0.9941  -22.3090   16.7724 N   0  0  0  0  0  0  0  0  0  0  0  0
    2.6942  -22.3197   18.9401 N   0  0  0  0  0  0  0  0  0  0  0  0
    0.5873  -25.5951   18.1547 O   0  0  0  0  0  0  0  0  0  0  0  0
   -5.2106  -19.2211   16.3479 O   0  5  0  0  0  0  0  0  0  0  0  0
   -2.1242  -16.4977   18.5429 O   0  0  0  0  0  0  0  0  0  0  0  0
   -3.5129  -19.1700   14.4192 O   0  0  0  0  0  0  0  0  0  0  0  0
   -3.1100  -17.7976   16.5727 O   0  0  0  0  0  0  0  0  0  0  0  0
   -3.0743  -15.2124   16.5089 O   0  5  0  0  0  0  0  0  0  0  0  0
   -4.9419  -17.0886   14.9120 O   0  0  0  0  0  0  0  0  0  0  0  0
   -4.6502  -16.4552   18.1090 O   0  0  0  0  0  0  0  0  0  0  0  0
   -0.5681  -20.6805   14.9332 S   0  0  0  0  0  0  0  0  0  0  0  0
   -4.2389  -18.2428   15.5176 P   0  0  2  0  0  0  0  0  0  0  0  0
   -3.2229  -16.4067   17.3703 P   0  0  2  0  0  0  0  0  0  0  0  0
  2 16  2  0  0  0  0
  2  3  1  0  0  0  0
  2 13  1  0  0  0  0
  3  8  2  0  0  0  0
  3  4  1  0  0  0  0
  4 14  1  0  0  0  0
  5  1  1  1  0  0  0
  5 14  1  0  0  0  0
  5 10  1  0  0  0  0
  6  7  1  0  0  0  0
  7 13  1  0  0  0  0
  7 15  2  0  0  0  0
  8 15  1  0  0  0  0
  9 14  1  0  0  0  0
  9 24  1  0  0  0  0
 10 24  1  0  0  0  0
 10 11  1  6  0  0  0
 11 12  1  0  0  0  0
 12 19  1  0  0  0  0
 17 25  1  0  0  0  0
 19 25  1  0  0  0  0
 20 26  1  0  0  0  0
 21 26  1  0  0  0  0
 22 25  2  0  0  0  0
 23 26  2  0  0  0  0
 25 20  1  1  0  0  0
 26 18  1  1  0  0  0
M  CHG  2  17  -1  21  -1
M  END
>  <CHROM.1>
-119.44181069,92.45873881,48.33673631,149.61830522,-144.27914161,-96.70256278
24.20617164,167.03838742,-1.57999255,-20.43857882,16.73623326,0.58899651
0.67002315,-2.72122060

>  <Name>
ligand

>  <RI>
0

>  <Rbt.Current_Directory>
/home/itssahil/PROJECTS/Mol_Feturizer/New_Systems/rnas/3D2X

>  <Rbt.Executable>
rbdock ($Id: //depot/dev/client3/rdock/2013.1/src/exe/rbdock.cxx#4 $)

>  <Rbt.Library>
libRbt.so (2013.1, Build901 2013/11/27)

>  <Rbt.Parameter_File>
/export/apps/rDock/src/rDock_2013.1_src/data/scripts/dock_solv.prm

>  <Rbt.Receptor>
prm/blind_docking_80.prm

>  <SCORE>
-8.16753

>  <SCORE.INTER>
-13.1626

>  <SCORE.INTER.CONST>
1

>  <SCORE.INTER.POLAR>
0

>  <SCORE.INTER.ROT>
8

>  <SCORE.INTER.SOLV>
9.11716

>  <SCORE.INTER.VDW>
-20.7475

>  <SCORE.INTER.norm>
-0.506255

>  <SCORE.INTRA>
3.30457

>  <SCORE.INTRA.DIHEDRAL>
5.53073

>  <SCORE.INTRA.DIHEDRAL.0>
7.88077

>  <SCORE.INTRA.POLAR>
0

>  <SCORE.INTRA.POLAR.0>
0

>  <SCORE.INTRA.REPUL>
0

>  <SCORE.INTRA.REPUL.0>
0

>  <SCORE.INTRA.SOLV>
0.456694

>  <SCORE.INTRA.SOLV.lig_0>
-63.2542

>  <SCORE.INTRA.VDW>
0.310859

>  <SCORE.INTRA.VDW.0>
-3.15072

>  <SCORE.INTRA.norm>
0.127099

>  <SCORE.RESTR>
1.69053

>  <SCORE.RESTR.CAVITY>
1.69053

>  <SCORE.RESTR.norm>
0.0650206

>  <SCORE.SYSTEM>
0

>  <SCORE.SYSTEM.CONST>
0

>  <SCORE.SYSTEM.DIHEDRAL>
0

>  <SCORE.SYSTEM.SOLV>
0

>  <SCORE.SYSTEM.norm>
0

>  <SCORE.heavy>
26

>  <SCORE.norm>
-0.314136

>  <RMSD>
11.644

$$$$
ligand
 OpenBabel11021811473D
libRbt.so/2013.1/901 2013/11/27
 26 27  0  0  0  0  0  0  0  0999 V2000
   -2.1618  -17.8081   17.1564 C   0  0  0  0  0  0  0  0  0  0  0  0
   -4.4782  -20.8073   15.1317 C   0  0  0  0  0  0  0  0  0  0  0  0
   -3.6891  -20.1565   14.1892 C   0  0  0  0  0  0  0  0  0  0  0  0
   -2.7897  -18.9642   14.5242 C   0  0  0  0  0  0  0  0  0  0  0  0
   -1.2986  -18.8764   16.4785 C   0  0  1  0  0  0  0  0  0  0  0  0
   -6.0311  -23.5423   12.9775 C   0  0  0  0  0  0  0  0  0  0  0  0
   -5.2074  -22.3294   13.4128 C   0  0  0  0  0  0  0  0  0  0  0  0
   -3.7063  -20.6339   12.8825 C   0  0  0  0  0  0  0  0  0  0  0  0
   -0.7937  -20.3328   14.8031 C   0  0  0  0  0  0  0  0  0  0  0  0
   -0.1507  -19.3854   17.0740 C   0  0  2  0  0  0  0  0  0  0  0  0
    0.5032  -19.0726   18.4223 C   0  0  0  0  0  0  0  0  0  0  0  0
    2.0304  -19.0103   18.3439 C   0  0  0  0  0  0  0  0  0  0  0  0
   -5.2486  -21.9069   14.7482 N   0  0  0  0  0  0  0  0  0  0  0  0
   -1.6064  -19.3913   15.2848 N   0  0  0  0  0  0  0  0  0  0  0  0
   -4.4381  -21.6748   12.5312 N   0  0  0  0  0  0  0  0  0  0  0  0
   -4.4976  -20.4212   16.3007 O   0  0  0  0  0  0  0  0  0  0  0  0
    4.3925  -17.0523   20.4913 O   0  5  0  0  0  0  0  0  0  0  0  0
    6.2772  -17.9854   22.1294 O   0  0  0  0  0  0  0  0  0  0  0  0
    2.6135  -18.6837   19.6092 O   0  0  0  0  0  0  0  0  0  0  0  0
    4.6970  -19.5531   20.8689 O   0  0  0  0  0  0  0  0  0  0  0  0
    6.4598  -20.5416   22.4825 O   0  5  0  0  0  0  0  0  0  0  0  0
    4.9288  -18.5994   18.4912 O   0  0  0  0  0  0  0  0  0  0  0  0
    7.1777  -19.4856   20.2560 O   0  0  0  0  0  0  0  0  0  0  0  0
    0.5188  -20.5209   15.9356 S   0  0  0  0  0  0  0  0  0  0  0  0
    4.2024  -18.4817   19.7765 P   0  0  2  0  0  0  0  0  0  0  0  0
    6.1692  -19.4663   21.5080 P   0  0  2  0  0  0  0  0  0  0  0  0
  2 16  2  0  0  0  0
  2  3  1  0  0  0  0
  2 13  1  0  0  0  0
  3  8  2  0  0  0  0
  3  4  1  0  0  0  0
  4 14  1  0  0  0  0
  5  1  1  1  0  0  0
  5 14  1  0  0  0  0
  5 10  1  0  0  0  0
  6  7  1  0  0  0  0
  7 13  1  0  0  0  0
  7 15  2  0  0  0  0
  8 15  1  0  0  0  0
  9 14  1  0  0  0  0
  9 24  1  0  0  0  0
 10 24  1  0  0  0  0
 10 11  1  6  0  0  0
 11 12  1  0  0  0  0
 12 19  1  0  0  0  0
 17 25  1  0  0  0  0
 19 25  1  0  0  0  0
 20 26  1  0  0  0  0
 21 26  1  0  0  0  0
 22 25  2  0  0  0  0
 23 26  2  0  0  0  0
 25 20  1  1  0  0  0
 26 18  1  1  0  0  0
M  CHG  2  17  -1  21  -1
M  END
>  <CHROM.1>
73.02340952,-139.89594101,178.54319742,-123.81102624,-176.79360041,-55.98006145
127.60294616,55.61100908,0.79382401,-19.71710976,17.55408753,2.77056433,0.52021423
-2.78535761

>  <Name>
ligand

>  <RI>
0

>  <Rbt.Current_Directory>
/home/itssahil/PROJECTS/Mol_Feturizer/New_Systems/rnas/3D2X

>  <Rbt.Executable>
rbdock ($Id: //depot/dev/client3/rdock/2013.1/src/exe/rbdock.cxx#4 $)

>  <Rbt.Library>
libRbt.so (2013.1, Build901 2013/11/27)

>  <Rbt.Parameter_File>
/export/apps/rDock/src/rDock_2013.1_src/data/scripts/dock_solv.prm

>  <Rbt.Receptor>
prm/blind_docking_60.prm

>  <SCORE>
-19.2503

>  <SCORE.INTER>
-18.9495

>  <SCORE.INTER.CONST>
1

>  <SCORE.INTER.POLAR>
0

>  <SCORE.INTER.ROT>
8

>  <SCORE.INTER.SOLV>
15.8285

>  <SCORE.INTER.VDW>
-26.8425

>  <SCORE.INTER.norm>
-0.728828

>  <SCORE.INTRA>
-0.300816

>  <SCORE.INTRA.DIHEDRAL>
-0.284969

>  <SCORE.INTRA.DIHEDRAL.0>
7.88077

>  <SCORE.INTRA.POLAR>
0

>  <SCORE.INTRA.POLAR.0>
0

>  <SCORE.INTRA.REPUL>
0

>  <SCORE.INTRA.REPUL.0>
0

>  <SCORE.INTRA.SOLV>
-0.515793

>  <SCORE.INTRA.SOLV.lig_0>
-63.2542

>  <SCORE.INTRA.VDW>
0.0995653

>  <SCORE.INTRA.VDW.0>
-3.15072

>  <SCORE.INTRA.norm>
-0.0115698

>  <SCORE.RESTR>
0

>  <SCORE.RESTR.CAVITY>
0

>  <SCORE.RESTR.norm>
0

>  <SCORE.SYSTEM>
0

>  <SCORE.SYSTEM.CONST>
0

>  <SCORE.SYSTEM.DIHEDRAL>
0

>  <SCORE.SYSTEM.SOLV>
0

>  <SCORE.SYSTEM.norm>
0

>  <SCORE.heavy>
26

>  <SCORE.norm>
-0.740397

>  <RMSD>
11.651

$$$$
ligand
 OpenBabel11021811473D
libRbt.so/2013.1/901 2013/11/27
 26 27  0  0  0  0  0  0  0  0999 V2000
   -0.5488  -15.5800   18.6472 C   0  0  0  0  0  0  0  0  0  0  0  0
    3.8800  -17.6692   21.1465 C   0  0  0  0  0  0  0  0  0  0  0  0
    3.1657  -17.4987   19.9652 C   0  0  0  0  0  0  0  0  0  0  0  0
    1.7608  -16.8936   19.9117 C   0  0  0  0  0  0  0  0  0  0  0  0
   -0.1398  -17.0269   18.3561 C   0  0  1  0  0  0  0  0  0  0  0  0
    7.1325  -19.1273   19.7945 C   0  0  0  0  0  0  0  0  0  0  0  0
    5.7150  -18.5570   19.8629 C   0  0  0  0  0  0  0  0  0  0  0  0
    3.7751  -17.8790   18.7737 C   0  0  0  0  0  0  0  0  0  0  0  0
    1.1912  -18.8591   18.5899 C   0  0  0  0  0  0  0  0  0  0  0  0
   -0.8358  -17.8240   17.4552 C   0  0  2  0  0  0  0  0  0  0  0  0
   -2.0610  -17.5233   16.5880 C   0  0  0  0  0  0  0  0  0  0  0  0
   -3.3826  -17.7240   17.3333 C   0  0  0  0  0  0  0  0  0  0  0  0
    5.1696  -18.2030   21.1041 N   0  0  0  0  0  0  0  0  0  0  0  0
    0.9167  -17.6012   18.9382 N   0  0  0  0  0  0  0  0  0  0  0  0
    4.9951  -18.3821   18.7453 N   0  0  0  0  0  0  0  0  0  0  0  0
    3.3828  -17.3490   22.2263 O   0  0  0  0  0  0  0  0  0  0  0  0
   -4.1921  -21.4366   16.4464 O   0  5  0  0  0  0  0  0  0  0  0  0
   -7.9424  -19.0572   14.9087 O   0  0  0  0  0  0  0  0  0  0  0  0
   -3.7310  -19.1083   17.4318 O   0  0  0  0  0  0  0  0  0  0  0  0
   -6.0730  -19.7203   16.5239 O   0  0  0  0  0  0  0  0  0  0  0  0
   -6.5814  -21.2140   14.4748 O   0  5  0  0  0  0  0  0  0  0  0  0
   -4.1093  -19.3666   14.9005 O   0  0  0  0  0  0  0  0  0  0  0  0
   -8.2279  -21.0929   16.4402 O   0  0  0  0  0  0  0  0  0  0  0  0
   -0.0520  -19.3790   17.4832 S   0  0  0  0  0  0  0  0  0  0  0  0
   -4.4976  -19.8702   16.2380 P   0  0  2  0  0  0  0  0  0  0  0  0
   -7.1613  -20.3296   15.5101 P   0  0  2  0  0  0  0  0  0  0  0  0
  2 16  2  0  0  0  0
  2  3  1  0  0  0  0
  2 13  1  0  0  0  0
  3  8  2  0  0  0  0
  3  4  1  0  0  0  0
  4 14  1  0  0  0  0
  5  1  1  6  0  0  0
  5 14  1  0  0  0  0
  5 10  1  0  0  0  0
  6  7  1  0  0  0  0
  7 13  1  0  0  0  0
  7 15  2  0  0  0  0
  8 15  1  0  0  0  0
  9 14  1  0  0  0  0
  9 24  1  0  0  0  0
 10 24  1  0  0  0  0
 10 11  1  1  0  0  0
 11 12  1  0  0  0  0
 12 19  1  0  0  0  0
 17 25  1  0  0  0  0
 19 25  1  0  0  0  0
 20 26  1  0  0  0  0
 21 26  1  0  0  0  0
 22 25  2  0  0  0  0
 23 26  2  0  0  0  0
 25 20  1  1  0  0  0
 26 18  1  6  0  0  0
M  CHG  2  17  -1  21  -1
M  END
>  <CHROM.1>
-140.38883476,-84.78489654,-77.95210009,-155.73506693,-84.08631534,-69.54803116
158.14437782,-114.76770651,-1.32926538,-18.83918105,17.71609026,0.34691614
-0.25986508,0.49057252

>  <Name>
ligand

>  <RI>
0

>  <Rbt.Current_Directory>
/home/itssahil/PROJECTS/Mol_Feturizer/New_Systems/rnas/3D2X

>  <Rbt.Executable>
rbdock ($Id: //depot/dev/client3/rdock/2013.1/src/exe/rbdock.cxx#4 $)

>  <Rbt.Library>
libRbt.so (2013.1, Build901 2013/11/27)

>  <Rbt.Parameter_File>
/export/apps/rDock/src/rDock_2013.1_src/data/scripts/dock_solv.prm

>  <Rbt.Receptor>
prm/blind_docking_60.prm

>  <SCORE>
-19.2152

>  <SCORE.INTER>
-21.8362

>  <SCORE.INTER.CONST>
1

>  <SCORE.INTER.POLAR>
0

>  <SCORE.INTER.ROT>
8

>  <SCORE.INTER.SOLV>
17.8527

>  <SCORE.INTER.VDW>
-29.4417

>  <SCORE.INTER.norm>
-0.839855

>  <SCORE.INTRA>
2.62104

>  <SCORE.INTRA.DIHEDRAL>
3.71763

>  <SCORE.INTRA.DIHEDRAL.0>
7.88077

>  <SCORE.INTRA.POLAR>
0

>  <SCORE.INTRA.POLAR.0>
0

>  <SCORE.INTRA.REPUL>
0

>  <SCORE.INTRA.REPUL.0>
0

>  <SCORE.INTRA.SOLV>
0.230164

>  <SCORE.INTRA.SOLV.lig_0>
-63.2542

>  <SCORE.INTRA.VDW>
0.647143

>  <SCORE.INTRA.VDW.0>
-3.15072

>  <SCORE.INTRA.norm>
0.100809

>  <SCORE.RESTR>
0

>  <SCORE.RESTR.CAVITY>
0

>  <SCORE.RESTR.norm>
0

>  <SCORE.SYSTEM>
0

>  <SCORE.SYSTEM.CONST>
0

>  <SCORE.SYSTEM.DIHEDRAL>
0

>  <SCORE.SYSTEM.SOLV>
0

>  <SCORE.SYSTEM.norm>
0

>  <SCORE.heavy>
26

>  <SCORE.norm>
-0.739046

>  <RMSD>
11.675

$$$$
ligand
 OpenBabel11021811473D
libRbt.so/2013.1/901 2013/11/27
 26 27  0  0  0  0  0  0  0  0999 V2000
   -0.4511  -15.3231   19.2566 C   0  0  0  0  0  0  0  0  0  0  0  0
   -2.8747  -15.9363   15.2391 C   0  0  0  0  0  0  0  0  0  0  0  0
   -2.6173  -17.0035   16.0932 C   0  0  0  0  0  0  0  0  0  0  0  0
   -2.3466  -16.8362   17.5903 C   0  0  0  0  0  0  0  0  0  0  0  0
   -0.1578  -16.7222   18.7069 C   0  0  1  0  0  0  0  0  0  0  0  0
   -3.4469  -17.7880   11.9564 C   0  0  0  0  0  0  0  0  0  0  0  0
   -3.1408  -17.5013   13.4271 C   0  0  0  0  0  0  0  0  0  0  0  0
   -2.6308  -18.2868   15.5561 C   0  0  0  0  0  0  0  0  0  0  0  0
   -0.6811  -18.6138   17.5532 C   0  0  0  0  0  0  0  0  0  0  0  0
    1.0355  -17.3839   18.9702 C   0  0  2  0  0  0  0  0  0  0  0  0
    2.2551  -16.9635   19.7946 C   0  0  0  0  0  0  0  0  0  0  0  0
    3.3202  -18.0588   19.8844 C   0  0  0  0  0  0  0  0  0  0  0  0
   -3.1409  -16.1787   13.8899 N   0  0  0  0  0  0  0  0  0  0  0  0
   -1.0363  -17.3931   17.9565 N   0  0  0  0  0  0  0  0  0  0  0  0
   -2.8842  -18.5044   14.2790 N   0  0  0  0  0  0  0  0  0  0  0  0
   -2.8726  -14.7819   15.6671 O   0  0  0  0  0  0  0  0  0  0  0  0
    5.6819  -19.7112   19.4759 O   0  5  0  0  0  0  0  0  0  0  0  0
    9.1649  -18.2614   21.4358 O   0  0  0  0  0  0  0  0  0  0  0  0
    4.5874  -17.5341   20.2925 O   0  0  0  0  0  0  0  0  0  0  0  0
    7.1480  -17.6876   19.9708 O   0  0  0  0  0  0  0  0  0  0  0  0
    8.5918  -19.7572   19.4044 O   0  5  0  0  0  0  0  0  0  0  0  0
    6.0132  -18.9288   21.9172 O   0  0  0  0  0  0  0  0  0  0  0  0
    9.5142  -17.3881   19.0512 O   0  0  0  0  0  0  0  0  0  0  0  0
    0.9451  -18.8982   18.1148 S   0  0  0  0  0  0  0  0  0  0  0  0
    5.8639  -18.4915   20.5101 P   0  0  2  0  0  0  0  0  0  0  0  0
    8.6005  -18.3747   19.9326 P   0  0  2  0  0  0  0  0  0  0  0  0
  2 16  2  0  0  0  0
  2  3  1  0  0  0  0
  2 13  1  0  0  0  0
  3  8  2  0  0  0  0
  3  4  1  0  0  0  0
  4 14  1  0  0  0  0
  5  1  1  1  0  0  0
  5 14  1  0  0  0  0
  5 10  1  0  0  0  0
  6  7  1  0  0  0  0
  7 13  1  0  0  0  0
  7 15  2  0  0  0  0
  8 15  1  0  0  0  0
  9 14  1  0  0  0  0
  9 24  1  0  0  0  0
 10 24  1  0  0  0  0
 10 11  1  6  0  0  0
 11 12  1  0  0  0  0
 12 19  1  0  0  0  0
 17 25  1  0  0  0  0
 19 25  1  0  0  0  0
 20 26  1  0  0  0  0
 21 26  1  0  0  0  0
 22 25  2  0  0  0  0
 23 26  2  0  0  0  0
 25 20  1  6  0  0  0
 26 18  1  1  0  0  0
M  CHG  2  17  -1  21  -1
M  END
>  <CHROM.1>
-121.80225786,176.34678409,162.39594005,132.05949290,177.95013853,-63.64405740
30.77826589,-80.62415480,2.37576272,-17.76521846,18.21593874,2.74236322,0.25829126
-1.83976361

>  <Name>
ligand

>  <RI>
0

>  <Rbt.Current_Directory>
/home/itssahil/PROJECTS/Mol_Feturizer/New_Systems/rnas/3D2X

>  <Rbt.Executable>
rbdock ($Id: //depot/dev/client3/rdock/2013.1/src/exe/rbdock.cxx#4 $)

>  <Rbt.Library>
libRbt.so (2013.1, Build901 2013/11/27)

>  <Rbt.Parameter_File>
/export/apps/rDock/src/rDock_2013.1_src/data/scripts/dock_solv.prm

>  <Rbt.Receptor>
prm/blind_docking_40.prm

>  <SCORE>
-19.6395

>  <SCORE.INTER>
-20.4929

>  <SCORE.INTER.CONST>
1

>  <SCORE.INTER.POLAR>
0

>  <SCORE.INTER.ROT>
8

>  <SCORE.INTER.SOLV>
20.7379

>  <SCORE.INTER.VDW>
-29.5079

>  <SCORE.INTER.norm>
-0.788188

>  <SCORE.INTRA>
0.726482

>  <SCORE.INTRA.DIHEDRAL>
-0.376157

>  <SCORE.INTRA.DIHEDRAL.0>
7.88077

>  <SCORE.INTRA.POLAR>
0

>  <SCORE.INTRA.POLAR.0>
0

>  <SCORE.INTRA.REPUL>
0

>  <SCORE.INTRA.REPUL.0>
0

>  <SCORE.INTRA.SOLV>
-0.855963

>  <SCORE.INTRA.SOLV.lig_0>
-63.2542

>  <SCORE.INTRA.VDW>
1.34254

>  <SCORE.INTRA.VDW.0>
-3.15072

>  <SCORE.INTRA.norm>
0.0279416

>  <SCORE.RESTR>
0.126928

>  <SCORE.RESTR.CAVITY>
0.126928

>  <SCORE.RESTR.norm>
0.00488186

>  <SCORE.SYSTEM>
0

>  <SCORE.SYSTEM.CONST>
0

>  <SCORE.SYSTEM.DIHEDRAL>
0

>  <SCORE.SYSTEM.SOLV>
0

>  <SCORE.SYSTEM.norm>
0

>  <SCORE.heavy>
26

>  <SCORE.norm>
-0.755365

>  <RMSD>
11.687

$$$$
ligand
 OpenBabel11021811473D
libRbt.so/2013.1/901 2013/11/27
 26 27  0  0  0  0  0  0  0  0999 V2000
    0.2160  -21.9983   18.3173 C   0  0  0  0  0  0  0  0  0  0  0  0
   -3.4381  -21.3905   14.3813 C   0  0  0  0  0  0  0  0  0  0  0  0
   -2.9651  -21.7841   15.6287 C   0  0  0  0  0  0  0  0  0  0  0  0
   -1.4880  -22.0607   15.9191 C   0  0  0  0  0  0  0  0  0  0  0  0
   -0.0170  -20.7805   17.4182 C   0  0  1  0  0  0  0  0  0  0  0  0
   -7.1512  -20.9756   15.1388 C   0  0  0  0  0  0  0  0  0  0  0  0
   -5.6602  -21.2733   15.3043 C   0  0  0  0  0  0  0  0  0  0  0  0
   -3.8844  -21.9083   16.6655 C   0  0  0  0  0  0  0  0  0  0  0  0
   -0.9015  -19.7165   15.6103 C   0  0  0  0  0  0  0  0  0  0  0  0
    0.5771  -19.5502   17.6728 C   0  0  2  0  0  0  0  0  0  0  0  0
    1.5301  -19.1075   18.7860 C   0  0  0  0  0  0  0  0  0  0  0  0
    2.8567  -19.8706   18.7735 C   0  0  0  0  0  0  0  0  0  0  0  0
   -4.7990  -21.1297   14.2084 N   0  0  0  0  0  0  0  0  0  0  0  0
   -0.7908  -20.8337   16.3304 N   0  0  0  0  0  0  0  0  0  0  0  0
   -5.1688  -21.6586   16.4908 N   0  0  0  0  0  0  0  0  0  0  0  0
   -2.6636  -21.2678   13.4322 O   0  0  0  0  0  0  0  0  0  0  0  0
    3.3193  -18.5165   21.2352 O   0  5  0  0  0  0  0  0  0  0  0  0
    7.8981  -19.0913   21.9862 O   0  0  0  0  0  0  0  0  0  0  0  0
    3.9792  -18.9833   18.7958 O   0  0  0  0  0  0  0  0  0  0  0  0
    5.6898  -19.2875   20.7102 O   0  0  0  0  0  0  0  0  0  0  0  0
    7.9262  -19.6095   19.4518 O   0  5  0  0  0  0  0  0  0  0  0  0
    4.9456  -16.9285   20.0044 O   0  0  0  0  0  0  0  0  0  0  0  0
    7.2264  -17.2877   20.2930 O   0  0  0  0  0  0  0  0  0  0  0  0
   -0.0034  -18.4704   16.4358 S   0  0  0  0  0  0  0  0  0  0  0  0
    4.5122  -18.3349   20.1701 P   0  0  2  0  0  0  0  0  0  0  0  0
    7.2340  -18.8771   20.5357 P   0  0  2  0  0  0  0  0  0  0  0  0
  2 16  2  0  0  0  0
  2  3  1  0  0  0  0
  2 13  1  0  0  0  0
  3  8  2  0  0  0  0
  3  4  1  0  0  0  0
  4 14  1  0  0  0  0
  5  1  1  6  0  0  0
  5 14  1  0  0  0  0
  5 10  1  0  0  0  0
  6  7  1  0  0  0  0
  7 13  1  0  0  0  0
  7 15  2  0  0  0  0
  8 15  1  0  0  0  0
  9 14  1  0  0  0  0
  9 24  1  0  0  0  0
 10 24  1  0  0  0  0
 10 11  1  1  0  0  0
 11 12  1  0  0  0  0
 12 19  1  0  0  0  0
 17 25  1  0  0  0  0
 19 25  1  0  0  0  0
 20 26  1  0  0  0  0
 21 26  1  0  0  0  0
 22 25  2  0  0  0  0
 23 26  2  0  0  0  0
 25 20  1  1  0  0  0
 26 18  1  1  0  0  0
M  CHG  2  17  -1  21  -1
M  END
>  <CHROM.1>
88.40395104,61.90722744,128.68043627,130.67168892,81.68063428,-145.36824391
-16.97088566,131.47508504,1.34893429,-19.77891335,17.95949668,2.96594899
-0.48436614,-0.83385133

>  <Name>
ligand

>  <RI>
0

>  <Rbt.Current_Directory>
/home/itssahil/PROJECTS/Mol_Feturizer/New_Systems/rnas/3D2X

>  <Rbt.Executable>
rbdock ($Id: //depot/dev/client3/rdock/2013.1/src/exe/rbdock.cxx#4 $)

>  <Rbt.Library>
libRbt.so (2013.1, Build901 2013/11/27)

>  <Rbt.Parameter_File>
/export/apps/rDock/src/rDock_2013.1_src/data/scripts/dock_solv.prm

>  <Rbt.Receptor>
prm/blind_docking_40.prm

>  <SCORE>
8.19131

>  <SCORE.INTER>
0.797802

>  <SCORE.INTER.CONST>
1

>  <SCORE.INTER.POLAR>
0

>  <SCORE.INTER.ROT>
8

>  <SCORE.INTER.SOLV>
23.5203

>  <SCORE.INTER.VDW>
-16.2416

>  <SCORE.INTER.norm>
0.0306847

>  <SCORE.INTRA>
7.38562

>  <SCORE.INTRA.DIHEDRAL>
9.35672

>  <SCORE.INTRA.DIHEDRAL.0>
7.88077

>  <SCORE.INTRA.POLAR>
0

>  <SCORE.INTRA.POLAR.0>
0

>  <SCORE.INTRA.REPUL>
0

>  <SCORE.INTRA.REPUL.0>
0

>  <SCORE.INTRA.SOLV>
0.729615

>  <SCORE.INTRA.SOLV.lig_0>
-63.2542

>  <SCORE.INTRA.VDW>
2.34245

>  <SCORE.INTRA.VDW.0>
-3.15072

>  <SCORE.INTRA.norm>
0.284062

>  <SCORE.RESTR>
0.00789256

>  <SCORE.RESTR.CAVITY>
0.00789256

>  <SCORE.RESTR.norm>
0.00030356

>  <SCORE.SYSTEM>
0

>  <SCORE.SYSTEM.CONST>
0

>  <SCORE.SYSTEM.DIHEDRAL>
0

>  <SCORE.SYSTEM.SOLV>
0

>  <SCORE.SYSTEM.norm>
0

>  <SCORE.heavy>
26

>  <SCORE.norm>
0.31505

>  <RMSD>
11.715

$$$$
ligand
 OpenBabel11021811473D
libRbt.so/2013.1/901 2013/11/27
 26 27  0  0  0  0  0  0  0  0999 V2000
   -1.1362  -15.5473   17.5400 C   0  0  0  0  0  0  0  0  0  0  0  0
    3.1093  -17.0351   19.7356 C   0  0  0  0  0  0  0  0  0  0  0  0
    2.0706  -17.7247   19.1190 C   0  0  0  0  0  0  0  0  0  0  0  0
    0.6111  -17.2665   19.1680 C   0  0  0  0  0  0  0  0  0  0  0  0
   -0.9550  -17.0463   17.2840 C   0  0  1  0  0  0  0  0  0  0  0  0
    6.0832  -19.1937   18.7209 C   0  0  0  0  0  0  0  0  0  0  0  0
    4.6540  -18.6716   18.8758 C   0  0  0  0  0  0  0  0  0  0  0  0
    2.3856  -18.8761   18.4044 C   0  0  0  0  0  0  0  0  0  0  0  0
   -0.0542  -19.0950   17.7021 C   0  0  0  0  0  0  0  0  0  0  0  0
   -1.6048  -17.7020   16.2451 C   0  0  2  0  0  0  0  0  0  0  0  0
   -2.5681  -17.1798   15.1761 C   0  0  0  0  0  0  0  0  0  0  0  0
   -2.8827  -18.2195   14.0980 C   0  0  0  0  0  0  0  0  0  0  0  0
    4.4185  -17.5063   19.6174 N   0  0  0  0  0  0  0  0  0  0  0  0
   -0.1515  -17.8066   18.0331 N   0  0  0  0  0  0  0  0  0  0  0  0
    3.6271  -19.3122   18.2988 N   0  0  0  0  0  0  0  0  0  0  0  0
    2.8806  -16.0116   20.3804 O   0  0  0  0  0  0  0  0  0  0  0  0
   -2.8717  -21.6625   14.0113 O   0  5  0  0  0  0  0  0  0  0  0  0
   -6.7724  -22.2981   16.1861 O   0  0  0  0  0  0  0  0  0  0  0  0
   -3.6723  -19.2959   14.6135 O   0  0  0  0  0  0  0  0  0  0  0  0
   -5.3615  -21.2333   14.3371 O   0  0  0  0  0  0  0  0  0  0  0  0
   -4.4429  -21.3263   16.7529 O   0  5  0  0  0  0  0  0  0  0  0  0
   -4.1717  -20.2523   12.2783 O   0  0  0  0  0  0  0  0  0  0  0  0
   -6.3903  -19.7635   16.1580 O   0  0  0  0  0  0  0  0  0  0  0  0
   -1.1419  -19.3764   16.3685 S   0  0  0  0  0  0  0  0  0  0  0  0
   -4.0287  -20.5836   13.7147 P   0  0  2  0  0  0  0  0  0  0  0  0
   -5.6541  -21.1724   15.9164 P   0  0  2  0  0  0  0  0  0  0  0  0
  2 16  2  0  0  0  0
  2  3  1  0  0  0  0
  2 13  1  0  0  0  0
  3  8  2  0  0  0  0
  3  4  1  0  0  0  0
  4 14  1  0  0  0  0
  5  1  1  6  0  0  0
  5 14  1  0  0  0  0
  5 10  1  0  0  0  0
  6  7  1  0  0  0  0
  7 13  1  0  0  0  0
  7 15  2  0  0  0  0
  8 15  1  0  0  0  0
  9 14  1  0  0  0  0
  9 24  1  0  0  0  0
 10 24  1  0  0  0  0
 10 11  1  1  0  0  0
 11 12  1  0  0  0  0
 12 19  1  0  0  0  0
 17 25  1  0  0  0  0
 19 25  1  0  0  0  0
 20 26  1  0  0  0  0
 21 26  1  0  0  0  0
 22 25  2  0  0  0  0
 23 26  2  0  0  0  0
 25 20  1  1  0  0  0
 26 18  1  1  0  0  0
M  CHG  2  17  -1  21  -1
M  END
>  <CHROM.1>
156.33783836,171.43557078,69.09539060,-132.58918661,-174.51646271,79.17233821
92.14256737,-162.24801890,-1.42038924,-19.14413453,16.59983964,0.50013310
-0.26639050,0.51228711

>  <Name>
ligand

>  <RI>
0

>  <Rbt.Current_Directory>
/home/itssahil/PROJECTS/Mol_Feturizer/New_Systems/rnas/3D2X

>  <Rbt.Executable>
rbdock ($Id: //depot/dev/client3/rdock/2013.1/src/exe/rbdock.cxx#4 $)

>  <Rbt.Library>
libRbt.so (2013.1, Build901 2013/11/27)

>  <Rbt.Parameter_File>
/export/apps/rDock/src/rDock_2013.1_src/data/scripts/dock_solv.prm

>  <Rbt.Receptor>
prm/blind_docking_60.prm

>  <SCORE>
-12.7202

>  <SCORE.INTER>
-14.5863

>  <SCORE.INTER.CONST>
1

>  <SCORE.INTER.POLAR>
0

>  <SCORE.INTER.ROT>
8

>  <SCORE.INTER.SOLV>
21.8335

>  <SCORE.INTER.VDW>
-25.9354

>  <SCORE.INTER.norm>
-0.561013

>  <SCORE.INTRA>
1.86617

>  <SCORE.INTRA.DIHEDRAL>
-0.228891

>  <SCORE.INTRA.DIHEDRAL.0>
7.88077

>  <SCORE.INTRA.POLAR>
0

>  <SCORE.INTRA.POLAR.0>
0

>  <SCORE.INTRA.REPUL>
0

>  <SCORE.INTRA.REPUL.0>
0

>  <SCORE.INTRA.SOLV>
-0.441998

>  <SCORE.INTRA.SOLV.lig_0>
-63.2542

>  <SCORE.INTRA.VDW>
2.20162

>  <SCORE.INTRA.VDW.0>
-3.15072

>  <SCORE.INTRA.norm>
0.0717759

>  <SCORE.RESTR>
0

>  <SCORE.RESTR.CAVITY>
0

>  <SCORE.RESTR.norm>
0

>  <SCORE.SYSTEM>
0

>  <SCORE.SYSTEM.CONST>
0

>  <SCORE.SYSTEM.DIHEDRAL>
0

>  <SCORE.SYSTEM.SOLV>
0

>  <SCORE.SYSTEM.norm>
0

>  <SCORE.heavy>
26

>  <SCORE.norm>
-0.489237

>  <RMSD>
11.739

$$$$
ligand
 OpenBabel11021811473D
libRbt.so/2013.1/901 2013/11/27
 26 27  0  0  0  0  0  0  0  0999 V2000
    2.2576  -15.8789   20.3214 C   0  0  0  0  0  0  0  0  0  0  0  0
    5.2881  -19.3236   21.6902 C   0  0  0  0  0  0  0  0  0  0  0  0
    4.5900  -19.2800   20.4879 C   0  0  0  0  0  0  0  0  0  0  0  0
    4.2438  -17.9771   19.7632 C   0  0  0  0  0  0  0  0  0  0  0  0
    1.9711  -17.0951   19.4357 C   0  0  1  0  0  0  0  0  0  0  0  0
    5.5104  -23.0901   22.2352 C   0  0  0  0  0  0  0  0  0  0  0  0
    5.1754  -21.7291   21.6232 C   0  0  0  0  0  0  0  0  0  0  0  0
    4.2105  -20.4871   19.9098 C   0  0  0  0  0  0  0  0  0  0  0  0
    2.5352  -19.0350   18.3861 C   0  0  0  0  0  0  0  0  0  0  0  0
    0.7401  -17.2865   18.8198 C   0  0  2  0  0  0  0  0  0  0  0  0
   -0.5330  -16.4365   18.8364 C   0  0  0  0  0  0  0  0  0  0  0  0
   -1.4715  -16.7459   17.6677 C   0  0  0  0  0  0  0  0  0  0  0  0
    5.5888  -20.5574   22.2710 N   0  0  0  0  0  0  0  0  0  0  0  0
    2.8906  -18.0330   19.1915 N   0  0  0  0  0  0  0  0  0  0  0  0
    4.5006  -21.6479   20.4675 N   0  0  0  0  0  0  0  0  0  0  0  0
    5.6444  -18.2819   22.2413 O   0  0  0  0  0  0  0  0  0  0  0  0
   -2.6230  -20.1183   16.2798 O   0  5  0  0  0  0  0  0  0  0  0  0
   -6.8639  -19.4303   17.9892 O   0  0  0  0  0  0  0  0  0  0  0  0
   -1.9478  -18.0945   17.7125 O   0  0  0  0  0  0  0  0  0  0  0  0
   -4.4226  -18.8196   17.5305 O   0  0  0  0  0  0  0  0  0  0  0  0
   -6.2565  -18.1011   15.8546 O   0  5  0  0  0  0  0  0  0  0  0  0
   -3.2449  -17.7266   15.5218 O   0  0  0  0  0  0  0  0  0  0  0  0
   -5.5903  -20.5697   16.0786 O   0  0  0  0  0  0  0  0  0  0  0  0
    0.8587  -18.8007   17.9675 S   0  0  0  0  0  0  0  0  0  0  0  0
   -3.0684  -18.6258   16.6853 P   0  0  2  0  0  0  0  0  0  0  0  0
   -5.8156  -19.1507   16.8002 P   0  0  2  0  0  0  0  0  0  0  0  0
  2 16  2  0  0  0  0
  2  3  1  0  0  0  0
  2 13  1  0  0  0  0
  3  8  2  0  0  0  0
  3  4  1  0  0  0  0
  4 14  1  0  0  0  0
  5  1  1  6  0  0  0
  5 14  1  0  0  0  0
  5 10  1  0  0  0  0
  6  7  1  0  0  0  0
  7 13  1  0  0  0  0
  7 15  2  0  0  0  0
  8 15  1  0  0  0  0
  9 14  1  0  0  0  0
  9 24  1  0  0  0  0
 10 24  1  0  0  0  0
 10 11  1  1  0  0  0
 11 12  1  0  0  0  0
 12 19  1  0  0  0  0
 17 25  1  0  0  0  0
 19 25  1  0  0  0  0
 20 26  1  0  0  0  0
 21 26  1  0  0  0  0
 22 25  2  0  0  0  0
 23 26  2  0  0  0  0
 25 20  1  1  0  0  0
 26 18  1  1  0  0  0
M  CHG  2  17  -1  21  -1
M  END
>  <CHROM.1>
-140.23293769,160.11599267,62.83544067,126.98300865,173.52855140,-76.28129899
140.28967475,173.72115614,-0.06688410,-18.91865375,18.61451413,-0.15733362
-0.40948869,-0.16152441

>  <Name>
ligand

>  <RI>
0

>  <Rbt.Current_Directory>
/home/itssahil/PROJECTS/Mol_Feturizer/New_Systems/rnas/3D2X

>  <Rbt.Executable>
rbdock ($Id: //depot/dev/client3/rdock/2013.1/src/exe/rbdock.cxx#4 $)

>  <Rbt.Library>
libRbt.so (2013.1, Build901 2013/11/27)

>  <Rbt.Parameter_File>
/export/apps/rDock/src/rDock_2013.1_src/data/scripts/dock_solv.prm

>  <Rbt.Receptor>
prm/blind_docking_100.prm

>  <SCORE>
-19.4509

>  <SCORE.INTER>
-20.5664

>  <SCORE.INTER.CONST>
1

>  <SCORE.INTER.POLAR>
0

>  <SCORE.INTER.ROT>
8

>  <SCORE.INTER.SOLV>
17.5947

>  <SCORE.INTER.VDW>
-28.5092

>  <SCORE.INTER.norm>
-0.791016

>  <SCORE.INTRA>
1.11552

>  <SCORE.INTRA.DIHEDRAL>
-0.7626

>  <SCORE.INTRA.DIHEDRAL.0>
7.88077

>  <SCORE.INTRA.POLAR>
0

>  <SCORE.INTRA.POLAR.0>
0

>  <SCORE.INTRA.REPUL>
0

>  <SCORE.INTRA.REPUL.0>
0

>  <SCORE.INTRA.SOLV>
0.27926

>  <SCORE.INTRA.SOLV.lig_0>
-63.2542

>  <SCORE.INTRA.VDW>
1.35719

>  <SCORE.INTRA.VDW.0>
-3.15072

>  <SCORE.INTRA.norm>
0.0429045

>  <SCORE.RESTR>
0

>  <SCORE.RESTR.CAVITY>
0

>  <SCORE.RESTR.norm>
0

>  <SCORE.SYSTEM>
0

>  <SCORE.SYSTEM.CONST>
0

>  <SCORE.SYSTEM.DIHEDRAL>
0

>  <SCORE.SYSTEM.SOLV>
0

>  <SCORE.SYSTEM.norm>
0

>  <SCORE.heavy>
26

>  <SCORE.norm>
-0.748112

>  <RMSD>
11.753

$$$$
ligand
 OpenBabel11021811473D
libRbt.so/2013.1/901 2013/11/27
 26 27  0  0  0  0  0  0  0  0999 V2000
    0.8787  -20.0265   17.0659 C   0  0  0  0  0  0  0  0  0  0  0  0
    5.5694  -18.9692   18.7366 C   0  0  0  0  0  0  0  0  0  0  0  0
    4.4506  -19.2595   19.5104 C   0  0  0  0  0  0  0  0  0  0  0  0
    3.1457  -19.8093   18.9293 C   0  0  0  0  0  0  0  0  0  0  0  0
    1.0851  -18.8346   18.0053 C   0  0  1  0  0  0  0  0  0  0  0  0
    8.0098  -17.8273   21.4334 C   0  0  0  0  0  0  0  0  0  0  0  0
    6.7407  -18.3266   20.7411 C   0  0  0  0  0  0  0  0  0  0  0  0
    4.5378  -19.0587   20.8843 C   0  0  0  0  0  0  0  0  0  0  0  0
    2.1836  -17.6853   19.6349 C   0  0  0  0  0  0  0  0  0  0  0  0
    0.1977  -17.7659   18.0482 C   0  0  2  0  0  0  0  0  0  0  0  0
   -1.0942  -17.5028   17.2703 C   0  0  0  0  0  0  0  0  0  0  0  0
   -2.0158  -16.4991   17.9673 C   0  0  0  0  0  0  0  0  0  0  0  0
    6.7316  -18.4976   19.3504 N   0  0  0  0  0  0  0  0  0  0  0  0
    2.1195  -18.7600   18.8475 N   0  0  0  0  0  0  0  0  0  0  0  0
    5.6419  -18.6129   21.4541 N   0  0  0  0  0  0  0  0  0  0  0  0
    5.5407  -19.1292   17.5162 O   0  0  0  0  0  0  0  0  0  0  0  0
   -5.5376  -16.8915   17.6019 O   0  5  0  0  0  0  0  0  0  0  0  0
   -4.5067  -14.4356   16.0386 O   0  0  0  0  0  0  0  0  0  0  0  0
   -3.1254  -16.1349   17.1403 O   0  0  0  0  0  0  0  0  0  0  0  0
   -4.6819  -16.8470   15.2029 O   0  0  0  0  0  0  0  0  0  0  0  0
   -4.0356  -14.9653   13.5507 O   0  5  0  0  0  0  0  0  0  0  0  0
   -3.7632  -18.6084   16.8370 O   0  0  0  0  0  0  0  0  0  0  0  0
   -6.4231  -15.1207   14.4800 O   0  0  0  0  0  0  0  0  0  0  0  0
    0.8517  -16.6437   19.2084 S   0  0  0  0  0  0  0  0  0  0  0  0
   -4.2401  -17.2125   16.7053 P   0  0  2  0  0  0  0  0  0  0  0  0
   -4.8481  -15.3179   14.7363 P   0  0  2  0  0  0  0  0  0  0  0  0
  2 16  2  0  0  0  0
  2  3  1  0  0  0  0
  2 13  1  0  0  0  0
  3  8  2  0  0  0  0
  3  4  1  0  0  0  0
  4 14  1  0  0  0  0
  5  1  1  1  0  0  0
  5 14  1  0  0  0  0
  5 10  1  0  0  0  0
  6  7  1  0  0  0  0
  7 13  1  0  0  0  0
  7 15  2  0  0  0  0
  8 15  1  0  0  0  0
  9 14  1  0  0  0  0
  9 24  1  0  0  0  0
 10 24  1  0  0  0  0
 10 11  1  6  0  0  0
 11 12  1  0  0  0  0
 12 19  1  0  0  0  0
 17 25  1  0  0  0  0
 19 25  1  0  0  0  0
 20 26  1  0  0  0  0
 21 26  1  0  0  0  0
 22 25  2  0  0  0  0
 23 26  2  0  0  0  0
 25 20  1  6  0  0  0
 26 18  1  1  0  0  0
M  CHG  2  17  -1  21  -1
M  END
>  <CHROM.1>
-103.63490187,158.56951944,172.16323481,157.28069183,64.67136979,73.00131171
104.89355416,-0.60076897,-0.10499743,-17.42281386,17.71767506,0.33146722
0.32749055,2.88030021

>  <Name>
ligand

>  <RI>
0

>  <Rbt.Current_Directory>
/home/itssahil/PROJECTS/Mol_Feturizer/New_Systems/rnas/3D2X

>  <Rbt.Executable>
rbdock ($Id: //depot/dev/client3/rdock/2013.1/src/exe/rbdock.cxx#4 $)

>  <Rbt.Library>
libRbt.so (2013.1, Build901 2013/11/27)

>  <Rbt.Parameter_File>
/export/apps/rDock/src/rDock_2013.1_src/data/scripts/dock_solv.prm

>  <Rbt.Receptor>
prm/blind_docking_60.prm

>  <SCORE>
-11.5195

>  <SCORE.INTER>
-14.4517

>  <SCORE.INTER.CONST>
1

>  <SCORE.INTER.POLAR>
0

>  <SCORE.INTER.ROT>
8

>  <SCORE.INTER.SOLV>
20.4051

>  <SCORE.INTER.VDW>
-25.3695

>  <SCORE.INTER.norm>
-0.555836

>  <SCORE.INTRA>
2.46525

>  <SCORE.INTRA.DIHEDRAL>
1.76945

>  <SCORE.INTRA.DIHEDRAL.0>
7.88077

>  <SCORE.INTRA.POLAR>
0

>  <SCORE.INTRA.POLAR.0>
0

>  <SCORE.INTRA.REPUL>
0

>  <SCORE.INTRA.REPUL.0>
0

>  <SCORE.INTRA.SOLV>
-1.61982

>  <SCORE.INTRA.SOLV.lig_0>
-63.2542

>  <SCORE.INTRA.VDW>
2.39044

>  <SCORE.INTRA.VDW.0>
-3.15072

>  <SCORE.INTRA.norm>
0.0948174

>  <SCORE.RESTR>
0.466968

>  <SCORE.RESTR.CAVITY>
0.466968

>  <SCORE.RESTR.norm>
0.0179603

>  <SCORE.SYSTEM>
0

>  <SCORE.SYSTEM.CONST>
0

>  <SCORE.SYSTEM.DIHEDRAL>
0

>  <SCORE.SYSTEM.SOLV>
0

>  <SCORE.SYSTEM.norm>
0

>  <SCORE.heavy>
26

>  <SCORE.norm>
-0.443058

>  <RMSD>
11.783

$$$$
ligand
 OpenBabel11021811473D
libRbt.so/2013.1/901 2013/11/27
 26 27  0  0  0  0  0  0  0  0999 V2000
   -0.2781  -19.0992   16.4008 C   0  0  0  0  0  0  0  0  0  0  0  0
    4.0955  -20.1856   19.4510 C   0  0  0  0  0  0  0  0  0  0  0  0
    3.2492  -19.2158   18.9235 C   0  0  0  0  0  0  0  0  0  0  0  0
    1.8472  -19.5223   18.3914 C   0  0  0  0  0  0  0  0  0  0  0  0
    0.0284  -18.1091   17.5283 C   0  0  1  0  0  0  0  0  0  0  0  0
    7.0886  -18.0415   20.4392 C   0  0  0  0  0  0  0  0  0  0  0  0
    5.7262  -18.4678   19.8902 C   0  0  0  0  0  0  0  0  0  0  0  0
    3.6985  -17.8993   18.9030 C   0  0  0  0  0  0  0  0  0  0  0  0
    1.1558  -17.4041   19.3763 C   0  0  0  0  0  0  0  0  0  0  0  0
   -0.6933  -16.9332   17.6950 C   0  0  2  0  0  0  0  0  0  0  0  0
   -1.8695  -16.3571   16.9025 C   0  0  0  0  0  0  0  0  0  0  0  0
   -3.2206  -16.6016   17.5785 C   0  0  0  0  0  0  0  0  0  0  0  0
    5.3492  -19.8163   19.9424 N   0  0  0  0  0  0  0  0  0  0  0  0
    0.9952  -18.3248   18.4248 N   0  0  0  0  0  0  0  0  0  0  0  0
    4.8857  -17.5614   19.3708 N   0  0  0  0  0  0  0  0  0  0  0  0
    3.7433  -21.3647   19.4898 O   0  0  0  0  0  0  0  0  0  0  0  0
   -5.9696  -17.5570   16.1756 O   0  5  0  0  0  0  0  0  0  0  0  0
   -7.3162  -19.7572   15.4202 O   0  0  0  0  0  0  0  0  0  0  0  0
   -3.7048  -17.9256   17.3329 O   0  0  0  0  0  0  0  0  0  0  0  0
   -5.4155  -19.8532   17.1296 O   0  0  0  0  0  0  0  0  0  0  0  0
   -6.8125  -21.9763   16.6506 O   0  5  0  0  0  0  0  0  0  0  0  0
   -5.8605  -17.8942   18.7361 O   0  0  0  0  0  0  0  0  0  0  0  0
   -7.8432  -19.9962   17.9175 O   0  0  0  0  0  0  0  0  0  0  0  0
    0.0276  -16.1145   19.0526 S   0  0  0  0  0  0  0  0  0  0  0  0
   -5.2724  -18.2805   17.4330 P   0  0  2  0  0  0  0  0  0  0  0  0
   -6.8409  -20.5011   16.7661 P   0  0  2  0  0  0  0  0  0  0  0  0
  2 16  2  0  0  0  0
  2  3  1  0  0  0  0
  2 13  1  0  0  0  0
  3  8  2  0  0  0  0
  3  4  1  0  0  0  0
  4 14  1  0  0  0  0
  5  1  1  1  0  0  0
  5 14  1  0  0  0  0
  5 10  1  0  0  0  0
  6  7  1  0  0  0  0
  7 13  1  0  0  0  0
  7 15  2  0  0  0  0
  8 15  1  0  0  0  0
  9 14  1  0  0  0  0
  9 24  1  0  0  0  0
 10 24  1  0  0  0  0
 10 11  1  6  0  0  0
 11 12  1  0  0  0  0
 12 19  1  0  0  0  0
 17 25  1  0  0  0  0
 19 25  1  0  0  0  0
 20 26  1  0  0  0  0
 21 26  1  0  0  0  0
 22 25  2  0  0  0  0
 23 26  2  0  0  0  0
 25 20  1  6  0  0  0
 26 18  1  6  0  0  0
M  CHG  2  17  -1  21  -1
M  END
>  <CHROM.1>
156.37351435,100.01960648,-80.32413716,148.39861667,-156.89024557,-51.97446089
70.14615463,60.68425869,-1.37928298,-18.64053318,18.03341473,-0.07624152
0.22884344,-3.11292323

>  <Name>
ligand

>  <RI>
0

>  <Rbt.Current_Directory>
/home/itssahil/PROJECTS/Mol_Feturizer/New_Systems/rnas/3D2X

>  <Rbt.Executable>
rbdock ($Id: //depot/dev/client3/rdock/2013.1/src/exe/rbdock.cxx#4 $)

>  <Rbt.Library>
libRbt.so (2013.1, Build901 2013/11/27)

>  <Rbt.Parameter_File>
/export/apps/rDock/src/rDock_2013.1_src/data/scripts/dock_solv.prm

>  <Rbt.Receptor>
prm/blind_docking_60.prm

>  <SCORE>
-18.4379

>  <SCORE.INTER>
-20.375

>  <SCORE.INTER.CONST>
1

>  <SCORE.INTER.POLAR>
0

>  <SCORE.INTER.ROT>
8

>  <SCORE.INTER.SOLV>
25.9093

>  <SCORE.INTER.VDW>
-31.1531

>  <SCORE.INTER.norm>
-0.783655

>  <SCORE.INTRA>
1.93708

>  <SCORE.INTRA.DIHEDRAL>
1.33952

>  <SCORE.INTRA.DIHEDRAL.0>
7.88077

>  <SCORE.INTRA.POLAR>
0

>  <SCORE.INTRA.POLAR.0>
0

>  <SCORE.INTRA.REPUL>
0

>  <SCORE.INTRA.REPUL.0>
0

>  <SCORE.INTRA.SOLV>
-0.545309

>  <SCORE.INTRA.SOLV.lig_0>
-63.2542

>  <SCORE.INTRA.VDW>
1.53998

>  <SCORE.INTRA.VDW.0>
-3.15072

>  <SCORE.INTRA.norm>
0.0745032

>  <SCORE.RESTR>
0

>  <SCORE.RESTR.CAVITY>
0

>  <SCORE.RESTR.norm>
0

>  <SCORE.SYSTEM>
0

>  <SCORE.SYSTEM.CONST>
0

>  <SCORE.SYSTEM.DIHEDRAL>
0

>  <SCORE.SYSTEM.SOLV>
0

>  <SCORE.SYSTEM.norm>
0

>  <SCORE.heavy>
26

>  <SCORE.norm>
-0.709152

>  <RMSD>
11.787

$$$$
ligand
 OpenBabel11021811473D
libRbt.so/2013.1/901 2013/11/27
 26 27  0  0  0  0  0  0  0  0999 V2000
    2.0404  -16.0172   20.1059 C   0  0  0  0  0  0  0  0  0  0  0  0
    5.2735  -19.0942   21.7829 C   0  0  0  0  0  0  0  0  0  0  0  0
    4.6079  -19.1900   20.5653 C   0  0  0  0  0  0  0  0  0  0  0  0
    4.2061  -17.9732   19.7283 C   0  0  0  0  0  0  0  0  0  0  0  0
    1.8854  -17.2952   19.2761 C   0  0  1  0  0  0  0  0  0  0  0  0
    5.7014  -22.7840   22.6402 C   0  0  0  0  0  0  0  0  0  0  0  0
    5.3043  -21.4995   21.9110 C   0  0  0  0  0  0  0  0  0  0  0  0
    4.3163  -20.4607   20.0795 C   0  0  0  0  0  0  0  0  0  0  0  0
    2.6411  -19.2329   18.3503 C   0  0  0  0  0  0  0  0  0  0  0  0
    0.6981  -17.6158   18.6288 C   0  0  2  0  0  0  0  0  0  0  0  0
   -0.6377  -16.8717   18.5564 C   0  0  0  0  0  0  0  0  0  0  0  0
   -1.5331  -17.3637   17.4168 C   0  0  0  0  0  0  0  0  0  0  0  0
    5.6298  -20.2565   22.4698 N   0  0  0  0  0  0  0  0  0  0  0  0
    2.8848  -18.1667   19.1137 N   0  0  0  0  0  0  0  0  0  0  0  0
    4.6585  -21.5529   20.7372 N   0  0  0  0  0  0  0  0  0  0  0  0
    5.5523  -17.9917   22.2547 O   0  0  0  0  0  0  0  0  0  0  0  0
   -3.3114  -19.8379   16.4169 O   0  5  0  0  0  0  0  0  0  0  0  0
   -5.8271  -21.0715   16.7898 O   0  0  0  0  0  0  0  0  0  0  0  0
   -2.8107  -17.7960   17.8949 O   0  0  0  0  0  0  0  0  0  0  0  0
   -5.1861  -18.8121   17.8036 O   0  0  0  0  0  0  0  0  0  0  0  0
   -7.6008  -19.6969   18.0768 O   0  5  0  0  0  0  0  0  0  0  0  0
   -4.2562  -17.5162   15.7855 O   0  0  0  0  0  0  0  0  0  0  0  0
   -6.7550  -18.9024   15.7874 O   0  0  0  0  0  0  0  0  0  0  0  0
    0.9689  -19.1559   17.8620 S   0  0  0  0  0  0  0  0  0  0  0  0
   -3.9116  -18.4256   16.9025 P   0  0  2  0  0  0  0  0  0  0  0  0
   -6.4233  -19.6290   17.1828 P   0  0  2  0  0  0  0  0  0  0  0  0
  2 16  2  0  0  0  0
  2  3  1  0  0  0  0
  2 13  1  0  0  0  0
  3  8  2  0  0  0  0
  3  4  1  0  0  0  0
  4 14  1  0  0  0  0
  5  1  1  6  0  0  0
  5 14  1  0  0  0  0
  5 10  1  0  0  0  0
  6  7  1  0  0  0  0
  7 13  1  0  0  0  0
  7 15  2  0  0  0  0
  8 15  1  0  0  0  0
  9 14  1  0  0  0  0
  9 24  1  0  0  0  0
 10 24  1  0  0  0  0
 10 11  1  1  0  0  0
 11 12  1  0  0  0  0
 12 19  1  0  0  0  0
 17 25  1  0  0  0  0
 19 25  1  0  0  0  0
 20 26  1  0  0  0  0
 21 26  1  0  0  0  0
 22 25  2  0  0  0  0
 23 26  2  0  0  0  0
 25 20  1  1  0  0  0
 26 18  1  6  0  0  0
M  CHG  2  17  -1  21  -1
M  END
>  <CHROM.1>
-141.18360148,163.06977136,123.49383700,125.34098662,-177.01913093,-60.63772238
67.64875654,64.81857800,-0.34673632,-19.00924089,18.71945010,-0.17347430
-0.35480902,-0.32103677

>  <Name>
ligand

>  <RI>
0

>  <Rbt.Current_Directory>
/home/itssahil/PROJECTS/Mol_Feturizer/New_Systems/rnas/3D2X

>  <Rbt.Executable>
rbdock ($Id: //depot/dev/client3/rdock/2013.1/src/exe/rbdock.cxx#4 $)

>  <Rbt.Library>
libRbt.so (2013.1, Build901 2013/11/27)

>  <Rbt.Parameter_File>
/export/apps/rDock/src/rDock_2013.1_src/data/scripts/dock_solv.prm

>  <Rbt.Receptor>
prm/blind_docking_80.prm

>  <SCORE>
-17.8273

>  <SCORE.INTER>
-20.1317

>  <SCORE.INTER.CONST>
1

>  <SCORE.INTER.POLAR>
0

>  <SCORE.INTER.ROT>
8

>  <SCORE.INTER.SOLV>
23.2328

>  <SCORE.INTER.VDW>
-30.0987

>  <SCORE.INTER.norm>
-0.774296

>  <SCORE.INTRA>
2.30435

>  <SCORE.INTRA.DIHEDRAL>
2.44171

>  <SCORE.INTRA.DIHEDRAL.0>
7.88077

>  <SCORE.INTRA.POLAR>
0

>  <SCORE.INTRA.POLAR.0>
0

>  <SCORE.INTRA.REPUL>
0

>  <SCORE.INTRA.REPUL.0>
0

>  <SCORE.INTRA.SOLV>
-0.527826

>  <SCORE.INTRA.SOLV.lig_0>
-63.2542

>  <SCORE.INTRA.VDW>
1.34741

>  <SCORE.INTRA.VDW.0>
-3.15072

>  <SCORE.INTRA.norm>
0.0886287

>  <SCORE.RESTR>
0

>  <SCORE.RESTR.CAVITY>
0

>  <SCORE.RESTR.norm>
0

>  <SCORE.SYSTEM>
0

>  <SCORE.SYSTEM.CONST>
0

>  <SCORE.SYSTEM.DIHEDRAL>
0

>  <SCORE.SYSTEM.SOLV>
0

>  <SCORE.SYSTEM.norm>
0

>  <SCORE.heavy>
26

>  <SCORE.norm>
-0.685667

>  <RMSD>
11.824

$$$$
ligand
 OpenBabel11021811473D
libRbt.so/2013.1/901 2013/11/27
 26 27  0  0  0  0  0  0  0  0999 V2000
    0.4571  -18.9921   16.8535 C   0  0  0  0  0  0  0  0  0  0  0  0
    4.6916  -20.0950   20.1795 C   0  0  0  0  0  0  0  0  0  0  0  0
    4.0759  -19.1239   19.3969 C   0  0  0  0  0  0  0  0  0  0  0  0
    2.7689  -19.3609   18.6363 C   0  0  0  0  0  0  0  0  0  0  0  0
    0.7940  -18.0383   18.0034 C   0  0  1  0  0  0  0  0  0  0  0  0
    7.6834  -18.1367   21.5012 C   0  0  0  0  0  0  0  0  0  0  0  0
    6.4042  -18.4979   20.7447 C   0  0  0  0  0  0  0  0  0  0  0  0
    4.6724  -17.8691   19.3251 C   0  0  0  0  0  0  0  0  0  0  0  0
    2.0275  -17.3459   19.7873 C   0  0  0  0  0  0  0  0  0  0  0  0
    0.0138  -16.9251   18.2921 C   0  0  2  0  0  0  0  0  0  0  0  0
   -1.2614  -16.3950   17.6314 C   0  0  0  0  0  0  0  0  0  0  0  0
   -2.4490  -17.3493   17.7770 C   0  0  0  0  0  0  0  0  0  0  0  0
    5.8687  -19.7871   20.8648 N   0  0  0  0  0  0  0  0  0  0  0  0
    1.8463  -18.2288   18.8042 N   0  0  0  0  0  0  0  0  0  0  0  0
    5.7851  -17.5889   19.9777 N   0  0  0  0  0  0  0  0  0  0  0  0
    4.2026  -21.2210   20.2734 O   0  0  0  0  0  0  0  0  0  0  0  0
   -5.9712  -17.1593   16.1624 O   0  5  0  0  0  0  0  0  0  0  0  0
   -4.2494  -21.3382   16.5897 O   0  0  0  0  0  0  0  0  0  0  0  0
   -3.6327  -16.8191   17.1724 O   0  0  0  0  0  0  0  0  0  0  0  0
   -4.9076  -19.0430   17.5076 O   0  0  0  0  0  0  0  0  0  0  0  0
   -6.0715  -19.9525   15.3847 O   0  5  0  0  0  0  0  0  0  0  0  0
   -5.6857  -16.9117   18.7195 O   0  0  0  0  0  0  0  0  0  0  0  0
   -3.6155  -19.2105   15.3083 O   0  0  0  0  0  0  0  0  0  0  0  0
    0.7936  -16.1241   19.6276 S   0  0  0  0  0  0  0  0  0  0  0  0
   -5.0851  -17.4451   17.4753 P   0  0  2  0  0  0  0  0  0  0  0  0
   -4.8046  -19.8935   16.1476 P   0  0  2  0  0  0  0  0  0  0  0  0
  2 16  2  0  0  0  0
  2  3  1  0  0  0  0
  2 13  1  0  0  0  0
  3  8  2  0  0  0  0
  3  4  1  0  0  0  0
  4 14  1  0  0  0  0
  5  1  1  1  0  0  0
  5 14  1  0  0  0  0
  5 10  1  0  0  0  0
  6  7  1  0  0  0  0
  7 13  1  0  0  0  0
  7 15  2  0  0  0  0
  8 15  1  0  0  0  0
  9 14  1  0  0  0  0
  9 24  1  0  0  0  0
 10 24  1  0  0  0  0
 10 11  1  6  0  0  0
 11 12  1  0  0  0  0
 12 19  1  0  0  0  0
 17 25  1  0  0  0  0
 19 25  1  0  0  0  0
 20 26  1  0  0  0  0
 21 26  1  0  0  0  0
 22 25  2  0  0  0  0
 23 26  2  0  0  0  0
 25 20  1  1  0  0  0
 26 18  1  1  0  0  0
M  CHG  2  17  -1  21  -1
M  END
>  <CHROM.1>
135.23868029,64.51541089,178.94192844,163.53848795,-165.45344963,33.39961242
-151.79629719,165.26330860,-0.44994812,-18.36518499,18.23894347,-0.08899631
0.32622220,-2.83392825

>  <Name>
ligand

>  <RI>
0

>  <Rbt.Current_Directory>
/home/itssahil/PROJECTS/Mol_Feturizer/New_Systems/rnas/3D2X

>  <Rbt.Executable>
rbdock ($Id: //depot/dev/client3/rdock/2013.1/src/exe/rbdock.cxx#4 $)

>  <Rbt.Library>
libRbt.so (2013.1, Build901 2013/11/27)

>  <Rbt.Parameter_File>
/export/apps/rDock/src/rDock_2013.1_src/data/scripts/dock_solv.prm

>  <Rbt.Receptor>
prm/blind_docking_40.prm

>  <SCORE>
-18.7948

>  <SCORE.INTER>
-20.0163

>  <SCORE.INTER.CONST>
1

>  <SCORE.INTER.POLAR>
0

>  <SCORE.INTER.ROT>
8

>  <SCORE.INTER.SOLV>
16.2799

>  <SCORE.INTER.VDW>
-27.7041

>  <SCORE.INTER.norm>
-0.769857

>  <SCORE.INTRA>
1.22151

>  <SCORE.INTRA.DIHEDRAL>
-0.514083

>  <SCORE.INTRA.DIHEDRAL.0>
7.88077

>  <SCORE.INTRA.POLAR>
0

>  <SCORE.INTRA.POLAR.0>
0

>  <SCORE.INTRA.REPUL>
0

>  <SCORE.INTRA.REPUL.0>
0

>  <SCORE.INTRA.SOLV>
0.883986

>  <SCORE.INTRA.SOLV.lig_0>
-63.2542

>  <SCORE.INTRA.VDW>
1.03656

>  <SCORE.INTRA.VDW.0>
-3.15072

>  <SCORE.INTRA.norm>
0.0469811

>  <SCORE.RESTR>
0

>  <SCORE.RESTR.CAVITY>
0

>  <SCORE.RESTR.norm>
0

>  <SCORE.SYSTEM>
0

>  <SCORE.SYSTEM.CONST>
0

>  <SCORE.SYSTEM.DIHEDRAL>
0

>  <SCORE.SYSTEM.SOLV>
0

>  <SCORE.SYSTEM.norm>
0

>  <SCORE.heavy>
26

>  <SCORE.norm>
-0.722876

>  <RMSD>
11.850

$$$$
ligand
 OpenBabel11021811473D
libRbt.so/2013.1/901 2013/11/27
 26 27  0  0  0  0  0  0  0  0999 V2000
   -0.9254  -17.0630   17.5651 C   0  0  0  0  0  0  0  0  0  0  0  0
    3.5189  -17.2566   20.7849 C   0  0  0  0  0  0  0  0  0  0  0  0
    2.9478  -17.6600   19.5824 C   0  0  0  0  0  0  0  0  0  0  0  0
    1.4815  -17.4097   19.2219 C   0  0  0  0  0  0  0  0  0  0  0  0
   -0.1577  -18.3842   17.6684 C   0  0  1  0  0  0  0  0  0  0  0  0
    7.1172  -18.4067   20.2726 C   0  0  0  0  0  0  0  0  0  0  0  0
    5.6283  -18.1480   20.0371 C   0  0  0  0  0  0  0  0  0  0  0  0
    3.7631  -18.3029   18.6564 C   0  0  0  0  0  0  0  0  0  0  0  0
    1.5359  -19.7085   18.4173 C   0  0  0  0  0  0  0  0  0  0  0  0
   -0.5461  -19.5206   16.9690 C   0  0  2  0  0  0  0  0  0  0  0  0
   -1.7085  -19.7542   16.0006 C   0  0  0  0  0  0  0  0  0  0  0  0
   -2.0228  -21.2377   15.7935 C   0  0  0  0  0  0  0  0  0  0  0  0
    4.8734  -17.4987   21.0229 N   0  0  0  0  0  0  0  0  0  0  0  0
    0.9366  -18.5170   18.4231 N   0  0  0  0  0  0  0  0  0  0  0  0
    5.0426  -18.5262   18.8918 N   0  0  0  0  0  0  0  0  0  0  0  0
    2.8379  -16.6851   21.6366 O   0  0  0  0  0  0  0  0  0  0  0  0
   -5.1330  -22.4578   16.1871 O   0  5  0  0  0  0  0  0  0  0  0  0
   -5.4028  -18.3416   18.3128 O   0  0  0  0  0  0  0  0  0  0  0  0
   -3.1455  -21.4260   14.9264 O   0  0  0  0  0  0  0  0  0  0  0  0
   -4.5505  -20.0074   16.5686 O   0  0  0  0  0  0  0  0  0  0  0  0
   -6.2714  -18.2038   15.8800 O   0  5  0  0  0  0  0  0  0  0  0  0
   -5.5437  -20.7303   14.3086 O   0  0  0  0  0  0  0  0  0  0  0  0
   -6.9647  -20.1557   17.3959 O   0  0  0  0  0  0  0  0  0  0  0  0
    0.5753  -20.7728   17.4246 S   0  0  0  0  0  0  0  0  0  0  0  0
   -4.6492  -21.1283   15.4198 P   0  0  2  0  0  0  0  0  0  0  0  0
   -5.8239  -19.1090   16.9620 P   0  0  2  0  0  0  0  0  0  0  0  0
  2 16  2  0  0  0  0
  2  3  1  0  0  0  0
  2 13  1  0  0  0  0
  3  8  2  0  0  0  0
  3  4  1  0  0  0  0
  4 14  1  0  0  0  0
  5  1  1  6  0  0  0
  5 14  1  0  0  0  0
  5 10  1  0  0  0  0
  6  7  1  0  0  0  0
  7 13  1  0  0  0  0
  7 15  2  0  0  0  0
  8 15  1  0  0  0  0
  9 14  1  0  0  0  0
  9 24  1  0  0  0  0
 10 24  1  0  0  0  0
 10 11  1  1  0  0  0
 11 12  1  0  0  0  0
 12 19  1  0  0  0  0
 17 25  1  0  0  0  0
 19 25  1  0  0  0  0
 20 26  1  0  0  0  0
 21 26  1  0  0  0  0
 22 25  2  0  0  0  0
 23 26  2  0  0  0  0
 25 20  1  1  0  0  0
 26 18  1  1  0  0  0
M  CHG  2  17  -1  21  -1
M  END
>  <CHROM.1>
-145.52962881,-162.32062906,177.70575671,-160.20207565,-73.67479915,-88.33998190
-83.86977382,169.15669498,-1.04391497,-19.28831318,17.64051883,0.40824534
-0.15214737,0.70066984

>  <Name>
ligand

>  <RI>
0

>  <Rbt.Current_Directory>
/home/itssahil/PROJECTS/Mol_Feturizer/New_Systems/rnas/3D2X

>  <Rbt.Executable>
rbdock ($Id: //depot/dev/client3/rdock/2013.1/src/exe/rbdock.cxx#4 $)

>  <Rbt.Library>
libRbt.so (2013.1, Build901 2013/11/27)

>  <Rbt.Parameter_File>
/export/apps/rDock/src/rDock_2013.1_src/data/scripts/dock_solv.prm

>  <Rbt.Receptor>
prm/blind_docking_100.prm

>  <SCORE>
-18.7759

>  <SCORE.INTER>
-21.7179

>  <SCORE.INTER.CONST>
1

>  <SCORE.INTER.POLAR>
0

>  <SCORE.INTER.ROT>
8

>  <SCORE.INTER.SOLV>
19.9745

>  <SCORE.INTER.VDW>
-30.0701

>  <SCORE.INTER.norm>
-0.835304

>  <SCORE.INTRA>
2.93962

>  <SCORE.INTRA.DIHEDRAL>
-0.242432

>  <SCORE.INTRA.DIHEDRAL.0>
7.88077

>  <SCORE.INTRA.POLAR>
0

>  <SCORE.INTRA.POLAR.0>
0

>  <SCORE.INTRA.REPUL>
0

>  <SCORE.INTRA.REPUL.0>
0

>  <SCORE.INTRA.SOLV>
0.888954

>  <SCORE.INTRA.SOLV.lig_0>
-63.2542

>  <SCORE.INTRA.VDW>
2.61636

>  <SCORE.INTRA.VDW.0>
-3.15072

>  <SCORE.INTRA.norm>
0.113062

>  <SCORE.RESTR>
0.00241683

>  <SCORE.RESTR.CAVITY>
0.00241683

>  <SCORE.RESTR.norm>
9.29548e-05

>  <SCORE.SYSTEM>
0

>  <SCORE.SYSTEM.CONST>
0

>  <SCORE.SYSTEM.DIHEDRAL>
0

>  <SCORE.SYSTEM.SOLV>
0

>  <SCORE.SYSTEM.norm>
0

>  <SCORE.heavy>
26

>  <SCORE.norm>
-0.722149

>  <RMSD>
11.852

$$$$
ligand
 OpenBabel11021811473D
libRbt.so/2013.1/901 2013/11/27
 26 27  0  0  0  0  0  0  0  0999 V2000
    1.0934  -19.7261   17.2961 C   0  0  0  0  0  0  0  0  0  0  0  0
    4.9564  -18.5144   20.7053 C   0  0  0  0  0  0  0  0  0  0  0  0
    4.3403  -19.4329   19.8618 C   0  0  0  0  0  0  0  0  0  0  0  0
    3.6711  -19.0448   18.5411 C   0  0  0  0  0  0  0  0  0  0  0  0
    1.2904  -18.5183   18.2170 C   0  0  1  0  0  0  0  0  0  0  0  0
    6.2293  -20.8303   23.4529 C   0  0  0  0  0  0  0  0  0  0  0  0
    5.5480  -20.3249   22.1803 C   0  0  0  0  0  0  0  0  0  0  0  0
    4.3575  -20.7735   20.2333 C   0  0  0  0  0  0  0  0  0  0  0  0
    2.5163  -17.1676   19.5793 C   0  0  0  0  0  0  0  0  0  0  0  0
    0.2480  -17.6572   18.5387 C   0  0  2  0  0  0  0  0  0  0  0  0
   -1.2257  -17.6673   18.1247 C   0  0  0  0  0  0  0  0  0  0  0  0
   -1.4236  -17.4702   16.6200 C   0  0  0  0  0  0  0  0  0  0  0  0
    5.5699  -18.9566   21.8792 N   0  0  0  0  0  0  0  0  0  0  0  0
    2.4693  -18.2313   18.7760 N   0  0  0  0  0  0  0  0  0  0  0  0
    4.9409  -21.1804   21.3453 N   0  0  0  0  0  0  0  0  0  0  0  0
    4.9664  -17.3167   20.4204 O   0  0  0  0  0  0  0  0  0  0  0  0
   -1.7543  -21.1774   16.3893 O   0  5  0  0  0  0  0  0  0  0  0  0
   -4.4255  -17.4304   15.7845 O   0  0  0  0  0  0  0  0  0  0  0  0
   -1.2811  -18.6991   15.9008 O   0  0  0  0  0  0  0  0  0  0  0  0
   -3.4686  -19.4218   17.0738 O   0  0  0  0  0  0  0  0  0  0  0  0
   -5.9044  -19.5101   16.2091 O   0  5  0  0  0  0  0  0  0  0  0  0
   -3.1118  -19.9298   14.5776 O   0  0  0  0  0  0  0  0  0  0  0  0
   -5.2654  -17.9553   18.1489 O   0  0  0  0  0  0  0  0  0  0  0  0
    0.9388  -16.4248   19.5572 S   0  0  0  0  0  0  0  0  0  0  0  0
   -2.4462  -19.8107   15.8952 P   0  0  2  0  0  0  0  0  0  0  0  0
   -4.8389  -18.6427   16.7594 P   0  0  2  0  0  0  0  0  0  0  0  0
  2 16  2  0  0  0  0
  2  3  1  0  0  0  0
  2 13  1  0  0  0  0
  3  8  2  0  0  0  0
  3  4  1  0  0  0  0
  4 14  1  0  0  0  0
  5  1  1  1  0  0  0
  5 14  1  0  0  0  0
  5 10  1  0  0  0  0
  6  7  1  0  0  0  0
  7 13  1  0  0  0  0
  7 15  2  0  0  0  0
  8 15  1  0  0  0  0
  9 14  1  0  0  0  0
  9 24  1  0  0  0  0
 10 24  1  0  0  0  0
 10 11  1  6  0  0  0
 11 12  1  0  0  0  0
 12 19  1  0  0  0  0
 17 25  1  0  0  0  0
 19 25  1  0  0  0  0
 20 26  1  0  0  0  0
 21 26  1  0  0  0  0
 22 25  2  0  0  0  0
 23 26  2  0  0  0  0
 25 20  1  1  0  0  0
 26 18  1  6  0  0  0
M  CHG  2  17  -1  21  -1
M  END
>  <CHROM.1>
-67.52763496,-63.89580949,83.37891872,-129.35906093,76.44021767,-148.59236978
-125.35303719,-47.17887889,0.15732632,-18.84121793,18.30399911,-0.10758933
0.48659411,-2.83107043

>  <Name>
ligand

>  <RI>
0

>  <Rbt.Current_Directory>
/home/itssahil/PROJECTS/Mol_Feturizer/New_Systems/rnas/3D2X

>  <Rbt.Executable>
rbdock ($Id: //depot/dev/client3/rdock/2013.1/src/exe/rbdock.cxx#4 $)

>  <Rbt.Library>
libRbt.so (2013.1, Build901 2013/11/27)

>  <Rbt.Parameter_File>
/export/apps/rDock/src/rDock_2013.1_src/data/scripts/dock_solv.prm

>  <Rbt.Receptor>
prm/blind_docking_80.prm

>  <SCORE>
-12.4877

>  <SCORE.INTER>
-14.9734

>  <SCORE.INTER.CONST>
1

>  <SCORE.INTER.POLAR>
0

>  <SCORE.INTER.ROT>
8

>  <SCORE.INTER.SOLV>
16.3045

>  <SCORE.INTER.VDW>
-24.3505

>  <SCORE.INTER.norm>
-0.575901

>  <SCORE.INTRA>
2.48417

>  <SCORE.INTRA.DIHEDRAL>
4.00203

>  <SCORE.INTRA.DIHEDRAL.0>
7.88077

>  <SCORE.INTRA.POLAR>
0

>  <SCORE.INTRA.POLAR.0>
0

>  <SCORE.INTRA.REPUL>
0

>  <SCORE.INTRA.REPUL.0>
0

>  <SCORE.INTRA.SOLV>
0.27462

>  <SCORE.INTRA.SOLV.lig_0>
-63.2542

>  <SCORE.INTRA.VDW>
0.345843

>  <SCORE.INTRA.VDW.0>
-3.15072

>  <SCORE.INTRA.norm>
0.095545

>  <SCORE.RESTR>
0.00159763

>  <SCORE.RESTR.CAVITY>
0.00159763

>  <SCORE.RESTR.norm>
6.14473e-05

>  <SCORE.SYSTEM>
0

>  <SCORE.SYSTEM.CONST>
0

>  <SCORE.SYSTEM.DIHEDRAL>
0

>  <SCORE.SYSTEM.SOLV>
0

>  <SCORE.SYSTEM.norm>
0

>  <SCORE.heavy>
26

>  <SCORE.norm>
-0.480295

>  <RMSD>
11.858

$$$$
ligand
 OpenBabel11021811473D
libRbt.so/2013.1/901 2013/11/27
 26 27  0  0  0  0  0  0  0  0999 V2000
    0.0907  -15.9005   18.8703 C   0  0  0  0  0  0  0  0  0  0  0  0
    4.8663  -17.7951   19.5021 C   0  0  0  0  0  0  0  0  0  0  0  0
    3.9628  -17.3778   20.4738 C   0  0  0  0  0  0  0  0  0  0  0  0
    2.5908  -16.7835   20.1467 C   0  0  0  0  0  0  0  0  0  0  0  0
    0.6818  -17.3011   18.6844 C   0  0  1  0  0  0  0  0  0  0  0  0
    7.6968  -19.1057   21.6938 C   0  0  0  0  0  0  0  0  0  0  0  0
    6.3726  -18.4803   21.2528 C   0  0  0  0  0  0  0  0  0  0  0  0
    4.3226  -17.5327   21.8087 C   0  0  0  0  0  0  0  0  0  0  0  0
    2.2529  -18.9150   19.0165 C   0  0  0  0  0  0  0  0  0  0  0  0
    0.0739  -18.2586   17.8813 C   0  0  2  0  0  0  0  0  0  0  0  0
   -1.2047  -18.1985   17.0415 C   0  0  0  0  0  0  0  0  0  0  0  0
   -2.3325  -17.4240   17.7274 C   0  0  0  0  0  0  0  0  0  0  0  0
    6.0867  -18.3541   19.8869 N   0  0  0  0  0  0  0  0  0  0  0  0
    1.8220  -17.6784   19.2697 N   0  0  0  0  0  0  0  0  0  0  0  0
    5.4790  -18.0630   22.1611 N   0  0  0  0  0  0  0  0  0  0  0  0
    4.5939  -17.6775   18.3072 O   0  0  0  0  0  0  0  0  0  0  0  0
   -3.0937  -17.5032   14.9758 O   0  5  0  0  0  0  0  0  0  0  0  0
   -6.0086  -19.7984   17.7464 O   0  0  0  0  0  0  0  0  0  0  0  0
   -3.6148  -17.9924   17.4443 O   0  0  0  0  0  0  0  0  0  0  0  0
   -4.7686  -19.3320   15.5581 O   0  0  0  0  0  0  0  0  0  0  0  0
   -7.3539  -19.3992   15.5732 O   0  5  0  0  0  0  0  0  0  0  0  0
   -5.3963  -16.8710   15.9657 O   0  0  0  0  0  0  0  0  0  0  0  0
   -5.9922  -21.5535   15.8782 O   0  0  0  0  0  0  0  0  0  0  0  0
    1.0599  -19.6887   18.0071 S   0  0  0  0  0  0  0  0  0  0  0  0
   -4.2923  -17.8580   15.9896 P   0  0  2  0  0  0  0  0  0  0  0  0
   -6.1181  -19.9738   16.1502 P   0  0  2  0  0  0  0  0  0  0  0  0
  2 16  2  0  0  0  0
  2  3  1  0  0  0  0
  2 13  1  0  0  0  0
  3  8  2  0  0  0  0
  3  4  1  0  0  0  0
  4 14  1  0  0  0  0
  5  1  1  6  0  0  0
  5 14  1  0  0  0  0
  5 10  1  0  0  0  0
  6  7  1  0  0  0  0
  7 13  1  0  0  0  0
  7 15  2  0  0  0  0
  8 15  1  0  0  0  0
  9 14  1  0  0  0  0
  9 24  1  0  0  0  0
 10 24  1  0  0  0  0
 10 11  1  1  0  0  0
 11 12  1  0  0  0  0
 12 19  1  0  0  0  0
 17 25  1  0  0  0  0
 19 25  1  0  0  0  0
 20 26  1  0  0  0  0
 21 26  1  0  0  0  0
 22 25  2  0  0  0  0
 23 26  2  0  0  0  0
 25 20  1  6  0  0  0
 26 18  1  1  0  0  0
M  CHG  2  17  -1  21  -1
M  END
>  <CHROM.1>
54.06373968,-39.01288252,-144.57132940,-169.85346033,-71.88139439,-169.37925625
19.36131408,-50.75161356,-0.55357837,-18.40183150,18.03660687,0.05296262
-0.40242000,-0.08994292

>  <Name>
ligand

>  <RI>
0

>  <Rbt.Current_Directory>
/home/itssahil/PROJECTS/Mol_Feturizer/New_Systems/rnas/3D2X

>  <Rbt.Executable>
rbdock ($Id: //depot/dev/client3/rdock/2013.1/src/exe/rbdock.cxx#4 $)

>  <Rbt.Library>
libRbt.so (2013.1, Build901 2013/11/27)

>  <Rbt.Parameter_File>
/export/apps/rDock/src/rDock_2013.1_src/data/scripts/dock_solv.prm

>  <Rbt.Receptor>
prm/blind_docking_100.prm

>  <SCORE>
-17.3365

>  <SCORE.INTER>
-20.956

>  <SCORE.INTER.CONST>
1

>  <SCORE.INTER.POLAR>
0

>  <SCORE.INTER.ROT>
8

>  <SCORE.INTER.SOLV>
15.833

>  <SCORE.INTER.VDW>
-28.1816

>  <SCORE.INTER.norm>
-0.805999

>  <SCORE.INTRA>
3.61943

>  <SCORE.INTRA.DIHEDRAL>
3.82315

>  <SCORE.INTRA.DIHEDRAL.0>
7.88077

>  <SCORE.INTRA.POLAR>
0

>  <SCORE.INTRA.POLAR.0>
0

>  <SCORE.INTRA.REPUL>
0

>  <SCORE.INTRA.REPUL.0>
0

>  <SCORE.INTRA.SOLV>
-1.46094

>  <SCORE.INTRA.SOLV.lig_0>
-63.2542

>  <SCORE.INTRA.VDW>
2.43833

>  <SCORE.INTRA.VDW.0>
-3.15072

>  <SCORE.INTRA.norm>
0.139209

>  <SCORE.RESTR>
0

>  <SCORE.RESTR.CAVITY>
0

>  <SCORE.RESTR.norm>
0

>  <SCORE.SYSTEM>
0

>  <SCORE.SYSTEM.CONST>
0

>  <SCORE.SYSTEM.DIHEDRAL>
0

>  <SCORE.SYSTEM.SOLV>
0

>  <SCORE.SYSTEM.norm>
0

>  <SCORE.heavy>
26

>  <SCORE.norm>
-0.66679

>  <RMSD>
11.865

$$$$
ligand
 OpenBabel11021811473D
libRbt.so/2013.1/901 2013/11/27
 26 27  0  0  0  0  0  0  0  0999 V2000
    1.5241  -19.0824   17.9830 C   0  0  0  0  0  0  0  0  0  0  0  0
    5.6196  -19.2276   21.2418 C   0  0  0  0  0  0  0  0  0  0  0  0
    4.7905  -19.8390   20.3072 C   0  0  0  0  0  0  0  0  0  0  0  0
    4.2626  -19.1281   19.0587 C   0  0  0  0  0  0  0  0  0  0  0  0
    2.0718  -18.0166   18.9368 C   0  0  1  0  0  0  0  0  0  0  0  0
    6.2014  -22.1173   23.6591 C   0  0  0  0  0  0  0  0  0  0  0  0
    5.6926  -21.2970   22.4728 C   0  0  0  0  0  0  0  0  0  0  0  0
    4.4465  -21.1712   20.5130 C   0  0  0  0  0  0  0  0  0  0  0  0
    3.6771  -17.0907   20.2592 C   0  0  0  0  0  0  0  0  0  0  0  0
    1.2980  -16.9473   19.3720 C   0  0  2  0  0  0  0  0  0  0  0  0
   -0.1549  -16.5718   19.0698 C   0  0  0  0  0  0  0  0  0  0  0  0
   -0.4006  -16.2862   17.5864 C   0  0  0  0  0  0  0  0  0  0  0  0
    6.0808  -19.9573   22.3394 N   0  0  0  0  0  0  0  0  0  0  0  0
    3.3175  -18.0608   19.4173 N   0  0  0  0  0  0  0  0  0  0  0  0
    4.8888  -21.8516   21.5541 N   0  0  0  0  0  0  0  0  0  0  0  0
    5.9507  -18.0498   21.1040 O   0  0  0  0  0  0  0  0  0  0  0  0
   -1.6419  -19.7732   16.6617 O   0  5  0  0  0  0  0  0  0  0  0  0
   -4.6482  -19.5897   17.1595 O   0  0  0  0  0  0  0  0  0  0  0  0
   -0.4694  -17.4917   16.8184 O   0  0  0  0  0  0  0  0  0  0  0  0
   -2.8977  -17.7911   17.6535 O   0  0  0  0  0  0  0  0  0  0  0  0
   -5.2674  -17.5813   18.6679 O   0  5  0  0  0  0  0  0  0  0  0  0
   -2.3841  -17.8252   15.1332 O   0  0  0  0  0  0  0  0  0  0  0  0
   -4.8926  -17.2457   16.1510 O   0  0  0  0  0  0  0  0  0  0  0  0
    2.3353  -15.9845   20.3870 S   0  0  0  0  0  0  0  0  0  0  0  0
   -1.8785  -18.1920   16.4760 P   0  0  2  0  0  0  0  0  0  0  0  0
   -4.4801  -18.0246   17.4957 P   0  0  2  0  0  0  0  0  0  0  0  0
  2 16  2  0  0  0  0
  2  3  1  0  0  0  0
  2 13  1  0  0  0  0
  3  8  2  0  0  0  0
  3  4  1  0  0  0  0
  4 14  1  0  0  0  0
  5  1  1  1  0  0  0
  5 14  1  0  0  0  0
  5 10  1  0  0  0  0
  6  7  1  0  0  0  0
  7 13  1  0  0  0  0
  7 15  2  0  0  0  0
  8 15  1  0  0  0  0
  9 14  1  0  0  0  0
  9 24  1  0  0  0  0
 10 24  1  0  0  0  0
 10 11  1  6  0  0  0
 11 12  1  0  0  0  0
 12 19  1  0  0  0  0
 17 25  1  0  0  0  0
 19 25  1  0  0  0  0
 20 26  1  0  0  0  0
 21 26  1  0  0  0  0
 22 25  2  0  0  0  0
 23 26  2  0  0  0  0
 25 20  1  1  0  0  0
 26 18  1  6  0  0  0
M  CHG  2  17  -1  21  -1
M  END
>  <CHROM.1>
-67.55490048,-62.06972565,76.51732306,-123.73520700,95.19459141,-81.84246094
-138.63771800,55.68809933,0.75581893,-18.44486394,18.91376699,0.26697690
0.43622072,2.96275349

>  <Name>
ligand

>  <RI>
0

>  <Rbt.Current_Directory>
/home/itssahil/PROJECTS/Mol_Feturizer/New_Systems/rnas/3D2X

>  <Rbt.Executable>
rbdock ($Id: //depot/dev/client3/rdock/2013.1/src/exe/rbdock.cxx#4 $)

>  <Rbt.Library>
libRbt.so (2013.1, Build901 2013/11/27)

>  <Rbt.Parameter_File>
/export/apps/rDock/src/rDock_2013.1_src/data/scripts/dock_solv.prm

>  <Rbt.Receptor>
prm/blind_docking_80.prm

>  <SCORE>
-14.5932

>  <SCORE.INTER>
-17.6887

>  <SCORE.INTER.CONST>
1

>  <SCORE.INTER.POLAR>
0

>  <SCORE.INTER.ROT>
8

>  <SCORE.INTER.SOLV>
18.0562

>  <SCORE.INTER.VDW>
-26.7445

>  <SCORE.INTER.norm>
-0.680333

>  <SCORE.INTRA>
3.09548

>  <SCORE.INTRA.DIHEDRAL>
4.37178

>  <SCORE.INTRA.DIHEDRAL.0>
7.88077

>  <SCORE.INTRA.POLAR>
0

>  <SCORE.INTRA.POLAR.0>
0

>  <SCORE.INTRA.REPUL>
0

>  <SCORE.INTRA.REPUL.0>
0

>  <SCORE.INTRA.SOLV>
0.234861

>  <SCORE.INTRA.SOLV.lig_0>
-63.2542

>  <SCORE.INTRA.VDW>
0.792159

>  <SCORE.INTRA.VDW.0>
-3.15072

>  <SCORE.INTRA.norm>
0.119057

>  <SCORE.RESTR>
0

>  <SCORE.RESTR.CAVITY>
0

>  <SCORE.RESTR.norm>
0

>  <SCORE.SYSTEM>
0

>  <SCORE.SYSTEM.CONST>
0

>  <SCORE.SYSTEM.DIHEDRAL>
0

>  <SCORE.SYSTEM.SOLV>
0

>  <SCORE.SYSTEM.norm>
0

>  <SCORE.heavy>
26

>  <SCORE.norm>
-0.561276

>  <RMSD>
11.868

$$$$
ligand
 OpenBabel11021811473D
libRbt.so/2013.1/901 2013/11/27
 26 27  0  0  0  0  0  0  0  0999 V2000
   -2.3374  -17.6908   17.1679 C   0  0  0  0  0  0  0  0  0  0  0  0
   -4.0893  -22.2205   14.6511 C   0  0  0  0  0  0  0  0  0  0  0  0
   -3.8768  -20.8459   14.6538 C   0  0  0  0  0  0  0  0  0  0  0  0
   -3.6009  -20.0400   15.9254 C   0  0  0  0  0  0  0  0  0  0  0  0
   -1.5685  -18.9621   16.7961 C   0  0  1  0  0  0  0  0  0  0  0  0
   -4.5224  -22.8554   10.9172 C   0  0  0  0  0  0  0  0  0  0  0  0
   -4.3041  -22.1432   12.2530 C   0  0  0  0  0  0  0  0  0  0  0  0
   -3.8949  -20.1806   13.4321 C   0  0  0  0  0  0  0  0  0  0  0  0
   -1.3986  -21.0802   15.9786 C   0  0  0  0  0  0  0  0  0  0  0  0
   -0.2058  -19.0969   17.0331 C   0  0  2  0  0  0  0  0  0  0  0  0
    0.8023  -18.1349   17.6668 C   0  0  0  0  0  0  0  0  0  0  0  0
    1.8181  -18.8431   18.5661 C   0  0  0  0  0  0  0  0  0  0  0  0
   -4.3057  -22.8846   13.4420 N   0  0  0  0  0  0  0  0  0  0  0  0
   -2.1645  -20.0193   16.2375 N   0  0  0  0  0  0  0  0  0  0  0  0
   -4.0999  -20.8187   12.2948 N   0  0  0  0  0  0  0  0  0  0  0  0
   -4.0839  -22.8533   15.7072 O   0  0  0  0  0  0  0  0  0  0  0  0
    3.5474  -18.0533   21.4607 O   0  5  0  0  0  0  0  0  0  0  0  0
    5.4868  -20.2370   22.0453 O   0  0  0  0  0  0  0  0  0  0  0  0
    2.8623  -17.9591   18.9856 O   0  0  0  0  0  0  0  0  0  0  0  0
    4.0165  -20.0573   19.9597 O   0  0  0  0  0  0  0  0  0  0  0  0
    4.9566  -22.3606   20.6664 O   0  5  0  0  0  0  0  0  0  0  0  0
    5.3542  -17.8866   19.6198 O   0  0  0  0  0  0  0  0  0  0  0  0
    6.5125  -20.5532   19.7174 O   0  0  0  0  0  0  0  0  0  0  0  0
    0.2377  -20.6631   16.4138 S   0  0  0  0  0  0  0  0  0  0  0  0
    4.0320  -18.4494   19.9779 P   0  0  2  0  0  0  0  0  0  0  0  0
    5.2194  -20.9054   20.6057 P   0  0  2  0  0  0  0  0  0  0  0  0
  2 16  2  0  0  0  0
  2  3  1  0  0  0  0
  2 13  1  0  0  0  0
  3  8  2  0  0  0  0
  3  4  1  0  0  0  0
  4 14  1  0  0  0  0
  5  1  1  1  0  0  0
  5 14  1  0  0  0  0
  5 10  1  0  0  0  0
  6  7  1  0  0  0  0
  7 13  1  0  0  0  0
  7 15  2  0  0  0  0
  8 15  1  0  0  0  0
  9 14  1  0  0  0  0
  9 24  1  0  0  0  0
 10 24  1  0  0  0  0
 10 11  1  6  0  0  0
 11 12  1  0  0  0  0
 12 19  1  0  0  0  0
 17 25  1  0  0  0  0
 19 25  1  0  0  0  0
 20 26  1  0  0  0  0
 21 26  1  0  0  0  0
 22 25  2  0  0  0  0
 23 26  2  0  0  0  0
 25 20  1  6  0  0  0
 26 18  1  1  0  0  0
M  CHG  2  17  -1  21  -1
M  END
>  <CHROM.1>
87.48924634,141.00967890,171.37190867,145.80635937,178.02781035,-79.85624794
-94.14263066,46.99198881,0.60771536,-20.17506558,17.40459443,2.78624726,0.58337392
-2.81484707

>  <Name>
ligand

>  <RI>
0

>  <Rbt.Current_Directory>
/home/itssahil/PROJECTS/Mol_Feturizer/New_Systems/rnas/3D2X

>  <Rbt.Executable>
rbdock ($Id: //depot/dev/client3/rdock/2013.1/src/exe/rbdock.cxx#4 $)

>  <Rbt.Library>
libRbt.so (2013.1, Build901 2013/11/27)

>  <Rbt.Parameter_File>
/export/apps/rDock/src/rDock_2013.1_src/data/scripts/dock_solv.prm

>  <Rbt.Receptor>
prm/blind_docking_100.prm

>  <SCORE>
-20.3223

>  <SCORE.INTER>
-19.9065

>  <SCORE.INTER.CONST>
1

>  <SCORE.INTER.POLAR>
0

>  <SCORE.INTER.ROT>
8

>  <SCORE.INTER.SOLV>
16.9904

>  <SCORE.INTER.VDW>
-27.8678

>  <SCORE.INTER.norm>
-0.765634

>  <SCORE.INTRA>
-0.415851

>  <SCORE.INTRA.DIHEDRAL>
-0.458128

>  <SCORE.INTRA.DIHEDRAL.0>
7.88077

>  <SCORE.INTRA.POLAR>
0

>  <SCORE.INTRA.POLAR.0>
0

>  <SCORE.INTRA.REPUL>
0

>  <SCORE.INTRA.REPUL.0>
0

>  <SCORE.INTRA.SOLV>
-1.29333

>  <SCORE.INTRA.SOLV.lig_0>
-63.2542

>  <SCORE.INTRA.VDW>
0.459876

>  <SCORE.INTRA.VDW.0>
-3.15072

>  <SCORE.INTRA.norm>
-0.0159943

>  <SCORE.RESTR>
0

>  <SCORE.RESTR.CAVITY>
0

>  <SCORE.RESTR.norm>
0

>  <SCORE.SYSTEM>
0

>  <SCORE.SYSTEM.CONST>
0

>  <SCORE.SYSTEM.DIHEDRAL>
0

>  <SCORE.SYSTEM.SOLV>
0

>  <SCORE.SYSTEM.norm>
0

>  <SCORE.heavy>
26

>  <SCORE.norm>
-0.781628

>  <RMSD>
11.895

$$$$
ligand
 OpenBabel11021811473D
libRbt.so/2013.1/901 2013/11/27
 26 27  0  0  0  0  0  0  0  0999 V2000
    0.8738  -15.5350   20.0599 C   0  0  0  0  0  0  0  0  0  0  0  0
    5.3500  -18.0474   20.2711 C   0  0  0  0  0  0  0  0  0  0  0  0
    4.0523  -18.5469   20.2390 C   0  0  0  0  0  0  0  0  0  0  0  0
    2.8155  -17.6947   20.5337 C   0  0  0  0  0  0  0  0  0  0  0  0
    0.9560  -16.7974   19.1967 C   0  0  1  0  0  0  0  0  0  0  0  0
    7.3207  -21.1511   19.2631 C   0  0  0  0  0  0  0  0  0  0  0  0
    6.1610  -20.2212   19.6229 C   0  0  0  0  0  0  0  0  0  0  0  0
    3.8763  -19.8844   19.8989 C   0  0  0  0  0  0  0  0  0  0  0  0
    1.8439  -18.8058   18.5956 C   0  0  0  0  0  0  0  0  0  0  0  0
    0.1140  -17.0057   18.1109 C   0  0  2  0  0  0  0  0  0  0  0  0
   -1.0009  -16.1358   17.5246 C   0  0  0  0  0  0  0  0  0  0  0  0
   -2.4010  -16.6536   17.8623 C   0  0  0  0  0  0  0  0  0  0  0  0
    6.4220  -18.8866   19.9605 N   0  0  0  0  0  0  0  0  0  0  0  0
    1.8500  -17.7630   19.4272 N   0  0  0  0  0  0  0  0  0  0  0  0
    4.8972  -20.6686   19.6066 N   0  0  0  0  0  0  0  0  0  0  0  0
    5.5569  -16.8706   20.5677 O   0  0  0  0  0  0  0  0  0  0  0  0
   -4.7414  -17.9136   15.6709 O   0  5  0  0  0  0  0  0  0  0  0  0
   -1.5843  -20.2722   16.3140 O   0  0  0  0  0  0  0  0  0  0  0  0
   -2.6803  -17.8941   17.2059 O   0  0  0  0  0  0  0  0  0  0  0  0
   -4.0685  -20.0509   16.8826 O   0  0  0  0  0  0  0  0  0  0  0  0
   -3.2298  -22.1395   15.6086 O   0  5  0  0  0  0  0  0  0  0  0  0
   -5.0307  -18.0850   18.2338 O   0  0  0  0  0  0  0  0  0  0  0  0
   -3.2966  -19.8481   14.4541 O   0  0  0  0  0  0  0  0  0  0  0  0
    0.5329  -18.5700   17.4702 S   0  0  0  0  0  0  0  0  0  0  0  0
   -4.1830  -18.4590   17.0784 P   0  0  2  0  0  0  0  0  0  0  0  0
   -3.0555  -20.6833   15.8067 P   0  0  2  0  0  0  0  0  0  0  0  0
  2 16  2  0  0  0  0
  2  3  1  0  0  0  0
  2 13  1  0  0  0  0
  3  8  2  0  0  0  0
  3  4  1  0  0  0  0
  4 14  1  0  0  0  0
  5  1  1  6  0  0  0
  5 14  1  0  0  0  0
  5 10  1  0  0  0  0
  6  7  1  0  0  0  0
  7 13  1  0  0  0  0
  7 15  2  0  0  0  0
  8 15  1  0  0  0  0
  9 14  1  0  0  0  0
  9 24  1  0  0  0  0
 10 24  1  0  0  0  0
 10 11  1  1  0  0  0
 11 12  1  0  0  0  0
 12 19  1  0  0  0  0
 17 25  1  0  0  0  0
 19 25  1  0  0  0  0
 20 26  1  0  0  0  0
 21 26  1  0  0  0  0
 22 25  2  0  0  0  0
 23 26  2  0  0  0  0
 25 20  1  6  0  0  0
 26 18  1  1  0  0  0
M  CHG  2  17  -1  21  -1
M  END
>  <CHROM.1>
125.17365362,-104.76274211,-68.09842327,-155.55166827,-163.98159852,63.92213898
92.23204423,63.96363753,0.13233764,-18.73289946,18.01837812,0.19462535,-0.32898055
0.45844224

>  <Name>
ligand

>  <RI>
0

>  <Rbt.Current_Directory>
/home/itssahil/PROJECTS/Mol_Feturizer/New_Systems/rnas/3D2X

>  <Rbt.Executable>
rbdock ($Id: //depot/dev/client3/rdock/2013.1/src/exe/rbdock.cxx#4 $)

>  <Rbt.Library>
libRbt.so (2013.1, Build901 2013/11/27)

>  <Rbt.Parameter_File>
/export/apps/rDock/src/rDock_2013.1_src/data/scripts/dock_solv.prm

>  <Rbt.Receptor>
prm/blind_docking_60.prm

>  <SCORE>
-14.7255

>  <SCORE.INTER>
-16.1058

>  <SCORE.INTER.CONST>
1

>  <SCORE.INTER.POLAR>
0

>  <SCORE.INTER.ROT>
8

>  <SCORE.INTER.SOLV>
17.0383

>  <SCORE.INTER.VDW>
-25.35

>  <SCORE.INTER.norm>
-0.619453

>  <SCORE.INTRA>
0.0981078

>  <SCORE.INTRA.DIHEDRAL>
-0.0666588

>  <SCORE.INTRA.DIHEDRAL.0>
7.88077

>  <SCORE.INTRA.POLAR>
0

>  <SCORE.INTRA.POLAR.0>
0

>  <SCORE.INTRA.REPUL>
0

>  <SCORE.INTRA.REPUL.0>
0

>  <SCORE.INTRA.SOLV>
-1.63645

>  <SCORE.INTRA.SOLV.lig_0>
-63.2542

>  <SCORE.INTRA.VDW>
0.949664

>  <SCORE.INTRA.VDW.0>
-3.15072

>  <SCORE.INTRA.norm>
0.00377338

>  <SCORE.RESTR>
1.28216

>  <SCORE.RESTR.CAVITY>
1.28216

>  <SCORE.RESTR.norm>
0.0493139

>  <SCORE.SYSTEM>
0

>  <SCORE.SYSTEM.CONST>
0

>  <SCORE.SYSTEM.DIHEDRAL>
0

>  <SCORE.SYSTEM.SOLV>
0

>  <SCORE.SYSTEM.norm>
0

>  <SCORE.heavy>
26

>  <SCORE.norm>
-0.566366

>  <RMSD>
11.913

$$$$
ligand
 OpenBabel11021811473D
libRbt.so/2013.1/901 2013/11/27
 26 27  0  0  0  0  0  0  0  0999 V2000
    1.3276  -19.4752   17.5232 C   0  0  0  0  0  0  0  0  0  0  0  0
    5.3027  -18.6558   20.8967 C   0  0  0  0  0  0  0  0  0  0  0  0
    4.5945  -19.4855   20.0337 C   0  0  0  0  0  0  0  0  0  0  0  0
    3.9726  -19.0003   18.7220 C   0  0  0  0  0  0  0  0  0  0  0  0
    1.6362  -18.2858   18.4374 C   0  0  1  0  0  0  0  0  0  0  0  0
    6.3181  -21.1520   23.5931 C   0  0  0  0  0  0  0  0  0  0  0  0
    5.6965  -20.5500   22.3319 C   0  0  0  0  0  0  0  0  0  0  0  0
    4.4689  -20.8281   20.3761 C   0  0  0  0  0  0  0  0  0  0  0  0
    2.9895  -17.0357   19.7748 C   0  0  0  0  0  0  0  0  0  0  0  0
    0.6717  -17.3439   18.7746 C   0  0  2  0  0  0  0  0  0  0  0  0
   -0.8051  -17.2368   18.3860 C   0  0  0  0  0  0  0  0  0  0  0  0
   -1.0887  -17.7524   16.9732 C   0  0  0  0  0  0  0  0  0  0  0  0
    5.8636  -19.1856   22.0605 N   0  0  0  0  0  0  0  0  0  0  0  0
    2.8438  -18.0933   18.9753 N   0  0  0  0  0  0  0  0  0  0  0  0
    5.0039  -21.3183   21.4789 N   0  0  0  0  0  0  0  0  0  0  0  0
    5.4399  -17.4600   20.6377 O   0  0  0  0  0  0  0  0  0  0  0  0
   -2.0278  -20.0371   15.0930 O   0  5  0  0  0  0  0  0  0  0  0  0
   -5.1812  -18.4954   17.9963 O   0  0  0  0  0  0  0  0  0  0  0  0
   -2.4438  -18.1893   16.8299 O   0  0  0  0  0  0  0  0  0  0  0  0
   -4.4199  -19.4621   15.7537 O   0  0  0  0  0  0  0  0  0  0  0  0
   -5.8510  -17.3084   15.7975 O   0  5  0  0  0  0  0  0  0  0  0  0
   -3.0562  -17.7801   14.3652 O   0  0  0  0  0  0  0  0  0  0  0  0
   -6.8864  -19.5743   16.4155 O   0  0  0  0  0  0  0  0  0  0  0  0
    1.4761  -16.1693   19.7778 S   0  0  0  0  0  0  0  0  0  0  0  0
   -2.9903  -18.7952   15.4416 P   0  0  2  0  0  0  0  0  0  0  0  0
   -5.5970  -18.6143   16.4459 P   0  0  2  0  0  0  0  0  0  0  0  0
  2 16  2  0  0  0  0
  2  3  1  0  0  0  0
  2 13  1  0  0  0  0
  3  8  2  0  0  0  0
  3  4  1  0  0  0  0
  4 14  1  0  0  0  0
  5  1  1  1  0  0  0
  5 14  1  0  0  0  0
  5 10  1  0  0  0  0
  6  7  1  0  0  0  0
  7 13  1  0  0  0  0
  7 15  2  0  0  0  0
  8 15  1  0  0  0  0
  9 14  1  0  0  0  0
  9 24  1  0  0  0  0
 10 24  1  0  0  0  0
 10 11  1  6  0  0  0
 11 12  1  0  0  0  0
 12 19  1  0  0  0  0
 17 25  1  0  0  0  0
 19 25  1  0  0  0  0
 20 26  1  0  0  0  0
 21 26  1  0  0  0  0
 22 25  2  0  0  0  0
 23 26  2  0  0  0  0
 25 20  1  1  0  0  0
 26 18  1  1  0  0  0
M  CHG  2  17  -1  21  -1
M  END
>  <CHROM.1>
-68.80652449,-33.65687282,154.68041929,-126.97376598,-179.17298452,166.99558958
56.52147611,-75.28033951,0.07444246,-18.62337305,18.29704218,0.11903609,0.48076629
3.02998520

>  <Name>
ligand

>  <RI>
0

>  <Rbt.Current_Directory>
/home/itssahil/PROJECTS/Mol_Feturizer/New_Systems/rnas/3D2X

>  <Rbt.Executable>
rbdock ($Id: //depot/dev/client3/rdock/2013.1/src/exe/rbdock.cxx#4 $)

>  <Rbt.Library>
libRbt.so (2013.1, Build901 2013/11/27)

>  <Rbt.Parameter_File>
/export/apps/rDock/src/rDock_2013.1_src/data/scripts/dock_solv.prm

>  <Rbt.Receptor>
prm/blind_docking_100.prm

>  <SCORE>
-17.3781

>  <SCORE.INTER>
-17.7478

>  <SCORE.INTER.CONST>
1

>  <SCORE.INTER.POLAR>
0

>  <SCORE.INTER.ROT>
8

>  <SCORE.INTER.SOLV>
16.3327

>  <SCORE.INTER.VDW>
-26.2094

>  <SCORE.INTER.norm>
-0.682606

>  <SCORE.INTRA>
0.369669

>  <SCORE.INTRA.DIHEDRAL>
-0.425775

>  <SCORE.INTRA.DIHEDRAL.0>
7.88077

>  <SCORE.INTRA.POLAR>
0

>  <SCORE.INTRA.POLAR.0>
0

>  <SCORE.INTRA.REPUL>
0

>  <SCORE.INTRA.REPUL.0>
0

>  <SCORE.INTRA.SOLV>
-1.92967

>  <SCORE.INTRA.SOLV.lig_0>
-63.2542

>  <SCORE.INTRA.VDW>
1.54739

>  <SCORE.INTRA.VDW.0>
-3.15072

>  <SCORE.INTRA.norm>
0.014218

>  <SCORE.RESTR>
0

>  <SCORE.RESTR.CAVITY>
0

>  <SCORE.RESTR.norm>
0

>  <SCORE.SYSTEM>
0

>  <SCORE.SYSTEM.CONST>
0

>  <SCORE.SYSTEM.DIHEDRAL>
0

>  <SCORE.SYSTEM.SOLV>
0

>  <SCORE.SYSTEM.norm>
0

>  <SCORE.heavy>
26

>  <SCORE.norm>
-0.668388

>  <RMSD>
11.925

$$$$
ligand
 OpenBabel11021811473D
libRbt.so/2013.1/901 2013/11/27
 26 27  0  0  0  0  0  0  0  0999 V2000
   -0.0900  -16.0349   18.5240 C   0  0  0  0  0  0  0  0  0  0  0  0
    4.4675  -17.8305   20.9832 C   0  0  0  0  0  0  0  0  0  0  0  0
    3.6820  -17.7500   19.8381 C   0  0  0  0  0  0  0  0  0  0  0  0
    2.2272  -17.2745   19.8479 C   0  0  0  0  0  0  0  0  0  0  0  0
    0.3633  -17.4730   18.2553 C   0  0  1  0  0  0  0  0  0  0  0  0
    7.7663  -19.0201   19.4881 C   0  0  0  0  0  0  0  0  0  0  0  0
    6.3083  -18.5777   19.6207 C   0  0  0  0  0  0  0  0  0  0  0  0
    4.2624  -18.0997   18.6231 C   0  0  0  0  0  0  0  0  0  0  0  0
    1.7375  -19.2666   18.5339 C   0  0  0  0  0  0  0  0  0  0  0  0
   -0.2925  -18.2967   17.3482 C   0  0  2  0  0  0  0  0  0  0  0  0
   -1.5071  -18.0369   16.4534 C   0  0  0  0  0  0  0  0  0  0  0  0
   -2.8363  -18.3346   17.1513 C   0  0  0  0  0  0  0  0  0  0  0  0
    5.7964  -18.2474   20.8825 N   0  0  0  0  0  0  0  0  0  0  0  0
    1.4225  -18.0134   18.8643 N   0  0  0  0  0  0  0  0  0  0  0  0
    5.5200  -18.4921   18.5395 N   0  0  0  0  0  0  0  0  0  0  0  0
    3.9985  -17.5329   22.0820 O   0  0  0  0  0  0  0  0  0  0  0  0
   -6.4134  -17.6251   15.6709 O   0  5  0  0  0  0  0  0  0  0  0  0
   -7.8652  -20.0286   18.1137 O   0  0  0  0  0  0  0  0  0  0  0  0
   -3.9558  -17.9796   16.3338 O   0  0  0  0  0  0  0  0  0  0  0  0
   -5.7157  -19.8290   16.7413 O   0  0  0  0  0  0  0  0  0  0  0  0
   -7.9942  -20.0027   15.5302 O   0  5  0  0  0  0  0  0  0  0  0  0
   -5.7383  -17.6869   18.1653 O   0  0  0  0  0  0  0  0  0  0  0  0
   -7.0133  -22.0313   16.7593 O   0  0  0  0  0  0  0  0  0  0  0  0
    0.5317  -19.8298   17.4072 S   0  0  0  0  0  0  0  0  0  0  0  0
   -5.4688  -18.2419   16.8189 P   0  0  2  0  0  0  0  0  0  0  0  0
   -7.2036  -20.4358   16.7040 P   0  0  2  0  0  0  0  0  0  0  0  0
  2 16  2  0  0  0  0
  2  3  1  0  0  0  0
  2 13  1  0  0  0  0
  3  8  2  0  0  0  0
  3  4  1  0  0  0  0
  4 14  1  0  0  0  0
  5  1  1  6  0  0  0
  5 14  1  0  0  0  0
  5 10  1  0  0  0  0
  6  7  1  0  0  0  0
  7 13  1  0  0  0  0
  7 15  2  0  0  0  0
  8 15  1  0  0  0  0
  9 14  1  0  0  0  0
  9 24  1  0  0  0  0
 10 24  1  0  0  0  0
 10 11  1  1  0  0  0
 11 12  1  0  0  0  0
 12 19  1  0  0  0  0
 17 25  1  0  0  0  0
 19 25  1  0  0  0  0
 20 26  1  0  0  0  0
 21 26  1  0  0  0  0
 22 25  2  0  0  0  0
 23 26  2  0  0  0  0
 25 20  1  1  0  0  0
 26 18  1  1  0  0  0
M  CHG  2  17  -1  21  -1
M  END
>  <CHROM.1>
-144.31611033,-87.70999115,175.19116282,-150.18505199,177.82644669,-48.78319348
176.53189871,-63.75569688,-1.22757665,-18.68523507,17.99935466,0.18750823
-0.21799978,0.31609526

>  <Name>
ligand

>  <RI>
0

>  <Rbt.Current_Directory>
/home/itssahil/PROJECTS/Mol_Feturizer/New_Systems/rnas/3D2X

>  <Rbt.Executable>
rbdock ($Id: //depot/dev/client3/rdock/2013.1/src/exe/rbdock.cxx#4 $)

>  <Rbt.Library>
libRbt.so (2013.1, Build901 2013/11/27)

>  <Rbt.Parameter_File>
/export/apps/rDock/src/rDock_2013.1_src/data/scripts/dock_solv.prm

>  <Rbt.Receptor>
prm/blind_docking_80.prm

>  <SCORE>
-23.7029

>  <SCORE.INTER>
-22.5342

>  <SCORE.INTER.CONST>
1

>  <SCORE.INTER.POLAR>
0

>  <SCORE.INTER.ROT>
8

>  <SCORE.INTER.SOLV>
23.5672

>  <SCORE.INTER.VDW>
-31.8118

>  <SCORE.INTER.norm>
-0.866699

>  <SCORE.INTRA>
-1.16875

>  <SCORE.INTRA.DIHEDRAL>
-2.52503

>  <SCORE.INTRA.DIHEDRAL.0>
7.88077

>  <SCORE.INTRA.POLAR>
0

>  <SCORE.INTRA.POLAR.0>
0

>  <SCORE.INTRA.REPUL>
0

>  <SCORE.INTRA.REPUL.0>
0

>  <SCORE.INTRA.SOLV>
-1.56805

>  <SCORE.INTRA.SOLV.lig_0>
-63.2542

>  <SCORE.INTRA.VDW>
0.877787

>  <SCORE.INTRA.VDW.0>
-3.15072

>  <SCORE.INTRA.norm>
-0.0449521

>  <SCORE.RESTR>
0

>  <SCORE.RESTR.CAVITY>
0

>  <SCORE.RESTR.norm>
0

>  <SCORE.SYSTEM>
0

>  <SCORE.SYSTEM.CONST>
0

>  <SCORE.SYSTEM.DIHEDRAL>
0

>  <SCORE.SYSTEM.SOLV>
0

>  <SCORE.SYSTEM.norm>
0

>  <SCORE.heavy>
26

>  <SCORE.norm>
-0.911651

>  <RMSD>
11.935

$$$$
ligand
 OpenBabel11021811473D
libRbt.so/2013.1/901 2013/11/27
 26 27  0  0  0  0  0  0  0  0999 V2000
    1.0207  -15.0268   20.0479 C   0  0  0  0  0  0  0  0  0  0  0  0
    5.0026  -17.6978   19.6358 C   0  0  0  0  0  0  0  0  0  0  0  0
    4.4593  -17.4682   20.8955 C   0  0  0  0  0  0  0  0  0  0  0  0
    3.0846  -16.8322   21.1154 C   0  0  0  0  0  0  0  0  0  0  0  0
    1.1750  -16.4846   19.6045 C   0  0  1  0  0  0  0  0  0  0  0  0
    8.2954  -19.3672   20.5863 C   0  0  0  0  0  0  0  0  0  0  0  0
    6.9331  -18.6798   20.6904 C   0  0  0  0  0  0  0  0  0  0  0  0
    5.1995  -17.8600   22.0064 C   0  0  0  0  0  0  0  0  0  0  0  0
    2.1770  -18.5288   19.6211 C   0  0  0  0  0  0  0  0  0  0  0  0
    0.3454  -17.0572   18.6478 C   0  0  2  0  0  0  0  0  0  0  0  0
   -0.8185  -16.4679   17.8469 C   0  0  0  0  0  0  0  0  0  0  0  0
   -1.7659  -17.5370   17.2977 C   0  0  0  0  0  0  0  0  0  0  0  0
    6.2523  -18.3103   19.5227 N   0  0  0  0  0  0  0  0  0  0  0  0
    2.1236  -17.2848   20.0991 N   0  0  0  0  0  0  0  0  0  0  0  0
    6.3800  -18.4387   21.8877 N   0  0  0  0  0  0  0  0  0  0  0  0
    4.3862  -17.3676   18.6225 O   0  0  0  0  0  0  0  0  0  0  0  0
   -3.2157  -19.2473   15.3385 O   0  5  0  0  0  0  0  0  0  0  0  0
   -6.8623  -19.4780   18.1609 O   0  0  0  0  0  0  0  0  0  0  0  0
   -2.7663  -16.9717   16.4448 O   0  0  0  0  0  0  0  0  0  0  0  0
   -4.9102  -18.3084   16.9927 O   0  0  0  0  0  0  0  0  0  0  0  0
   -6.9220  -19.1406   15.5968 O   0  5  0  0  0  0  0  0  0  0  0  0
   -4.6381  -17.1876   14.6935 O   0  0  0  0  0  0  0  0  0  0  0  0
   -5.2829  -20.8136   16.6469 O   0  0  0  0  0  0  0  0  0  0  0  0
    0.8536  -18.7166   18.5013 S   0  0  0  0  0  0  0  0  0  0  0  0
   -3.9278  -17.8779   15.7946 P   0  0  2  0  0  0  0  0  0  0  0  0
   -6.0585  -19.4104   16.7681 P   0  0  2  0  0  0  0  0  0  0  0  0
  2 16  2  0  0  0  0
  2  3  1  0  0  0  0
  2 13  1  0  0  0  0
  3  8  2  0  0  0  0
  3  4  1  0  0  0  0
  4 14  1  0  0  0  0
  5  1  1  6  0  0  0
  5 14  1  0  0  0  0
  5 10  1  0  0  0  0
  6  7  1  0  0  0  0
  7 13  1  0  0  0  0
  7 15  2  0  0  0  0
  8 15  1  0  0  0  0
  9 14  1  0  0  0  0
  9 24  1  0  0  0  0
 10 24  1  0  0  0  0
 10 11  1  1  0  0  0
 11 12  1  0  0  0  0
 12 19  1  0  0  0  0
 17 25  1  0  0  0  0
 19 25  1  0  0  0  0
 20 26  1  0  0  0  0
 21 26  1  0  0  0  0
 22 25  2  0  0  0  0
 23 26  2  0  0  0  0
 25 20  1  1  0  0  0
 26 18  1  1  0  0  0
M  CHG  2  17  -1  21  -1
M  END
>  <CHROM.1>
37.38269638,-158.92706124,-174.20183051,-144.40814206,-177.08981841,-58.11548615
-40.89844525,-176.46431067,-0.25647276,-18.09605897,18.27007303,0.06538509
-0.37742140,-0.01500097

>  <Name>
ligand

>  <RI>
0

>  <Rbt.Current_Directory>
/home/itssahil/PROJECTS/Mol_Feturizer/New_Systems/rnas/3D2X

>  <Rbt.Executable>
rbdock ($Id: //depot/dev/client3/rdock/2013.1/src/exe/rbdock.cxx#4 $)

>  <Rbt.Library>
libRbt.so (2013.1, Build901 2013/11/27)

>  <Rbt.Parameter_File>
/export/apps/rDock/src/rDock_2013.1_src/data/scripts/dock_solv.prm

>  <Rbt.Receptor>
prm/blind_docking_100.prm

>  <SCORE>
-19.7295

>  <SCORE.INTER>
-20.1209

>  <SCORE.INTER.CONST>
1

>  <SCORE.INTER.POLAR>
0

>  <SCORE.INTER.ROT>
8

>  <SCORE.INTER.SOLV>
17.6394

>  <SCORE.INTER.VDW>
-28.227

>  <SCORE.INTER.norm>
-0.773879

>  <SCORE.INTRA>
0.391324

>  <SCORE.INTRA.DIHEDRAL>
-2.32253

>  <SCORE.INTRA.DIHEDRAL.0>
7.88077

>  <SCORE.INTRA.POLAR>
0

>  <SCORE.INTRA.POLAR.0>
0

>  <SCORE.INTRA.REPUL>
0

>  <SCORE.INTRA.REPUL.0>
0

>  <SCORE.INTRA.SOLV>
0.820625

>  <SCORE.INTRA.SOLV.lig_0>
-63.2542

>  <SCORE.INTRA.VDW>
1.14228

>  <SCORE.INTRA.VDW.0>
-3.15072

>  <SCORE.INTRA.norm>
0.0150509

>  <SCORE.RESTR>
0

>  <SCORE.RESTR.CAVITY>
0

>  <SCORE.RESTR.norm>
0

>  <SCORE.SYSTEM>
0

>  <SCORE.SYSTEM.CONST>
0

>  <SCORE.SYSTEM.DIHEDRAL>
0

>  <SCORE.SYSTEM.SOLV>
0

>  <SCORE.SYSTEM.norm>
0

>  <SCORE.heavy>
26

>  <SCORE.norm>
-0.758828

>  <RMSD>
11.964

$$$$
ligand
 OpenBabel11021811473D
libRbt.so/2013.1/901 2013/11/27
 26 27  0  0  0  0  0  0  0  0999 V2000
    0.6843  -21.3540   18.1042 C   0  0  0  0  0  0  0  0  0  0  0  0
    3.1570  -17.5653   19.2806 C   0  0  0  0  0  0  0  0  0  0  0  0
    2.3675  -18.7053   19.1717 C   0  0  0  0  0  0  0  0  0  0  0  0
    0.8484  -18.6972   19.3585 C   0  0  0  0  0  0  0  0  0  0  0  0
    0.0746  -20.0923   17.4863 C   0  0  1  0  0  0  0  0  0  0  0  0
    6.5932  -19.0146   18.4904 C   0  0  0  0  0  0  0  0  0  0  0  0
    5.0896  -18.9002   18.7454 C   0  0  0  0  0  0  0  0  0  0  0  0
    2.9951  -19.9056   18.8544 C   0  0  0  0  0  0  0  0  0  0  0  0
   -0.4323  -17.8730   17.4571 C   0  0  0  0  0  0  0  0  0  0  0  0
   -0.6151  -20.1200   16.2801 C   0  0  2  0  0  0  0  0  0  0  0  0
   -0.9368  -21.2803   15.3347 C   0  0  0  0  0  0  0  0  0  0  0  0
   -2.3753  -21.7832   15.4762 C   0  0  0  0  0  0  0  0  0  0  0  0
    4.5339  -17.6545   19.0662 N   0  0  0  0  0  0  0  0  0  0  0  0
    0.1566  -18.8967   18.0768 N   0  0  0  0  0  0  0  0  0  0  0  0
    4.2978  -19.9783   18.6533 N   0  0  0  0  0  0  0  0  0  0  0  0
    2.6479  -16.4799   19.5608 O   0  0  0  0  0  0  0  0  0  0  0  0
   -5.2083  -21.8939   16.4190 O   0  5  0  0  0  0  0  0  0  0  0  0
   -4.0420  -19.1827   17.1389 O   0  0  0  0  0  0  0  0  0  0  0  0
   -3.3251  -20.7991   15.0554 O   0  0  0  0  0  0  0  0  0  0  0  0
   -5.6551  -19.6913   15.2198 O   0  0  0  0  0  0  0  0  0  0  0  0
   -5.7367  -17.3814   16.3802 O   0  5  0  0  0  0  0  0  0  0  0  0
   -5.3392  -21.8378   13.8381 O   0  0  0  0  0  0  0  0  0  0  0  0
   -6.5439  -19.4861   17.6078 O   0  0  0  0  0  0  0  0  0  0  0  0
   -1.0789  -18.4734   15.9530 S   0  0  0  0  0  0  0  0  0  0  0  0
   -4.9063  -21.1041   15.0495 P   0  0  2  0  0  0  0  0  0  0  0  0
   -5.5058  -18.8310   16.5693 P   0  0  2  0  0  0  0  0  0  0  0  0
  2 16  2  0  0  0  0
  2  3  1  0  0  0  0
  2 13  1  0  0  0  0
  3  8  2  0  0  0  0
  3  4  1  0  0  0  0
  4 14  1  0  0  0  0
  5  1  1  1  0  0  0
  5 14  1  0  0  0  0
  5 10  1  0  0  0  0
  6  7  1  0  0  0  0
  7 13  1  0  0  0  0
  7 15  2  0  0  0  0
  8 15  1  0  0  0  0
  9 14  1  0  0  0  0
  9 24  1  0  0  0  0
 10 24  1  0  0  0  0
 10 11  1  6  0  0  0
 11 12  1  0  0  0  0
 12 19  1  0  0  0  0
 17 25  1  0  0  0  0
 19 25  1  0  0  0  0
 20 26  1  0  0  0  0
 21 26  1  0  0  0  0
 22 25  2  0  0  0  0
 23 26  2  0  0  0  0
 25 20  1  1  0  0  0
 26 18  1  1  0  0  0
M  CHG  2  17  -1  21  -1
M  END
>  <CHROM.1>
108.61124556,101.40414321,66.24638904,76.00232310,177.49358763,46.99371242
42.30964747,30.12743653,-1.27492793,-19.51595911,17.02412022,-0.30711475
0.20289621,-2.59513178

>  <Name>
ligand

>  <RI>
0

>  <Rbt.Current_Directory>
/home/itssahil/PROJECTS/Mol_Feturizer/New_Systems/rnas/3D2X

>  <Rbt.Executable>
rbdock ($Id: //depot/dev/client3/rdock/2013.1/src/exe/rbdock.cxx#4 $)

>  <Rbt.Library>
libRbt.so (2013.1, Build901 2013/11/27)

>  <Rbt.Parameter_File>
/export/apps/rDock/src/rDock_2013.1_src/data/scripts/dock_solv.prm

>  <Rbt.Receptor>
prm/blind_docking_100.prm

>  <SCORE>
-10.2187

>  <SCORE.INTER>
-8.93729

>  <SCORE.INTER.CONST>
1

>  <SCORE.INTER.POLAR>
0

>  <SCORE.INTER.ROT>
8

>  <SCORE.INTER.SOLV>
20.7693

>  <SCORE.INTER.VDW>
-21.8146

>  <SCORE.INTER.norm>
-0.343742

>  <SCORE.INTRA>
-1.28141

>  <SCORE.INTRA.DIHEDRAL>
-0.846689

>  <SCORE.INTRA.DIHEDRAL.0>
7.88077

>  <SCORE.INTRA.POLAR>
0

>  <SCORE.INTRA.POLAR.0>
0

>  <SCORE.INTRA.REPUL>
0

>  <SCORE.INTRA.REPUL.0>
0

>  <SCORE.INTRA.SOLV>
-2.14681

>  <SCORE.INTRA.SOLV.lig_0>
-63.2542

>  <SCORE.INTRA.VDW>
0.215343

>  <SCORE.INTRA.VDW.0>
-3.15072

>  <SCORE.INTRA.norm>
-0.0492849

>  <SCORE.RESTR>
0

>  <SCORE.RESTR.CAVITY>
0

>  <SCORE.RESTR.norm>
0

>  <SCORE.SYSTEM>
0

>  <SCORE.SYSTEM.CONST>
0

>  <SCORE.SYSTEM.DIHEDRAL>
0

>  <SCORE.SYSTEM.SOLV>
0

>  <SCORE.SYSTEM.norm>
0

>  <SCORE.heavy>
26

>  <SCORE.norm>
-0.393027

>  <RMSD>
11.974

$$$$
ligand
 OpenBabel11021811473D
libRbt.so/2013.1/901 2013/11/27
 26 27  0  0  0  0  0  0  0  0999 V2000
    1.5686  -15.7121   20.2634 C   0  0  0  0  0  0  0  0  0  0  0  0
    5.4879  -18.7972   18.7742 C   0  0  0  0  0  0  0  0  0  0  0  0
    4.9487  -18.5958   20.0404 C   0  0  0  0  0  0  0  0  0  0  0  0
    3.8410  -17.5803   20.3311 C   0  0  0  0  0  0  0  0  0  0  0  0
    1.5926  -17.0367   19.4949 C   0  0  1  0  0  0  0  0  0  0  0  0
    7.9747  -21.5919   19.5076 C   0  0  0  0  0  0  0  0  0  0  0  0
    6.9047  -20.5150   19.6934 C   0  0  0  0  0  0  0  0  0  0  0  0
    5.4301  -19.3770   21.0862 C   0  0  0  0  0  0  0  0  0  0  0  0
    2.5563  -18.9814   18.8076 C   0  0  0  0  0  0  0  0  0  0  0  0
    0.5322  -17.4458   18.6952 C   0  0  2  0  0  0  0  0  0  0  0  0
   -0.8046  -16.7704   18.3788 C   0  0  0  0  0  0  0  0  0  0  0  0
   -1.4814  -17.3431   17.1313 C   0  0  0  0  0  0  0  0  0  0  0  0
    6.4767  -19.7657   18.5895 N   0  0  0  0  0  0  0  0  0  0  0  0
    2.6383  -17.8672   19.5361 N   0  0  0  0  0  0  0  0  0  0  0  0
    6.3650  -20.2901   20.9000 N   0  0  0  0  0  0  0  0  0  0  0  0
    5.0954  -18.1296   17.8171 O   0  0  0  0  0  0  0  0  0  0  0  0
   -5.3422  -17.9035   16.6513 O   0  5  0  0  0  0  0  0  0  0  0  0
   -6.4238  -16.3434   14.6299 O   0  0  0  0  0  0  0  0  0  0  0  0
   -2.8945  -17.4805   17.3102 O   0  0  0  0  0  0  0  0  0  0  0  0
   -4.0793  -15.9671   15.5813 O   0  0  0  0  0  0  0  0  0  0  0  0
   -5.1802  -14.1305   14.1309 O   0  5  0  0  0  0  0  0  0  0  0  0
   -3.4431  -18.3818   14.9642 O   0  0  0  0  0  0  0  0  0  0  0  0
   -4.3896  -16.3300   13.0700 O   0  0  0  0  0  0  0  0  0  0  0  0
    0.9772  -19.0086   18.0684 S   0  0  0  0  0  0  0  0  0  0  0  0
   -3.9042  -17.4935   16.0558 P   0  0  2  0  0  0  0  0  0  0  0  0
   -5.0318  -15.5876   14.3435 P   0  0  2  0  0  0  0  0  0  0  0  0
  2 16  2  0  0  0  0
  2  3  1  0  0  0  0
  2 13  1  0  0  0  0
  3  8  2  0  0  0  0
  3  4  1  0  0  0  0
  4 14  1  0  0  0  0
  5  1  1  6  0  0  0
  5 14  1  0  0  0  0
  5 10  1  0  0  0  0
  6  7  1  0  0  0  0
  7 13  1  0  0  0  0
  7 15  2  0  0  0  0
  8 15  1  0  0  0  0
  9 14  1  0  0  0  0
  9 24  1  0  0  0  0
 10 24  1  0  0  0  0
 10 11  1  1  0  0  0
 11 12  1  0  0  0  0
 12 19  1  0  0  0  0
 17 25  1  0  0  0  0
 19 25  1  0  0  0  0
 20 26  1  0  0  0  0
 21 26  1  0  0  0  0
 22 25  2  0  0  0  0
 23 26  2  0  0  0  0
 25 20  1  6  0  0  0
 26 18  1  1  0  0  0
M  CHG  2  17  -1  21  -1
M  END
>  <CHROM.1>
59.02051166,161.93588222,139.42833620,-172.03628185,155.66871928,-67.63739195
170.95687236,49.13414986,0.09490823,-17.74263169,17.50347600,0.14835696,-0.47740766
0.89135231

>  <Name>
ligand

>  <RI>
0

>  <Rbt.Current_Directory>
/home/itssahil/PROJECTS/Mol_Feturizer/New_Systems/rnas/3D2X

>  <Rbt.Executable>
rbdock ($Id: //depot/dev/client3/rdock/2013.1/src/exe/rbdock.cxx#4 $)

>  <Rbt.Library>
libRbt.so (2013.1, Build901 2013/11/27)

>  <Rbt.Parameter_File>
/export/apps/rDock/src/rDock_2013.1_src/data/scripts/dock_solv.prm

>  <Rbt.Receptor>
prm/blind_docking_100.prm

>  <SCORE>
-16.5931

>  <SCORE.INTER>
-19.226

>  <SCORE.INTER.CONST>
1

>  <SCORE.INTER.POLAR>
0

>  <SCORE.INTER.ROT>
8

>  <SCORE.INTER.SOLV>
17.353

>  <SCORE.INTER.VDW>
-27.535

>  <SCORE.INTER.norm>
-0.739462

>  <SCORE.INTRA>
2.61191

>  <SCORE.INTRA.DIHEDRAL>
3.94564

>  <SCORE.INTRA.DIHEDRAL.0>
7.88077

>  <SCORE.INTRA.POLAR>
0

>  <SCORE.INTRA.POLAR.0>
0

>  <SCORE.INTRA.REPUL>
0

>  <SCORE.INTRA.REPUL.0>
0

>  <SCORE.INTRA.SOLV>
-0.999522

>  <SCORE.INTRA.SOLV.lig_0>
-63.2542

>  <SCORE.INTRA.VDW>
1.13885

>  <SCORE.INTRA.VDW.0>
-3.15072

>  <SCORE.INTRA.norm>
0.100458

>  <SCORE.RESTR>
0.0210248

>  <SCORE.RESTR.CAVITY>
0.0210248

>  <SCORE.RESTR.norm>
0.000808645

>  <SCORE.SYSTEM>
0

>  <SCORE.SYSTEM.CONST>
0

>  <SCORE.SYSTEM.DIHEDRAL>
0

>  <SCORE.SYSTEM.SOLV>
0

>  <SCORE.SYSTEM.norm>
0

>  <SCORE.heavy>
26

>  <SCORE.norm>
-0.638195

>  <RMSD>
11.990

$$$$
ligand
 OpenBabel11021811473D
libRbt.so/2013.1/901 2013/11/27
 26 27  0  0  0  0  0  0  0  0999 V2000
   -0.4735  -15.9105   18.4609 C   0  0  0  0  0  0  0  0  0  0  0  0
    3.9707  -17.5729   21.2456 C   0  0  0  0  0  0  0  0  0  0  0  0
    3.3868  -17.4117   19.9935 C   0  0  0  0  0  0  0  0  0  0  0  0
    1.9655  -16.8814   19.7903 C   0  0  0  0  0  0  0  0  0  0  0  0
    0.0985  -17.3152   18.2488 C   0  0  1  0  0  0  0  0  0  0  0  0
    7.4321  -18.8216   20.2493 C   0  0  0  0  0  0  0  0  0  0  0  0
    5.9864  -18.3296   20.1650 C   0  0  0  0  0  0  0  0  0  0  0  0
    4.1478  -17.7295   18.8731 C   0  0  0  0  0  0  0  0  0  0  0  0
    1.6284  -18.9684   18.5797 C   0  0  0  0  0  0  0  0  0  0  0  0
   -0.4987  -18.2345   17.3946 C   0  0  2  0  0  0  0  0  0  0  0  0
   -1.7467  -18.1232   16.5151 C   0  0  0  0  0  0  0  0  0  0  0  0
   -3.0481  -18.1595   17.3196 C   0  0  0  0  0  0  0  0  0  0  0  0
    5.2846  -18.0358   21.3417 N   0  0  0  0  0  0  0  0  0  0  0  0
    1.2112  -17.7328   18.8591 N   0  0  0  0  0  0  0  0  0  0  0  0
    5.3894  -18.1660   18.9757 N   0  0  0  0  0  0  0  0  0  0  0  0
    3.3370  -17.3062   22.2670 O   0  0  0  0  0  0  0  0  0  0  0  0
   -3.4667  -19.5200   14.2601 O   0  5  0  0  0  0  0  0  0  0  0  0
   -1.6545  -21.4362   14.5444 O   0  0  0  0  0  0  0  0  0  0  0  0
   -4.1756  -18.4599   16.4912 O   0  0  0  0  0  0  0  0  0  0  0  0
   -3.3386  -20.9040   16.3949 O   0  0  0  0  0  0  0  0  0  0  0  0
   -2.0076  -23.1199   16.4765 O   0  5  0  0  0  0  0  0  0  0  0  0
   -5.6412  -20.2873   15.4283 O   0  0  0  0  0  0  0  0  0  0  0  0
   -3.8404  -22.7644   14.7151 O   0  0  0  0  0  0  0  0  0  0  0  0
    0.4568  -19.6864   17.5061 S   0  0  0  0  0  0  0  0  0  0  0  0
   -4.2507  -19.8206   15.6332 P   0  0  2  0  0  0  0  0  0  0  0  0
   -2.6592  -22.1232   15.5977 P   0  0  2  0  0  0  0  0  0  0  0  0
  2 16  2  0  0  0  0
  2  3  1  0  0  0  0
  2 13  1  0  0  0  0
  3  8  2  0  0  0  0
  3  4  1  0  0  0  0
  4 14  1  0  0  0  0
  5  1  1  6  0  0  0
  5 14  1  0  0  0  0
  5 10  1  0  0  0  0
  6  7  1  0  0  0  0
  7 13  1  0  0  0  0
  7 15  2  0  0  0  0
  8 15  1  0  0  0  0
  9 14  1  0  0  0  0
  9 24  1  0  0  0  0
 10 24  1  0  0  0  0
 10 11  1  1  0  0  0
 11 12  1  0  0  0  0
 12 19  1  0  0  0  0
 17 25  1  0  0  0  0
 19 25  1  0  0  0  0
 20 26  1  0  0  0  0
 21 26  1  0  0  0  0
 22 25  2  0  0  0  0
 23 26  2  0  0  0  0
 25 20  1  1  0  0  0
 26 18  1  6  0  0  0
M  CHG  2  17  -1  21  -1
M  END
>  <CHROM.1>
-131.92194497,-73.53084598,-162.38014156,-162.06491950,58.46666044,-41.75086080
-84.93905727,62.61805611,-0.18019093,-19.23250070,17.59971968,0.49363050
-0.35845604,0.44754479

>  <Name>
ligand

>  <RI>
0

>  <Rbt.Current_Directory>
/home/itssahil/PROJECTS/Mol_Feturizer/New_Systems/rnas/3D2X

>  <Rbt.Executable>
rbdock ($Id: //depot/dev/client3/rdock/2013.1/src/exe/rbdock.cxx#4 $)

>  <Rbt.Library>
libRbt.so (2013.1, Build901 2013/11/27)

>  <Rbt.Parameter_File>
/export/apps/rDock/src/rDock_2013.1_src/data/scripts/dock_solv.prm

>  <Rbt.Receptor>
prm/blind_docking_60.prm

>  <SCORE>
-20.8098

>  <SCORE.INTER>
-21.6257

>  <SCORE.INTER.CONST>
1

>  <SCORE.INTER.POLAR>
0

>  <SCORE.INTER.ROT>
8

>  <SCORE.INTER.SOLV>
14.3654

>  <SCORE.INTER.VDW>
-28.139

>  <SCORE.INTER.norm>
-0.831759

>  <SCORE.INTRA>
0.815954

>  <SCORE.INTRA.DIHEDRAL>
-0.20642

>  <SCORE.INTRA.DIHEDRAL.0>
7.88077

>  <SCORE.INTRA.POLAR>
0

>  <SCORE.INTRA.POLAR.0>
0

>  <SCORE.INTRA.REPUL>
0

>  <SCORE.INTRA.REPUL.0>
0

>  <SCORE.INTRA.SOLV>
0.488049

>  <SCORE.INTRA.SOLV.lig_0>
-63.2542

>  <SCORE.INTRA.VDW>
0.675139

>  <SCORE.INTRA.VDW.0>
-3.15072

>  <SCORE.INTRA.norm>
0.0313828

>  <SCORE.RESTR>
0

>  <SCORE.RESTR.CAVITY>
0

>  <SCORE.RESTR.norm>
0

>  <SCORE.SYSTEM>
0

>  <SCORE.SYSTEM.CONST>
0

>  <SCORE.SYSTEM.DIHEDRAL>
0

>  <SCORE.SYSTEM.SOLV>
0

>  <SCORE.SYSTEM.norm>
0

>  <SCORE.heavy>
26

>  <SCORE.norm>
-0.800377

>  <RMSD>
12.003

$$$$
ligand
 OpenBabel11021811473D
libRbt.so/2013.1/901 2013/11/27
 26 27  0  0  0  0  0  0  0  0999 V2000
   -0.2989  -16.2384   18.1198 C   0  0  0  0  0  0  0  0  0  0  0  0
    4.1556  -17.7505   20.9478 C   0  0  0  0  0  0  0  0  0  0  0  0
    3.4560  -17.7222   19.7459 C   0  0  0  0  0  0  0  0  0  0  0  0
    1.9895  -17.2979   19.6362 C   0  0  0  0  0  0  0  0  0  0  0  0
    0.2260  -17.6685   17.9620 C   0  0  1  0  0  0  0  0  0  0  0  0
    7.5951  -18.8553   19.7307 C   0  0  0  0  0  0  0  0  0  0  0  0
    6.1173  -18.4617   19.7440 C   0  0  0  0  0  0  0  0  0  0  0  0
    4.1372  -18.0773   18.5860 C   0  0  0  0  0  0  0  0  0  0  0  0
    1.6538  -19.3818   18.4197 C   0  0  0  0  0  0  0  0  0  0  0  0
   -0.3449  -18.5708   17.0724 C   0  0  2  0  0  0  0  0  0  0  0  0
   -1.5176  -18.4159   16.1006 C   0  0  0  0  0  0  0  0  0  0  0  0
   -2.1492  -19.7542   15.7104 C   0  0  0  0  0  0  0  0  0  0  0  0
    5.5014  -18.1226   20.9561 N   0  0  0  0  0  0  0  0  0  0  0  0
    1.2707  -18.1265   18.6574 N   0  0  0  0  0  0  0  0  0  0  0  0
    5.4100  -18.4269   18.6055 N   0  0  0  0  0  0  0  0  0  0  0  0
    3.5958  -17.4461   22.0012 O   0  0  0  0  0  0  0  0  0  0  0  0
   -4.7844  -18.7834   15.2586 O   0  5  0  0  0  0  0  0  0  0  0  0
   -7.9002  -21.9078   16.2101 O   0  0  0  0  0  0  0  0  0  0  0  0
   -3.1362  -20.1715   16.6588 O   0  0  0  0  0  0  0  0  0  0  0  0
   -5.6549  -20.7527   16.6199 O   0  0  0  0  0  0  0  0  0  0  0  0
   -7.7689  -19.9106   17.8491 O   0  5  0  0  0  0  0  0  0  0  0  0
   -4.8342  -18.6415   17.8391 O   0  0  0  0  0  0  0  0  0  0  0  0
   -7.4930  -19.5368   15.3247 O   0  0  0  0  0  0  0  0  0  0  0  0
    0.5358  -20.0607   17.2665 S   0  0  0  0  0  0  0  0  0  0  0  0
   -4.6128  -19.5292   16.6744 P   0  0  2  0  0  0  0  0  0  0  0  0
   -7.2405  -20.4907   16.5942 P   0  0  2  0  0  0  0  0  0  0  0  0
  2 16  2  0  0  0  0
  2  3  1  0  0  0  0
  2 13  1  0  0  0  0
  3  8  2  0  0  0  0
  3  4  1  0  0  0  0
  4 14  1  0  0  0  0
  5  1  1  6  0  0  0
  5 14  1  0  0  0  0
  5 10  1  0  0  0  0
  6  7  1  0  0  0  0
  7 13  1  0  0  0  0
  7 15  2  0  0  0  0
  8 15  1  0  0  0  0
  9 14  1  0  0  0  0
  9 24  1  0  0  0  0
 10 24  1  0  0  0  0
 10 11  1  1  0  0  0
 11 12  1  0  0  0  0
 12 19  1  0  0  0  0
 17 25  1  0  0  0  0
 19 25  1  0  0  0  0
 20 26  1  0  0  0  0
 21 26  1  0  0  0  0
 22 25  2  0  0  0  0
 23 26  2  0  0  0  0
 25 20  1  1  0  0  0
 26 18  1  6  0  0  0
M  CHG  2  17  -1  21  -1
M  END
>  <CHROM.1>
-141.73193092,-158.03815536,85.55974018,-150.96248778,77.85773612,-66.85733100
16.08814613,167.64444797,-1.11301761,-19.03991618,17.81197691,0.34026537
-0.00456675,1.02293609

>  <Name>
ligand

>  <RI>
0

>  <Rbt.Current_Directory>
/home/itssahil/PROJECTS/Mol_Feturizer/New_Systems/rnas/3D2X

>  <Rbt.Executable>
rbdock ($Id: //depot/dev/client3/rdock/2013.1/src/exe/rbdock.cxx#4 $)

>  <Rbt.Library>
libRbt.so (2013.1, Build901 2013/11/27)

>  <Rbt.Parameter_File>
/export/apps/rDock/src/rDock_2013.1_src/data/scripts/dock_solv.prm

>  <Rbt.Receptor>
prm/blind_docking_80.prm

>  <SCORE>
-18.0643

>  <SCORE.INTER>
-21.6961

>  <SCORE.INTER.CONST>
1

>  <SCORE.INTER.POLAR>
0

>  <SCORE.INTER.ROT>
8

>  <SCORE.INTER.SOLV>
24.7379

>  <SCORE.INTER.VDW>
-31.6434

>  <SCORE.INTER.norm>
-0.834466

>  <SCORE.INTRA>
3.59468

>  <SCORE.INTRA.DIHEDRAL>
2.78666

>  <SCORE.INTRA.DIHEDRAL.0>
7.88077

>  <SCORE.INTRA.POLAR>
0

>  <SCORE.INTRA.POLAR.0>
0

>  <SCORE.INTRA.REPUL>
0

>  <SCORE.INTRA.REPUL.0>
0

>  <SCORE.INTRA.SOLV>
1.61657

>  <SCORE.INTRA.SOLV.lig_0>
-63.2542

>  <SCORE.INTRA.VDW>
1.39307

>  <SCORE.INTRA.VDW.0>
-3.15072

>  <SCORE.INTRA.norm>
0.138257

>  <SCORE.RESTR>
0.0371151

>  <SCORE.RESTR.CAVITY>
0.0371151

>  <SCORE.RESTR.norm>
0.00142751

>  <SCORE.SYSTEM>
0

>  <SCORE.SYSTEM.CONST>
0

>  <SCORE.SYSTEM.DIHEDRAL>
0

>  <SCORE.SYSTEM.SOLV>
0

>  <SCORE.SYSTEM.norm>
0

>  <SCORE.heavy>
26

>  <SCORE.norm>
-0.694781

>  <RMSD>
12.015

$$$$
ligand
 OpenBabel11021811473D
libRbt.so/2013.1/901 2013/11/27
 26 27  0  0  0  0  0  0  0  0999 V2000
    0.7910  -19.1823   17.2141 C   0  0  0  0  0  0  0  0  0  0  0  0
    5.0998  -20.0869   20.4967 C   0  0  0  0  0  0  0  0  0  0  0  0
    4.4783  -19.1539   19.6734 C   0  0  0  0  0  0  0  0  0  0  0  0
    3.1688  -19.4283   18.9300 C   0  0  0  0  0  0  0  0  0  0  0  0
    1.1482  -18.1713   18.3078 C   0  0  1  0  0  0  0  0  0  0  0  0
    8.0920  -18.0633   21.7152 C   0  0  0  0  0  0  0  0  0  0  0  0
    6.8106  -18.4616   20.9814 C   0  0  0  0  0  0  0  0  0  0  0  0
    5.0712  -17.9022   19.5422 C   0  0  0  0  0  0  0  0  0  0  0  0
    2.4280  -17.3766   20.0147 C   0  0  0  0  0  0  0  0  0  0  0  0
    0.3567  -17.0603   18.5733 C   0  0  2  0  0  0  0  0  0  0  0  0
   -0.9502  -16.5837   17.9345 C   0  0  0  0  0  0  0  0  0  0  0  0
   -1.8893  -17.7353   17.5681 C   0  0  0  0  0  0  0  0  0  0  0  0
    6.2789  -19.7454   21.1622 N   0  0  0  0  0  0  0  0  0  0  0  0
    2.2306  -18.3064   19.0790 N   0  0  0  0  0  0  0  0  0  0  0  0
    6.1859  -17.5899   20.1766 N   0  0  0  0  0  0  0  0  0  0  0  0
    4.6142  -21.2087   20.6437 O   0  0  0  0  0  0  0  0  0  0  0  0
   -3.6705  -16.6791   14.2289 O   0  5  0  0  0  0  0  0  0  0  0  0
   -4.4250  -19.4582   14.5037 O   0  0  0  0  0  0  0  0  0  0  0  0
   -2.3522  -17.6332   16.2179 O   0  0  0  0  0  0  0  0  0  0  0  0
   -4.9374  -17.6338   16.2220 O   0  0  0  0  0  0  0  0  0  0  0  0
   -4.1780  -19.9712   17.0272 O   0  5  0  0  0  0  0  0  0  0  0  0
   -3.6450  -15.4259   16.4895 O   0  0  0  0  0  0  0  0  0  0  0  0
   -6.5037  -19.6410   15.9926 O   0  0  0  0  0  0  0  0  0  0  0  0
    1.1658  -16.1857   19.8436 S   0  0  0  0  0  0  0  0  0  0  0  0
   -3.6471  -16.7552   15.8364 P   0  0  2  0  0  0  0  0  0  0  0  0
   -4.9502  -19.2267   16.0075 P   0  0  2  0  0  0  0  0  0  0  0  0
  2 16  2  0  0  0  0
  2  3  1  0  0  0  0
  2 13  1  0  0  0  0
  3  8  2  0  0  0  0
  3  4  1  0  0  0  0
  4 14  1  0  0  0  0
  5  1  1  1  0  0  0
  5 14  1  0  0  0  0
  5 10  1  0  0  0  0
  6  7  1  0  0  0  0
  7 13  1  0  0  0  0
  7 15  2  0  0  0  0
  8 15  1  0  0  0  0
  9 14  1  0  0  0  0
  9 24  1  0  0  0  0
 10 24  1  0  0  0  0
 10 11  1  6  0  0  0
 11 12  1  0  0  0  0
 12 19  1  0  0  0  0
 17 25  1  0  0  0  0
 19 25  1  0  0  0  0
 20 26  1  0  0  0  0
 21 26  1  0  0  0  0
 22 25  2  0  0  0  0
 23 26  2  0  0  0  0
 25 20  1  1  0  0  0
 26 18  1  6  0  0  0
M  CHG  2  17  -1  21  -1
M  END
>  <CHROM.1>
133.78127406,37.32789806,-129.82010949,165.47968150,-86.09395593,74.78526508
169.89429607,-48.83252756,0.04408863,-18.15334504,18.01615996,0.04944357
0.44344070,-3.12820782

>  <Name>
ligand

>  <RI>
0

>  <Rbt.Current_Directory>
/home/itssahil/PROJECTS/Mol_Feturizer/New_Systems/rnas/3D2X

>  <Rbt.Executable>
rbdock ($Id: //depot/dev/client3/rdock/2013.1/src/exe/rbdock.cxx#4 $)

>  <Rbt.Library>
libRbt.so (2013.1, Build901 2013/11/27)

>  <Rbt.Parameter_File>
/export/apps/rDock/src/rDock_2013.1_src/data/scripts/dock_solv.prm

>  <Rbt.Receptor>
prm/blind_docking_100.prm

>  <SCORE>
-12.7478

>  <SCORE.INTER>
-17.1763

>  <SCORE.INTER.CONST>
1

>  <SCORE.INTER.POLAR>
0

>  <SCORE.INTER.ROT>
8

>  <SCORE.INTER.SOLV>
13.7666

>  <SCORE.INTER.VDW>
-24.9731

>  <SCORE.INTER.norm>
-0.660628

>  <SCORE.INTRA>
4.42856

>  <SCORE.INTRA.DIHEDRAL>
6.14664

>  <SCORE.INTRA.DIHEDRAL.0>
7.88077

>  <SCORE.INTRA.POLAR>
0

>  <SCORE.INTRA.POLAR.0>
0

>  <SCORE.INTRA.REPUL>
0

>  <SCORE.INTRA.REPUL.0>
0

>  <SCORE.INTRA.SOLV>
-1.19656

>  <SCORE.INTRA.SOLV.lig_0>
-63.2542

>  <SCORE.INTRA.VDW>
1.95352

>  <SCORE.INTRA.VDW.0>
-3.15072

>  <SCORE.INTRA.norm>
0.170329

>  <SCORE.RESTR>
0

>  <SCORE.RESTR.CAVITY>
0

>  <SCORE.RESTR.norm>
0

>  <SCORE.SYSTEM>
0

>  <SCORE.SYSTEM.CONST>
0

>  <SCORE.SYSTEM.DIHEDRAL>
0

>  <SCORE.SYSTEM.SOLV>
0

>  <SCORE.SYSTEM.norm>
0

>  <SCORE.heavy>
26

>  <SCORE.norm>
-0.490299

>  <RMSD>
12.029

$$$$
ligand
 OpenBabel11021811473D
libRbt.so/2013.1/901 2013/11/27
 26 27  0  0  0  0  0  0  0  0999 V2000
    0.6757  -19.1192   16.9223 C   0  0  0  0  0  0  0  0  0  0  0  0
    4.8349  -20.1088   20.3794 C   0  0  0  0  0  0  0  0  0  0  0  0
    4.2628  -19.1851   19.5109 C   0  0  0  0  0  0  0  0  0  0  0  0
    2.9689  -19.4478   18.7367 C   0  0  0  0  0  0  0  0  0  0  0  0
    0.9787  -18.1611   18.0781 C   0  0  1  0  0  0  0  0  0  0  0  0
    7.8429  -18.1275   21.6278 C   0  0  0  0  0  0  0  0  0  0  0  0
    6.5734  -18.5144   20.8677 C   0  0  0  0  0  0  0  0  0  0  0  0
    4.8926  -17.9536   19.3611 C   0  0  0  0  0  0  0  0  0  0  0  0
    2.1742  -17.4487   19.8799 C   0  0  0  0  0  0  0  0  0  0  0  0
    0.1740  -17.0630   18.3574 C   0  0  2  0  0  0  0  0  0  0  0  0
   -1.1015  -16.5557   17.6797 C   0  0  0  0  0  0  0  0  0  0  0  0
   -2.1680  -17.6427   17.5268 C   0  0  0  0  0  0  0  0  0  0  0  0
    6.0026  -19.7780   21.0698 N   0  0  0  0  0  0  0  0  0  0  0  0
    2.0231  -18.3333   18.8932 N   0  0  0  0  0  0  0  0  0  0  0  0
    5.9961  -17.6513   20.0193 N   0  0  0  0  0  0  0  0  0  0  0  0
    4.3153  -21.2127   20.5444 O   0  0  0  0  0  0  0  0  0  0  0  0
   -5.8021  -17.1039   16.3117 O   0  5  0  0  0  0  0  0  0  0  0  0
   -1.8733  -19.1786   14.8332 O   0  0  0  0  0  0  0  0  0  0  0  0
   -3.2676  -17.1980   16.7263 O   0  0  0  0  0  0  0  0  0  0  0  0
   -4.3959  -18.8176   15.0568 O   0  0  0  0  0  0  0  0  0  0  0  0
   -3.3591  -21.0757   15.7742 O   0  5  0  0  0  0  0  0  0  0  0  0
   -4.7691  -19.1016   17.5860 O   0  0  0  0  0  0  0  0  0  0  0  0
   -3.4935  -20.4329   13.2929 O   0  0  0  0  0  0  0  0  0  0  0  0
    0.9201  -16.2498   19.7047 S   0  0  0  0  0  0  0  0  0  0  0  0
   -4.5675  -18.1200   16.4955 P   0  0  2  0  0  0  0  0  0  0  0  0
   -3.2843  -19.9528   14.8131 P   0  0  2  0  0  0  0  0  0  0  0  0
  2 16  2  0  0  0  0
  2  3  1  0  0  0  0
  2 13  1  0  0  0  0
  3  8  2  0  0  0  0
  3  4  1  0  0  0  0
  4 14  1  0  0  0  0
  5  1  1  1  0  0  0
  5 14  1  0  0  0  0
  5 10  1  0  0  0  0
  6  7  1  0  0  0  0
  7 13  1  0  0  0  0
  7 15  2  0  0  0  0
  8 15  1  0  0  0  0
  9 14  1  0  0  0  0
  9 24  1  0  0  0  0
 10 24  1  0  0  0  0
 10 11  1  6  0  0  0
 11 12  1  0  0  0  0
 12 19  1  0  0  0  0
 17 25  1  0  0  0  0
 19 25  1  0  0  0  0
 20 26  1  0  0  0  0
 21 26  1  0  0  0  0
 22 25  2  0  0  0  0
 23 26  2  0  0  0  0
 25 20  1  6  0  0  0
 26 18  1  1  0  0  0
M  CHG  2  17  -1  21  -1
M  END
>  <CHROM.1>
130.26511267,51.50383593,-171.72198256,163.29430503,-175.85326969,-178.04984251
149.46998287,-71.45095748,0.07420478,-18.56570183,17.84299148,-0.26141016
0.39891212,-2.57018815

>  <Name>
ligand

>  <RI>
0

>  <Rbt.Current_Directory>
/home/itssahil/PROJECTS/Mol_Feturizer/New_Systems/rnas/3D2X

>  <Rbt.Executable>
rbdock ($Id: //depot/dev/client3/rdock/2013.1/src/exe/rbdock.cxx#4 $)

>  <Rbt.Library>
libRbt.so (2013.1, Build901 2013/11/27)

>  <Rbt.Parameter_File>
/export/apps/rDock/src/rDock_2013.1_src/data/scripts/dock_solv.prm

>  <Rbt.Receptor>
prm/blind_docking_100.prm

>  <SCORE>
-18.0302

>  <SCORE.INTER>
-17.1315

>  <SCORE.INTER.CONST>
1

>  <SCORE.INTER.POLAR>
0

>  <SCORE.INTER.ROT>
8

>  <SCORE.INTER.SOLV>
17.5901

>  <SCORE.INTER.VDW>
-26.2177

>  <SCORE.INTER.norm>
-0.658904

>  <SCORE.INTRA>
-0.898718

>  <SCORE.INTRA.DIHEDRAL>
-1.29686

>  <SCORE.INTRA.DIHEDRAL.0>
7.88077

>  <SCORE.INTRA.POLAR>
0

>  <SCORE.INTRA.POLAR.0>
0

>  <SCORE.INTRA.REPUL>
0

>  <SCORE.INTRA.REPUL.0>
0

>  <SCORE.INTRA.SOLV>
-1.97613

>  <SCORE.INTRA.SOLV.lig_0>
-63.2542

>  <SCORE.INTRA.VDW>
0.737776

>  <SCORE.INTRA.VDW.0>
-3.15072

>  <SCORE.INTRA.norm>
-0.0345661

>  <SCORE.RESTR>
0

>  <SCORE.RESTR.CAVITY>
0

>  <SCORE.RESTR.norm>
0

>  <SCORE.SYSTEM>
0

>  <SCORE.SYSTEM.CONST>
0

>  <SCORE.SYSTEM.DIHEDRAL>
0

>  <SCORE.SYSTEM.SOLV>
0

>  <SCORE.SYSTEM.norm>
0

>  <SCORE.heavy>
26

>  <SCORE.norm>
-0.69347

>  <RMSD>
12.049

$$$$
ligand
 OpenBabel11021811473D
libRbt.so/2013.1/901 2013/11/27
 26 27  0  0  0  0  0  0  0  0999 V2000
    1.1901  -15.1557   20.0793 C   0  0  0  0  0  0  0  0  0  0  0  0
    5.0620  -17.7443   19.6275 C   0  0  0  0  0  0  0  0  0  0  0  0
    4.5379  -17.5821   20.9057 C   0  0  0  0  0  0  0  0  0  0  0  0
    3.1114  -17.0968   21.1745 C   0  0  0  0  0  0  0  0  0  0  0  0
    1.3304  -16.5882   19.5560 C   0  0  1  0  0  0  0  0  0  0  0  0
    8.5413  -19.0621   20.4585 C   0  0  0  0  0  0  0  0  0  0  0  0
    7.1180  -18.5236   20.6117 C   0  0  0  0  0  0  0  0  0  0  0  0
    5.3503  -17.9009   21.9891 C   0  0  0  0  0  0  0  0  0  0  0  0
    2.2633  -18.6645   19.5138 C   0  0  0  0  0  0  0  0  0  0  0  0
    0.5560  -17.0706   18.5077 C   0  0  2  0  0  0  0  0  0  0  0  0
   -0.5264  -16.3914   17.6648 C   0  0  0  0  0  0  0  0  0  0  0  0
   -1.8651  -17.1321   17.7045 C   0  0  0  0  0  0  0  0  0  0  0  0
    6.3652  -18.2202   19.4695 N   0  0  0  0  0  0  0  0  0  0  0  0
    2.2142  -17.4510   20.0652 N   0  0  0  0  0  0  0  0  0  0  0  0
    6.5810  -18.3506   21.8280 N   0  0  0  0  0  0  0  0  0  0  0  0
    4.3822  -17.4742   18.6372 O   0  0  0  0  0  0  0  0  0  0  0  0
   -2.7487  -20.6567   16.2764 O   0  5  0  0  0  0  0  0  0  0  0  0
   -5.7606  -20.8690   16.5822 O   0  0  0  0  0  0  0  0  0  0  0  0
   -1.7899  -18.3994   17.0443 O   0  0  0  0  0  0  0  0  0  0  0  0
   -4.2606  -19.0102   17.4980 O   0  0  0  0  0  0  0  0  0  0  0  0
   -6.7397  -19.1274   18.2254 O   0  5  0  0  0  0  0  0  0  0  0  0
   -3.4807  -18.4708   15.1069 O   0  0  0  0  0  0  0  0  0  0  0  0
   -6.1145  -18.4436   15.8317 O   0  0  0  0  0  0  0  0  0  0  0  0
    1.0207  -18.7352   18.2924 S   0  0  0  0  0  0  0  0  0  0  0  0
   -3.0926  -19.0889   16.3956 P   0  0  2  0  0  0  0  0  0  0  0  0
   -5.7845  -19.3511   17.1173 P   0  0  2  0  0  0  0  0  0  0  0  0
  2 16  2  0  0  0  0
  2  3  1  0  0  0  0
  2 13  1  0  0  0  0
  3  8  2  0  0  0  0
  3  4  1  0  0  0  0
  4 14  1  0  0  0  0
  5  1  1  6  0  0  0
  5 14  1  0  0  0  0
  5 10  1  0  0  0  0
  6  7  1  0  0  0  0
  7 13  1  0  0  0  0
  7 15  2  0  0  0  0
  8 15  1  0  0  0  0
  9 14  1  0  0  0  0
  9 24  1  0  0  0  0
 10 24  1  0  0  0  0
 10 11  1  1  0  0  0
 11 12  1  0  0  0  0
 12 19  1  0  0  0  0
 17 25  1  0  0  0  0
 19 25  1  0  0  0  0
 20 26  1  0  0  0  0
 21 26  1  0  0  0  0
 22 25  2  0  0  0  0
 23 26  2  0  0  0  0
 25 20  1  1  0  0  0
 26 18  1  6  0  0  0
M  CHG  2  17  -1  21  -1
M  END
>  <CHROM.1>
27.82779979,-123.16608117,-68.00234504,-135.46260706,-153.82487729,-79.39964352
-158.87974677,59.32853745,0.04099008,-18.32680248,18.41714581,0.27946157
-0.23262433,0.56929723

>  <Name>
ligand

>  <RI>
0

>  <Rbt.Current_Directory>
/home/itssahil/PROJECTS/Mol_Feturizer/New_Systems/rnas/3D2X

>  <Rbt.Executable>
rbdock ($Id: //depot/dev/client3/rdock/2013.1/src/exe/rbdock.cxx#4 $)

>  <Rbt.Library>
libRbt.so (2013.1, Build901 2013/11/27)

>  <Rbt.Parameter_File>
/export/apps/rDock/src/rDock_2013.1_src/data/scripts/dock_solv.prm

>  <Rbt.Receptor>
prm/blind_docking_100.prm

>  <SCORE>
-19.22

>  <SCORE.INTER>
-20.2098

>  <SCORE.INTER.CONST>
1

>  <SCORE.INTER.POLAR>
0

>  <SCORE.INTER.ROT>
8

>  <SCORE.INTER.SOLV>
22.2701

>  <SCORE.INTER.VDW>
-29.8299

>  <SCORE.INTER.norm>
-0.777301

>  <SCORE.INTRA>
0.989828

>  <SCORE.INTRA.DIHEDRAL>
1.34781

>  <SCORE.INTRA.DIHEDRAL.0>
7.88077

>  <SCORE.INTRA.POLAR>
0

>  <SCORE.INTRA.POLAR.0>
0

>  <SCORE.INTRA.REPUL>
0

>  <SCORE.INTRA.REPUL.0>
0

>  <SCORE.INTRA.SOLV>
-0.586431

>  <SCORE.INTRA.SOLV.lig_0>
-63.2542

>  <SCORE.INTRA.VDW>
0.609137

>  <SCORE.INTRA.VDW.0>
-3.15072

>  <SCORE.INTRA.norm>
0.0380703

>  <SCORE.RESTR>
0

>  <SCORE.RESTR.CAVITY>
0

>  <SCORE.RESTR.norm>
0

>  <SCORE.SYSTEM>
0

>  <SCORE.SYSTEM.CONST>
0

>  <SCORE.SYSTEM.DIHEDRAL>
0

>  <SCORE.SYSTEM.SOLV>
0

>  <SCORE.SYSTEM.norm>
0

>  <SCORE.heavy>
26

>  <SCORE.norm>
-0.739231

>  <RMSD>
12.081

$$$$
ligand
 OpenBabel11021811473D
libRbt.so/2013.1/901 2013/11/27
 26 27  0  0  0  0  0  0  0  0999 V2000
   -0.4532  -16.3587   18.1716 C   0  0  0  0  0  0  0  0  0  0  0  0
    3.9741  -17.5026   21.2340 C   0  0  0  0  0  0  0  0  0  0  0  0
    3.4070  -17.4994   19.9639 C   0  0  0  0  0  0  0  0  0  0  0  0
    1.9552  -17.0980   19.6921 C   0  0  0  0  0  0  0  0  0  0  0  0
    0.2086  -17.7370   18.0824 C   0  0  1  0  0  0  0  0  0  0  0  0
    7.5385  -18.5721   20.4073 C   0  0  0  0  0  0  0  0  0  0  0  0
    6.0627  -18.1999   20.2570 C   0  0  0  0  0  0  0  0  0  0  0  0
    4.2132  -17.8588   18.8886 C   0  0  0  0  0  0  0  0  0  0  0  0
    1.8074  -19.2720   18.6028 C   0  0  0  0  0  0  0  0  0  0  0  0
   -0.2851  -18.7413   17.2583 C   0  0  2  0  0  0  0  0  0  0  0  0
   -1.4841  -18.7593   16.3067 C   0  0  0  0  0  0  0  0  0  0  0  0
   -1.4773  -19.9634   15.3620 C   0  0  0  0  0  0  0  0  0  0  0  0
    5.3161  -17.8549   21.3914 N   0  0  0  0  0  0  0  0  0  0  0  0
    1.3056  -18.0487   18.7782 N   0  0  0  0  0  0  0  0  0  0  0  0
    5.4811  -18.1896   19.0490 N   0  0  0  0  0  0  0  0  0  0  0  0
    3.3007  -17.1934   22.2172 O   0  0  0  0  0  0  0  0  0  0  0  0
   -4.2591  -19.5810   16.8510 O   0  5  0  0  0  0  0  0  0  0  0  0
   -6.8753  -21.4747   16.8300 O   0  0  0  0  0  0  0  0  0  0  0  0
   -2.7848  -20.2465   14.8540 O   0  0  0  0  0  0  0  0  0  0  0  0
   -5.2926  -20.8715   14.9131 O   0  0  0  0  0  0  0  0  0  0  0  0
   -6.9471  -19.0980   15.8109 O   0  5  0  0  0  0  0  0  0  0  0  0
   -3.6275  -22.0589   16.4733 O   0  0  0  0  0  0  0  0  0  0  0  0
   -7.7980  -21.1119   14.4661 O   0  0  0  0  0  0  0  0  0  0  0  0
    0.7426  -20.1236   17.5156 S   0  0  0  0  0  0  0  0  0  0  0  0
   -3.9641  -20.7761   15.8141 P   0  0  2  0  0  0  0  0  0  0  0  0
   -6.7385  -20.5360   15.5296 P   0  0  2  0  0  0  0  0  0  0  0  0
  2 16  2  0  0  0  0
  2  3  1  0  0  0  0
  2 13  1  0  0  0  0
  3  8  2  0  0  0  0
  3  4  1  0  0  0  0
  4 14  1  0  0  0  0
  5  1  1  6  0  0  0
  5 14  1  0  0  0  0
  5 10  1  0  0  0  0
  6  7  1  0  0  0  0
  7 13  1  0  0  0  0
  7 15  2  0  0  0  0
  8 15  1  0  0  0  0
  9 14  1  0  0  0  0
  9 24  1  0  0  0  0
 10 24  1  0  0  0  0
 10 11  1  1  0  0  0
 11 12  1  0  0  0  0
 12 19  1  0  0  0  0
 17 25  1  0  0  0  0
 19 25  1  0  0  0  0
 20 26  1  0  0  0  0
 21 26  1  0  0  0  0
 22 25  2  0  0  0  0
 23 26  2  0  0  0  0
 25 20  1  6  0  0  0
 26 18  1  1  0  0  0
M  CHG  2  17  -1  21  -1
M  END
>  <CHROM.1>
-134.72482435,166.94877283,158.20186651,-159.88391218,-67.25217980,-32.63611778
64.62528767,-54.09857237,-0.86001324,-19.27376377,17.59378273,0.46004474
-0.13803767,0.76611762

>  <Name>
ligand

>  <RI>
0

>  <Rbt.Current_Directory>
/home/itssahil/PROJECTS/Mol_Feturizer/New_Systems/rnas/3D2X

>  <Rbt.Executable>
rbdock ($Id: //depot/dev/client3/rdock/2013.1/src/exe/rbdock.cxx#4 $)

>  <Rbt.Library>
libRbt.so (2013.1, Build901 2013/11/27)

>  <Rbt.Parameter_File>
/export/apps/rDock/src/rDock_2013.1_src/data/scripts/dock_solv.prm

>  <Rbt.Receptor>
prm/blind_docking_100.prm

>  <SCORE>
-19.2036

>  <SCORE.INTER>
-21.0128

>  <SCORE.INTER.CONST>
1

>  <SCORE.INTER.POLAR>
0

>  <SCORE.INTER.ROT>
8

>  <SCORE.INTER.SOLV>
20.2457

>  <SCORE.INTER.VDW>
-29.6904

>  <SCORE.INTER.norm>
-0.808185

>  <SCORE.INTRA>
1.80917

>  <SCORE.INTRA.DIHEDRAL>
0.048529

>  <SCORE.INTRA.DIHEDRAL.0>
7.88077

>  <SCORE.INTRA.POLAR>
0

>  <SCORE.INTRA.POLAR.0>
0

>  <SCORE.INTRA.REPUL>
0

>  <SCORE.INTRA.REPUL.0>
0

>  <SCORE.INTRA.SOLV>
-0.18994

>  <SCORE.INTRA.SOLV.lig_0>
-63.2542

>  <SCORE.INTRA.VDW>
1.87987

>  <SCORE.INTRA.VDW.0>
-3.15072

>  <SCORE.INTRA.norm>
0.0695834

>  <SCORE.RESTR>
0

>  <SCORE.RESTR.CAVITY>
0

>  <SCORE.RESTR.norm>
0

>  <SCORE.SYSTEM>
0

>  <SCORE.SYSTEM.CONST>
0

>  <SCORE.SYSTEM.DIHEDRAL>
0

>  <SCORE.SYSTEM.SOLV>
0

>  <SCORE.SYSTEM.norm>
0

>  <SCORE.heavy>
26

>  <SCORE.norm>
-0.738602

>  <RMSD>
12.106

$$$$
ligand
 OpenBabel11021811473D
libRbt.so/2013.1/901 2013/11/27
 26 27  0  0  0  0  0  0  0  0999 V2000
   -1.6420  -18.9257   15.7823 C   0  0  0  0  0  0  0  0  0  0  0  0
    1.7838  -17.2678   19.7358 C   0  0  0  0  0  0  0  0  0  0  0  0
    1.6216  -18.1691   18.6889 C   0  0  0  0  0  0  0  0  0  0  0  0
    0.3504  -18.2527   17.8405 C   0  0  0  0  0  0  0  0  0  0  0  0
   -0.8942  -19.9782   16.6061 C   0  0  1  0  0  0  0  0  0  0  0  0
    5.3424  -18.0931   20.8259 C   0  0  0  0  0  0  0  0  0  0  0  0
    4.0101  -18.1232   20.0755 C   0  0  0  0  0  0  0  0  0  0  0  0
    2.6816  -19.0190   18.3896 C   0  0  0  0  0  0  0  0  0  0  0  0
    0.6162  -20.6516   18.1708 C   0  0  0  0  0  0  0  0  0  0  0  0
   -1.1021  -21.3406   16.4271 C   0  0  2  0  0  0  0  0  0  0  0  0
   -2.0211  -22.0973   15.4646 C   0  0  0  0  0  0  0  0  0  0  0  0
   -3.4306  -22.3033   16.0243 C   0  0  0  0  0  0  0  0  0  0  0  0
    2.9882  -17.2373   20.4419 N   0  0  0  0  0  0  0  0  0  0  0  0
    0.0110  -19.6493   17.5320 N   0  0  0  0  0  0  0  0  0  0  0  0
    3.8160  -18.9811   19.0635 N   0  0  0  0  0  0  0  0  0  0  0  0
    0.8739  -16.4962   20.0396 O   0  0  0  0  0  0  0  0  0  0  0  0
   -5.8748  -23.1035   13.0513 O   0  5  0  0  0  0  0  0  0  0  0  0
   -7.4143  -19.4281   15.1479 O   0  0  0  0  0  0  0  0  0  0  0  0
   -4.2940  -22.9290   15.0701 O   0  0  0  0  0  0  0  0  0  0  0  0
   -5.5209  -20.8406   14.1664 O   0  0  0  0  0  0  0  0  0  0  0  0
   -7.7602  -21.9682   14.8011 O   0  5  0  0  0  0  0  0  0  0  0  0
   -3.6011  -21.8960   12.8184 O   0  0  0  0  0  0  0  0  0  0  0  0
   -6.1685  -21.1132   16.6242 O   0  0  0  0  0  0  0  0  0  0  0  0
   -0.0871  -22.1398   17.5951 S   0  0  0  0  0  0  0  0  0  0  0  0
   -4.7427  -22.1750   13.7197 P   0  0  2  0  0  0  0  0  0  0  0  0
   -6.7871  -20.9104   15.1540 P   0  0  2  0  0  0  0  0  0  0  0  0
  2 16  2  0  0  0  0
  2  3  1  0  0  0  0
  2 13  1  0  0  0  0
  3  8  2  0  0  0  0
  3  4  1  0  0  0  0
  4 14  1  0  0  0  0
  5  1  1  6  0  0  0
  5 14  1  0  0  0  0
  5 10  1  0  0  0  0
  6  7  1  0  0  0  0
  7 13  1  0  0  0  0
  7 15  2  0  0  0  0
  8 15  1  0  0  0  0
  9 14  1  0  0  0  0
  9 24  1  0  0  0  0
 10 24  1  0  0  0  0
 10 11  1  1  0  0  0
 11 12  1  0  0  0  0
 12 19  1  0  0  0  0
 17 25  1  0  0  0  0
 19 25  1  0  0  0  0
 20 26  1  0  0  0  0
 21 26  1  0  0  0  0
 22 25  2  0  0  0  0
 23 26  2  0  0  0  0
 25 20  1  1  0  0  0
 26 18  1  6  0  0  0
M  CHG  2  17  -1  21  -1
M  END
>  <CHROM.1>
-140.64660466,-87.31298133,175.93482756,-166.96855891,-67.20298699,56.71062900
-171.23901710,-170.69440706,-1.93176041,-20.37503978,16.62255114,0.55296722
-0.27416471,0.56492678

>  <Name>
ligand

>  <RI>
0

>  <Rbt.Current_Directory>
/home/itssahil/PROJECTS/Mol_Feturizer/New_Systems/rnas/3D2X

>  <Rbt.Executable>
rbdock ($Id: //depot/dev/client3/rdock/2013.1/src/exe/rbdock.cxx#4 $)

>  <Rbt.Library>
libRbt.so (2013.1, Build901 2013/11/27)

>  <Rbt.Parameter_File>
/export/apps/rDock/src/rDock_2013.1_src/data/scripts/dock_solv.prm

>  <Rbt.Receptor>
prm/blind_docking_60.prm

>  <SCORE>
-18.7103

>  <SCORE.INTER>
-19.759

>  <SCORE.INTER.CONST>
1

>  <SCORE.INTER.POLAR>
0

>  <SCORE.INTER.ROT>
8

>  <SCORE.INTER.SOLV>
14.6743

>  <SCORE.INTER.VDW>
-26.9975

>  <SCORE.INTER.norm>
-0.759963

>  <SCORE.INTRA>
1.04876

>  <SCORE.INTRA.DIHEDRAL>
-2.45269

>  <SCORE.INTRA.DIHEDRAL.0>
7.88077

>  <SCORE.INTRA.POLAR>
0

>  <SCORE.INTRA.POLAR.0>
0

>  <SCORE.INTRA.REPUL>
0

>  <SCORE.INTRA.REPUL.0>
0

>  <SCORE.INTRA.SOLV>
1.54572

>  <SCORE.INTRA.SOLV.lig_0>
-63.2542

>  <SCORE.INTRA.VDW>
1.50225

>  <SCORE.INTRA.VDW.0>
-3.15072

>  <SCORE.INTRA.norm>
0.0403371

>  <SCORE.RESTR>
0

>  <SCORE.RESTR.CAVITY>
0

>  <SCORE.RESTR.norm>
0

>  <SCORE.SYSTEM>
0

>  <SCORE.SYSTEM.CONST>
0

>  <SCORE.SYSTEM.DIHEDRAL>
0

>  <SCORE.SYSTEM.SOLV>
0

>  <SCORE.SYSTEM.norm>
0

>  <SCORE.heavy>
26

>  <SCORE.norm>
-0.719626

>  <RMSD>
12.122

$$$$
ligand
 OpenBabel11021811473D
libRbt.so/2013.1/901 2013/11/27
 26 27  0  0  0  0  0  0  0  0999 V2000
    0.7976  -16.2345   19.7264 C   0  0  0  0  0  0  0  0  0  0  0  0
    5.7478  -18.1487   20.0908 C   0  0  0  0  0  0  0  0  0  0  0  0
    4.4707  -18.6996   20.1028 C   0  0  0  0  0  0  0  0  0  0  0  0
    3.1953  -17.8636   20.2328 C   0  0  0  0  0  0  0  0  0  0  0  0
    1.0978  -17.5427   18.9887 C   0  0  1  0  0  0  0  0  0  0  0  0
    7.8605  -21.2865   19.6180 C   0  0  0  0  0  0  0  0  0  0  0  0
    6.6571  -20.3608   19.8024 C   0  0  0  0  0  0  0  0  0  0  0  0
    4.3542  -20.0792   19.9664 C   0  0  0  0  0  0  0  0  0  0  0  0
    2.3641  -19.3734   18.5110 C   0  0  0  0  0  0  0  0  0  0  0  0
    0.2511  -18.0496   18.0101 C   0  0  2  0  0  0  0  0  0  0  0  0
   -1.0651  -17.5101   17.4446 C   0  0  0  0  0  0  0  0  0  0  0  0
   -1.8085  -18.5343   16.5840 C   0  0  0  0  0  0  0  0  0  0  0  0
    6.8588  -18.9809   19.9389 N   0  0  0  0  0  0  0  0  0  0  0  0
    2.1962  -18.2634   19.2312 N   0  0  0  0  0  0  0  0  0  0  0  0
    5.4115  -20.8565   19.8229 N   0  0  0  0  0  0  0  0  0  0  0  0
    5.9024  -16.9330   20.2095 O   0  0  0  0  0  0  0  0  0  0  0  0
   -3.6512  -17.2451   14.4874 O   0  5  0  0  0  0  0  0  0  0  0  0
   -4.9894  -19.9898   15.2556 O   0  0  0  0  0  0  0  0  0  0  0  0
   -3.2273  -18.4218   16.7324 O   0  0  0  0  0  0  0  0  0  0  0  0
   -5.6037  -17.6453   16.0738 O   0  0  0  0  0  0  0  0  0  0  0  0
   -6.1194  -19.6952   17.5640 O   0  5  0  0  0  0  0  0  0  0  0  0
   -3.8054  -15.9154   16.6986 O   0  0  0  0  0  0  0  0  0  0  0  0
   -7.4490  -19.2839   15.4073 O   0  0  0  0  0  0  0  0  0  0  0  0
    0.9605  -19.5535   17.4920 S   0  0  0  0  0  0  0  0  0  0  0  0
   -4.0527  -17.2215   16.0458 P   0  0  2  0  0  0  0  0  0  0  0  0
   -6.0397  -19.1890   16.1755 P   0  0  2  0  0  0  0  0  0  0  0  0
  2 16  2  0  0  0  0
  2  3  1  0  0  0  0
  2 13  1  0  0  0  0
  3  8  2  0  0  0  0
  3  4  1  0  0  0  0
  4 14  1  0  0  0  0
  5  1  1  6  0  0  0
  5 14  1  0  0  0  0
  5 10  1  0  0  0  0
  6  7  1  0  0  0  0
  7 13  1  0  0  0  0
  7 15  2  0  0  0  0
  8 15  1  0  0  0  0
  9 14  1  0  0  0  0
  9 24  1  0  0  0  0
 10 24  1  0  0  0  0
 10 11  1  1  0  0  0
 11 12  1  0  0  0  0
 12 19  1  0  0  0  0
 17 25  1  0  0  0  0
 19 25  1  0  0  0  0
 20 26  1  0  0  0  0
 21 26  1  0  0  0  0
 22 25  2  0  0  0  0
 23 26  2  0  0  0  0
 25 20  1  1  0  0  0
 26 18  1  6  0  0  0
M  CHG  2  17  -1  21  -1
M  END
>  <CHROM.1>
132.64301138,-168.09355378,144.63256367,-168.35824167,75.08597773,88.89517319
53.11553944,-38.69657039,-0.25696068,-18.55852624,17.80769953,-0.01374541
-0.34794551,0.16448736

>  <Name>
ligand

>  <RI>
0

>  <Rbt.Current_Directory>
/home/itssahil/PROJECTS/Mol_Feturizer/New_Systems/rnas/3D2X

>  <Rbt.Executable>
rbdock ($Id: //depot/dev/client3/rdock/2013.1/src/exe/rbdock.cxx#4 $)

>  <Rbt.Library>
libRbt.so (2013.1, Build901 2013/11/27)

>  <Rbt.Parameter_File>
/export/apps/rDock/src/rDock_2013.1_src/data/scripts/dock_solv.prm

>  <Rbt.Receptor>
prm/blind_docking_100.prm

>  <SCORE>
-12.1336

>  <SCORE.INTER>
-16.6066

>  <SCORE.INTER.CONST>
1

>  <SCORE.INTER.POLAR>
0

>  <SCORE.INTER.ROT>
8

>  <SCORE.INTER.SOLV>
18.0023

>  <SCORE.INTER.VDW>
-26.0051

>  <SCORE.INTER.norm>
-0.638714

>  <SCORE.INTRA>
4.44426

>  <SCORE.INTRA.DIHEDRAL>
3.94458

>  <SCORE.INTRA.DIHEDRAL.0>
7.88077

>  <SCORE.INTRA.POLAR>
0

>  <SCORE.INTRA.POLAR.0>
0

>  <SCORE.INTRA.REPUL>
0

>  <SCORE.INTRA.REPUL.0>
0

>  <SCORE.INTRA.SOLV>
-1.75788

>  <SCORE.INTRA.SOLV.lig_0>
-63.2542

>  <SCORE.INTRA.VDW>
3.35091

>  <SCORE.INTRA.VDW.0>
-3.15072

>  <SCORE.INTRA.norm>
0.170933

>  <SCORE.RESTR>
0.0286765

>  <SCORE.RESTR.CAVITY>
0.0286765

>  <SCORE.RESTR.norm>
0.00110294

>  <SCORE.SYSTEM>
0

>  <SCORE.SYSTEM.CONST>
0

>  <SCORE.SYSTEM.DIHEDRAL>
0

>  <SCORE.SYSTEM.SOLV>
0

>  <SCORE.SYSTEM.norm>
0

>  <SCORE.heavy>
26

>  <SCORE.norm>
-0.466678

>  <RMSD>
12.139

$$$$
ligand
 OpenBabel11021811473D
libRbt.so/2013.1/901 2013/11/27
 26 27  0  0  0  0  0  0  0  0999 V2000
   -0.6990  -17.4031   17.2495 C   0  0  0  0  0  0  0  0  0  0  0  0
    3.6104  -17.6233   20.4973 C   0  0  0  0  0  0  0  0  0  0  0  0
    2.9357  -18.1546   19.4031 C   0  0  0  0  0  0  0  0  0  0  0  0
    1.4270  -18.0067   19.1924 C   0  0  0  0  0  0  0  0  0  0  0  0
   -0.0500  -18.7837   17.3855 C   0  0  1  0  0  0  0  0  0  0  0  0
    7.1913  -18.6383   19.6732 C   0  0  0  0  0  0  0  0  0  0  0  0
    5.6733  -18.4725   19.5882 C   0  0  0  0  0  0  0  0  0  0  0  0
    3.6807  -18.8340   18.4444 C   0  0  0  0  0  0  0  0  0  0  0  0
    1.4251  -20.2671   18.2837 C   0  0  0  0  0  0  0  0  0  0  0  0
   -0.4199  -19.8559   16.5823 C   0  0  2  0  0  0  0  0  0  0  0  0
   -1.4525  -19.9569   15.4567 C   0  0  0  0  0  0  0  0  0  0  0  0
   -2.2274  -21.2765   15.4753 C   0  0  0  0  0  0  0  0  0  0  0  0
    4.9943  -17.7788   20.5988 N   0  0  0  0  0  0  0  0  0  0  0  0
    0.9182  -19.0334   18.2715 N   0  0  0  0  0  0  0  0  0  0  0  0
    4.9889  -18.9746   18.5503 N   0  0  0  0  0  0  0  0  0  0  0  0
    2.9947  -17.0148   21.3727 O   0  0  0  0  0  0  0  0  0  0  0  0
   -4.4257  -21.0688   12.2178 O   0  5  0  0  0  0  0  0  0  0  0  0
   -4.5077  -20.3916   16.9759 O   0  0  0  0  0  0  0  0  0  0  0  0
   -2.8947  -21.5174   14.2326 O   0  0  0  0  0  0  0  0  0  0  0  0
   -5.3265  -20.7089   14.5733 O   0  0  0  0  0  0  0  0  0  0  0  0
   -5.4637  -18.3719   15.6724 O   0  5  0  0  0  0  0  0  0  0  0  0
   -3.5477  -19.0999   13.6440 O   0  0  0  0  0  0  0  0  0  0  0  0
   -7.0122  -20.2681   16.4438 O   0  0  0  0  0  0  0  0  0  0  0  0
    0.5353  -21.2102   17.1177 S   0  0  0  0  0  0  0  0  0  0  0  0
   -4.0131  -20.5057   13.6680 P   0  0  2  0  0  0  0  0  0  0  0  0
   -5.5641  -19.8311   15.8986 P   0  0  2  0  0  0  0  0  0  0  0  0
  2 16  2  0  0  0  0
  2  3  1  0  0  0  0
  2 13  1  0  0  0  0
  3  8  2  0  0  0  0
  3  4  1  0  0  0  0
  4 14  1  0  0  0  0
  5  1  1  6  0  0  0
  5 14  1  0  0  0  0
  5 10  1  0  0  0  0
  6  7  1  0  0  0  0
  7 13  1  0  0  0  0
  7 15  2  0  0  0  0
  8 15  1  0  0  0  0
  9 14  1  0  0  0  0
  9 24  1  0  0  0  0
 10 24  1  0  0  0  0
 10 11  1  1  0  0  0
 11 12  1  0  0  0  0
 12 19  1  0  0  0  0
 17 25  1  0  0  0  0
 19 25  1  0  0  0  0
 20 26  1  0  0  0  0
 21 26  1  0  0  0  0
 22 25  2  0  0  0  0
 23 26  2  0  0  0  0
 25 20  1  1  0  0  0
 26 18  1  1  0  0  0
M  CHG  2  17  -1  21  -1
M  END
>  <CHROM.1>
-159.40227313,-140.61431663,-163.41830585,-143.21397650,-60.65569585,-157.44967690
175.76925444,-72.25580301,-0.81203310,-19.52149797,16.87747226,0.51174110
-0.12559611,0.97765714

>  <Name>
ligand

>  <RI>
0

>  <Rbt.Current_Directory>
/home/itssahil/PROJECTS/Mol_Feturizer/New_Systems/rnas/3D2X

>  <Rbt.Executable>
rbdock ($Id: //depot/dev/client3/rdock/2013.1/src/exe/rbdock.cxx#4 $)

>  <Rbt.Library>
libRbt.so (2013.1, Build901 2013/11/27)

>  <Rbt.Parameter_File>
/export/apps/rDock/src/rDock_2013.1_src/data/scripts/dock_solv.prm

>  <Rbt.Receptor>
prm/blind_docking_80.prm

>  <SCORE>
-19.3081

>  <SCORE.INTER>
-20.6043

>  <SCORE.INTER.CONST>
1

>  <SCORE.INTER.POLAR>
0

>  <SCORE.INTER.ROT>
8

>  <SCORE.INTER.SOLV>
18.5897

>  <SCORE.INTER.VDW>
-28.8661

>  <SCORE.INTER.norm>
-0.792475

>  <SCORE.INTRA>
1.29623

>  <SCORE.INTRA.DIHEDRAL>
-0.636563

>  <SCORE.INTRA.DIHEDRAL.0>
7.88077

>  <SCORE.INTRA.POLAR>
0

>  <SCORE.INTRA.POLAR.0>
0

>  <SCORE.INTRA.REPUL>
0

>  <SCORE.INTRA.REPUL.0>
0

>  <SCORE.INTRA.SOLV>
-0.543019

>  <SCORE.INTRA.SOLV.lig_0>
-63.2542

>  <SCORE.INTRA.VDW>
1.88602

>  <SCORE.INTRA.VDW.0>
-3.15072

>  <SCORE.INTRA.norm>
0.049855

>  <SCORE.RESTR>
0

>  <SCORE.RESTR.CAVITY>
0

>  <SCORE.RESTR.norm>
0

>  <SCORE.SYSTEM>
0

>  <SCORE.SYSTEM.CONST>
0

>  <SCORE.SYSTEM.DIHEDRAL>
0

>  <SCORE.SYSTEM.SOLV>
0

>  <SCORE.SYSTEM.norm>
0

>  <SCORE.heavy>
26

>  <SCORE.norm>
-0.74262

>  <RMSD>
12.153

$$$$
ligand
 OpenBabel11021811473D
libRbt.so/2013.1/901 2013/11/27
 26 27  0  0  0  0  0  0  0  0999 V2000
    1.4426  -15.8699   20.2538 C   0  0  0  0  0  0  0  0  0  0  0  0
    5.2644  -19.5720   20.1381 C   0  0  0  0  0  0  0  0  0  0  0  0
    4.8372  -18.2941   20.4832 C   0  0  0  0  0  0  0  0  0  0  0  0
    3.3996  -17.9711   20.8974 C   0  0  0  0  0  0  0  0  0  0  0  0
    1.5781  -17.1681   19.4526 C   0  0  1  0  0  0  0  0  0  0  0  0
    8.9593  -18.9181   19.4653 C   0  0  0  0  0  0  0  0  0  0  0  0
    7.4867  -18.6998   19.8161 C   0  0  0  0  0  0  0  0  0  0  0  0
    5.7756  -17.2671   20.4709 C   0  0  0  0  0  0  0  0  0  0  0  0
    2.5207  -19.1851   18.9769 C   0  0  0  0  0  0  0  0  0  0  0  0
    0.7816  -17.4399   18.3466 C   0  0  2  0  0  0  0  0  0  0  0  0
   -0.3241  -16.6173   17.6802 C   0  0  0  0  0  0  0  0  0  0  0  0
   -1.7123  -17.2404   17.8449 C   0  0  0  0  0  0  0  0  0  0  0  0
    6.6021  -19.7864   19.7999 N   0  0  0  0  0  0  0  0  0  0  0  0
    2.4782  -18.1063   19.7600 N   0  0  0  0  0  0  0  0  0  0  0  0
    7.0380  -17.4813   20.1500 N   0  0  0  0  0  0  0  0  0  0  0  0
    4.4709  -20.5134   20.1329 O   0  0  0  0  0  0  0  0  0  0  0  0
   -4.9489  -16.2864   15.8495 O   0  5  0  0  0  0  0  0  0  0  0  0
   -5.4709  -20.8350   16.7560 O   0  0  0  0  0  0  0  0  0  0  0  0
   -2.6928  -16.5699   17.0469 O   0  0  0  0  0  0  0  0  0  0  0  0
   -4.3735  -18.5295   16.9109 O   0  0  0  0  0  0  0  0  0  0  0  0
   -6.5646  -18.9918   18.2048 O   0  5  0  0  0  0  0  0  0  0  0  0
   -4.8649  -16.5078   18.4235 O   0  0  0  0  0  0  0  0  0  0  0  0
   -6.5768  -18.8069   15.6448 O   0  0  0  0  0  0  0  0  0  0  0  0
    1.2499  -19.0236   17.7938 S   0  0  0  0  0  0  0  0  0  0  0  0
   -4.2562  -16.9429   17.1455 P   0  0  2  0  0  0  0  0  0  0  0  0
   -5.7970  -19.2735   16.9712 P   0  0  2  0  0  0  0  0  0  0  0  0
  2 16  2  0  0  0  0
  2  3  1  0  0  0  0
  2 13  1  0  0  0  0
  3  8  2  0  0  0  0
  3  4  1  0  0  0  0
  4 14  1  0  0  0  0
  5  1  1  6  0  0  0
  5 14  1  0  0  0  0
  5 10  1  0  0  0  0
  6  7  1  0  0  0  0
  7 13  1  0  0  0  0
  7 15  2  0  0  0  0
  8 15  1  0  0  0  0
  9 14  1  0  0  0  0
  9 24  1  0  0  0  0
 10 24  1  0  0  0  0
 10 11  1  1  0  0  0
 11 12  1  0  0  0  0
 12 19  1  0  0  0  0
 17 25  1  0  0  0  0
 19 25  1  0  0  0  0
 20 26  1  0  0  0  0
 21 26  1  0  0  0  0
 22 25  2  0  0  0  0
 23 26  2  0  0  0  0
 25 20  1  6  0  0  0
 26 18  1  6  0  0  0
M  CHG  2  17  -1  21  -1
M  END
>  <CHROM.1>
-68.80620872,-111.81577550,-171.08919952,-131.88592545,-174.17964525,-69.29223723
-164.95274171,-177.44453752,-0.06457263,-18.18623682,18.39208845,-0.00485707
-0.26660625,0.11420264

>  <Name>
ligand

>  <RI>
0

>  <Rbt.Current_Directory>
/home/itssahil/PROJECTS/Mol_Feturizer/New_Systems/rnas/3D2X

>  <Rbt.Executable>
rbdock ($Id: //depot/dev/client3/rdock/2013.1/src/exe/rbdock.cxx#4 $)

>  <Rbt.Library>
libRbt.so (2013.1, Build901 2013/11/27)

>  <Rbt.Parameter_File>
/export/apps/rDock/src/rDock_2013.1_src/data/scripts/dock_solv.prm

>  <Rbt.Receptor>
prm/blind_docking_100.prm

>  <SCORE>
-19.8775

>  <SCORE.INTER>
-19.5938

>  <SCORE.INTER.CONST>
1

>  <SCORE.INTER.POLAR>
0

>  <SCORE.INTER.ROT>
8

>  <SCORE.INTER.SOLV>
20.0766

>  <SCORE.INTER.VDW>
-28.688

>  <SCORE.INTER.norm>
-0.753606

>  <SCORE.INTRA>
-0.296374

>  <SCORE.INTRA.DIHEDRAL>
-1.91399

>  <SCORE.INTRA.DIHEDRAL.0>
7.88077

>  <SCORE.INTRA.POLAR>
0

>  <SCORE.INTRA.POLAR.0>
0

>  <SCORE.INTRA.REPUL>
0

>  <SCORE.INTRA.REPUL.0>
0

>  <SCORE.INTRA.SOLV>
0.445602

>  <SCORE.INTRA.SOLV.lig_0>
-63.2542

>  <SCORE.INTRA.VDW>
0.437822

>  <SCORE.INTRA.VDW.0>
-3.15072

>  <SCORE.INTRA.norm>
-0.011399

>  <SCORE.RESTR>
0.0126296

>  <SCORE.RESTR.CAVITY>
0.0126296

>  <SCORE.RESTR.norm>
0.000485754

>  <SCORE.SYSTEM>
0

>  <SCORE.SYSTEM.CONST>
0

>  <SCORE.SYSTEM.DIHEDRAL>
0

>  <SCORE.SYSTEM.SOLV>
0

>  <SCORE.SYSTEM.norm>
0

>  <SCORE.heavy>
26

>  <SCORE.norm>
-0.764519

>  <RMSD>
12.189

$$$$
ligand
 OpenBabel11021811473D
libRbt.so/2013.1/901 2013/11/27
 26 27  0  0  0  0  0  0  0  0999 V2000
    0.5854  -19.0632   16.9995 C   0  0  0  0  0  0  0  0  0  0  0  0
    5.4283  -18.8613   18.6130 C   0  0  0  0  0  0  0  0  0  0  0  0
    4.2721  -18.9731   19.3781 C   0  0  0  0  0  0  0  0  0  0  0  0
    2.9055  -19.3317   18.7895 C   0  0  0  0  0  0  0  0  0  0  0  0
    0.9052  -18.0673   18.1182 C   0  0  1  0  0  0  0  0  0  0  0  0
    7.9866  -18.0571   21.3225 C   0  0  0  0  0  0  0  0  0  0  0  0
    6.6639  -18.3725   20.6224 C   0  0  0  0  0  0  0  0  0  0  0  0
    4.3757  -18.7694   20.7504 C   0  0  0  0  0  0  0  0  0  0  0  0
    2.1271  -17.2956   19.8773 C   0  0  0  0  0  0  0  0  0  0  0  0
    0.1044  -16.9604   18.3727 C   0  0  2  0  0  0  0  0  0  0  0  0
   -1.1813  -16.4758   17.6976 C   0  0  0  0  0  0  0  0  0  0  0  0
   -2.2256  -17.5833   17.5396 C   0  0  0  0  0  0  0  0  0  0  0  0
    6.6419  -18.5585   19.2338 N   0  0  0  0  0  0  0  0  0  0  0  0
    1.9617  -18.2125   18.9229 N   0  0  0  0  0  0  0  0  0  0  0  0
    5.5285  -18.4841   21.3269 N   0  0  0  0  0  0  0  0  0  0  0  0
    5.3872  -19.0313   17.3943 O   0  0  0  0  0  0  0  0  0  0  0  0
   -5.7913  -17.1719   16.0735 O   0  5  0  0  0  0  0  0  0  0  0  0
   -1.7283  -19.1368   14.7617 O   0  0  0  0  0  0  0  0  0  0  0  0
   -3.2920  -17.1869   16.6717 O   0  0  0  0  0  0  0  0  0  0  0  0
   -4.2643  -18.9105   15.0081 O   0  0  0  0  0  0  0  0  0  0  0  0
   -3.0637  -20.9779   15.9944 O   0  5  0  0  0  0  0  0  0  0  0  0
   -4.8137  -19.0817   17.5152 O   0  0  0  0  0  0  0  0  0  0  0  0
   -3.2915  -20.6916   13.4539 O   0  0  0  0  0  0  0  0  0  0  0  0
    0.8701  -16.1030   19.6810 S   0  0  0  0  0  0  0  0  0  0  0  0
   -4.5533  -18.1490   16.3947 P   0  0  2  0  0  0  0  0  0  0  0  0
   -3.0841  -19.9950   14.8881 P   0  0  2  0  0  0  0  0  0  0  0  0
  2 16  2  0  0  0  0
  2  3  1  0  0  0  0
  2 13  1  0  0  0  0
  3  8  2  0  0  0  0
  3  4  1  0  0  0  0
  4 14  1  0  0  0  0
  5  1  1  1  0  0  0
  5 14  1  0  0  0  0
  5 10  1  0  0  0  0
  6  7  1  0  0  0  0
  7 13  1  0  0  0  0
  7 15  2  0  0  0  0
  8 15  1  0  0  0  0
  9 14  1  0  0  0  0
  9 24  1  0  0  0  0
 10 24  1  0  0  0  0
 10 11  1  6  0  0  0
 11 12  1  0  0  0  0
 12 19  1  0  0  0  0
 17 25  1  0  0  0  0
 19 25  1  0  0  0  0
 20 26  1  0  0  0  0
 21 26  1  0  0  0  0
 22 25  2  0  0  0  0
 23 26  2  0  0  0  0
 25 20  1  6  0  0  0
 26 18  1  6  0  0  0
M  CHG  2  17  -1  21  -1
M  END
>  <CHROM.1>
-114.60835950,48.89972280,-167.98236743,155.95893886,-177.13455030,179.92512236
151.29735620,-78.13562490,0.15273712,-18.42377513,17.67338863,-0.33808916
0.26920201,-2.34336465

>  <Name>
ligand

>  <RI>
0

>  <Rbt.Current_Directory>
/home/itssahil/PROJECTS/Mol_Feturizer/New_Systems/rnas/3D2X

>  <Rbt.Executable>
rbdock ($Id: //depot/dev/client3/rdock/2013.1/src/exe/rbdock.cxx#4 $)

>  <Rbt.Library>
libRbt.so (2013.1, Build901 2013/11/27)

>  <Rbt.Parameter_File>
/export/apps/rDock/src/rDock_2013.1_src/data/scripts/dock_solv.prm

>  <Rbt.Receptor>
prm/blind_docking_100.prm

>  <SCORE>
-20.7586

>  <SCORE.INTER>
-20

>  <SCORE.INTER.CONST>
1

>  <SCORE.INTER.POLAR>
0

>  <SCORE.INTER.ROT>
8

>  <SCORE.INTER.SOLV>
18.5171

>  <SCORE.INTER.VDW>
-28.439

>  <SCORE.INTER.norm>
-0.76923

>  <SCORE.INTRA>
-0.758605

>  <SCORE.INTRA.DIHEDRAL>
-1.00157

>  <SCORE.INTRA.DIHEDRAL.0>
7.88077

>  <SCORE.INTRA.POLAR>
0

>  <SCORE.INTRA.POLAR.0>
0

>  <SCORE.INTRA.REPUL>
0

>  <SCORE.INTRA.REPUL.0>
0

>  <SCORE.INTRA.SOLV>
-1.54461

>  <SCORE.INTRA.SOLV.lig_0>
-63.2542

>  <SCORE.INTRA.VDW>
0.514487

>  <SCORE.INTRA.VDW.0>
-3.15072

>  <SCORE.INTRA.norm>
-0.0291771

>  <SCORE.RESTR>
0

>  <SCORE.RESTR.CAVITY>
0

>  <SCORE.RESTR.norm>
0

>  <SCORE.SYSTEM>
0

>  <SCORE.SYSTEM.CONST>
0

>  <SCORE.SYSTEM.DIHEDRAL>
0

>  <SCORE.SYSTEM.SOLV>
0

>  <SCORE.SYSTEM.norm>
0

>  <SCORE.heavy>
26

>  <SCORE.norm>
-0.798407

>  <RMSD>
12.201

$$$$
ligand
 OpenBabel11021811473D
libRbt.so/2013.1/901 2013/11/27
 26 27  0  0  0  0  0  0  0  0999 V2000
    0.7472  -19.0066   17.1978 C   0  0  0  0  0  0  0  0  0  0  0  0
    5.0400  -20.0639   20.4657 C   0  0  0  0  0  0  0  0  0  0  0  0
    4.4203  -19.1156   19.6586 C   0  0  0  0  0  0  0  0  0  0  0  0
    3.0882  -19.3594   18.9454 C   0  0  0  0  0  0  0  0  0  0  0  0
    1.1246  -18.0220   18.3085 C   0  0  1  0  0  0  0  0  0  0  0  0
    8.1037  -18.1097   21.6176 C   0  0  0  0  0  0  0  0  0  0  0  0
    6.7971  -18.4779   20.9131 C   0  0  0  0  0  0  0  0  0  0  0  0
    5.0377  -17.8771   19.5157 C   0  0  0  0  0  0  0  0  0  0  0  0
    2.4067  -17.2943   20.0433 C   0  0  0  0  0  0  0  0  0  0  0  0
    0.3705  -16.8856   18.5755 C   0  0  2  0  0  0  0  0  0  0  0  0
   -0.9084  -16.3540   17.9232 C   0  0  0  0  0  0  0  0  0  0  0  0
   -1.9110  -17.4607   17.5882 C   0  0  0  0  0  0  0  0  0  0  0  0
    6.2415  -19.7500   21.1041 N   0  0  0  0  0  0  0  0  0  0  0  0
    2.1896  -18.2055   19.0939 N   0  0  0  0  0  0  0  0  0  0  0  0
    6.1735  -17.5909   20.1245 N   0  0  0  0  0  0  0  0  0  0  0  0
    4.5331  -21.1750   20.6221 O   0  0  0  0  0  0  0  0  0  0  0  0
   -4.5014  -17.3146   14.7001 O   0  5  0  0  0  0  0  0  0  0  0  0
   -5.3058  -20.7611   15.2987 O   0  0  0  0  0  0  0  0  0  0  0  0
   -2.9497  -16.9913   16.7230 O   0  0  0  0  0  0  0  0  0  0  0  0
   -3.2210  -19.3146   15.6220 O   0  0  0  0  0  0  0  0  0  0  0  0
   -3.9883  -19.9347   13.2314 O   0  5  0  0  0  0  0  0  0  0  0  0
   -5.1442  -18.3047   16.9997 O   0  0  0  0  0  0  0  0  0  0  0  0
   -2.9842  -21.7171   14.7816 O   0  0  0  0  0  0  0  0  0  0  0  0
    1.1917  -16.0558   19.8678 S   0  0  0  0  0  0  0  0  0  0  0  0
   -4.0266  -17.9994   16.0771 P   0  0  2  0  0  0  0  0  0  0  0  0
   -3.8863  -20.3943   14.6345 P   0  0  2  0  0  0  0  0  0  0  0  0
  2 16  2  0  0  0  0
  2  3  1  0  0  0  0
  2 13  1  0  0  0  0
  3  8  2  0  0  0  0
  3  4  1  0  0  0  0
  4 14  1  0  0  0  0
  5  1  1  1  0  0  0
  5 14  1  0  0  0  0
  5 10  1  0  0  0  0
  6  7  1  0  0  0  0
  7 13  1  0  0  0  0
  7 15  2  0  0  0  0
  8 15  1  0  0  0  0
  9 14  1  0  0  0  0
  9 24  1  0  0  0  0
 10 24  1  0  0  0  0
 10 11  1  6  0  0  0
 11 12  1  0  0  0  0
 12 19  1  0  0  0  0
 17 25  1  0  0  0  0
 19 25  1  0  0  0  0
 20 26  1  0  0  0  0
 21 26  1  0  0  0  0
 22 25  2  0  0  0  0
 23 26  2  0  0  0  0
 25 20  1  6  0  0  0
 26 18  1  1  0  0  0
M  CHG  2  17  -1  21  -1
M  END
>  <CHROM.1>
134.99095606,39.97867238,-167.00798028,162.91992599,172.38964621,-53.51066584
-152.56017820,-51.98816362,0.14319548,-18.57996615,17.79756347,-0.24593121
0.44882023,-2.73483446

>  <Name>
ligand

>  <RI>
0

>  <Rbt.Current_Directory>
/home/itssahil/PROJECTS/Mol_Feturizer/New_Systems/rnas/3D2X

>  <Rbt.Executable>
rbdock ($Id: //depot/dev/client3/rdock/2013.1/src/exe/rbdock.cxx#4 $)

>  <Rbt.Library>
libRbt.so (2013.1, Build901 2013/11/27)

>  <Rbt.Parameter_File>
/export/apps/rDock/src/rDock_2013.1_src/data/scripts/dock_solv.prm

>  <Rbt.Receptor>
prm/blind_docking_80.prm

>  <SCORE>
-17.0705

>  <SCORE.INTER>
-17.6953

>  <SCORE.INTER.CONST>
1

>  <SCORE.INTER.POLAR>
0

>  <SCORE.INTER.ROT>
8

>  <SCORE.INTER.SOLV>
14.0316

>  <SCORE.INTER.VDW>
-25.4074

>  <SCORE.INTER.norm>
-0.68059

>  <SCORE.INTRA>
0.624849

>  <SCORE.INTRA.DIHEDRAL>
-1.07367

>  <SCORE.INTRA.DIHEDRAL.0>
7.88077

>  <SCORE.INTRA.POLAR>
0

>  <SCORE.INTRA.POLAR.0>
0

>  <SCORE.INTRA.REPUL>
0

>  <SCORE.INTRA.REPUL.0>
0

>  <SCORE.INTRA.SOLV>
-1.87863

>  <SCORE.INTRA.SOLV.lig_0>
-63.2542

>  <SCORE.INTRA.VDW>
2.101

>  <SCORE.INTRA.VDW.0>
-3.15072

>  <SCORE.INTRA.norm>
0.0240327

>  <SCORE.RESTR>
0

>  <SCORE.RESTR.CAVITY>
0

>  <SCORE.RESTR.norm>
0

>  <SCORE.SYSTEM>
0

>  <SCORE.SYSTEM.CONST>
0

>  <SCORE.SYSTEM.DIHEDRAL>
0

>  <SCORE.SYSTEM.SOLV>
0

>  <SCORE.SYSTEM.norm>
0

>  <SCORE.heavy>
26

>  <SCORE.norm>
-0.656558

>  <RMSD>
12.236

$$$$
ligand
 OpenBabel11021811473D
libRbt.so/2013.1/901 2013/11/27
 26 27  0  0  0  0  0  0  0  0999 V2000
    0.0667  -15.5017   18.9950 C   0  0  0  0  0  0  0  0  0  0  0  0
    4.6522  -17.7377   21.0219 C   0  0  0  0  0  0  0  0  0  0  0  0
    3.8100  -17.5564   19.9299 C   0  0  0  0  0  0  0  0  0  0  0  0
    2.4146  -16.9367   20.0378 C   0  0  0  0  0  0  0  0  0  0  0  0
    0.4015  -16.9496   18.6245 C   0  0  1  0  0  0  0  0  0  0  0  0
    7.7141  -19.2253   19.3059 C   0  0  0  0  0  0  0  0  0  0  0  0
    6.3197  -18.6406   19.5362 C   0  0  0  0  0  0  0  0  0  0  0  0
    4.2757  -17.9394   18.6762 C   0  0  0  0  0  0  0  0  0  0  0  0
    1.6800  -18.8320   18.6950 C   0  0  0  0  0  0  0  0  0  0  0  0
   -0.3866  -17.6893   17.7510 C   0  0  2  0  0  0  0  0  0  0  0  0
   -1.6605  -17.3165   16.9884 C   0  0  0  0  0  0  0  0  0  0  0  0
   -2.6684  -18.4658   16.9134 C   0  0  0  0  0  0  0  0  0  0  0  0
    5.9229  -18.2846   20.8320 N   0  0  0  0  0  0  0  0  0  0  0  0
    1.4767  -17.5795   19.1060 N   0  0  0  0  0  0  0  0  0  0  0  0
    5.4792  -18.4551   18.5082 N   0  0  0  0  0  0  0  0  0  0  0  0
    4.2846  -17.4155   22.1519 O   0  0  0  0  0  0  0  0  0  0  0  0
   -2.4236  -22.0888   16.3117 O   0  5  0  0  0  0  0  0  0  0  0  0
   -6.9259  -21.0344   17.2212 O   0  0  0  0  0  0  0  0  0  0  0  0
   -2.1897  -19.5386   16.0963 O   0  0  0  0  0  0  0  0  0  0  0  0
   -4.4935  -20.6224   16.5451 O   0  0  0  0  0  0  0  0  0  0  0  0
   -6.3258  -20.7308   14.7232 O   0  5  0  0  0  0  0  0  0  0  0  0
   -3.3759  -20.8687   14.2414 O   0  0  0  0  0  0  0  0  0  0  0  0
   -5.6104  -22.8512   15.9803 O   0  0  0  0  0  0  0  0  0  0  0  0
    0.3413  -19.2693   17.6667 S   0  0  0  0  0  0  0  0  0  0  0  0
   -3.1346  -20.7808   15.7000 P   0  0  2  0  0  0  0  0  0  0  0  0
   -5.8722  -21.2655   16.0266 P   0  0  2  0  0  0  0  0  0  0  0  0
  2 16  2  0  0  0  0
  2  3  1  0  0  0  0
  2 13  1  0  0  0  0
  3  8  2  0  0  0  0
  3  4  1  0  0  0  0
  4 14  1  0  0  0  0
  5  1  1  6  0  0  0
  5 14  1  0  0  0  0
  5 10  1  0  0  0  0
  6  7  1  0  0  0  0
  7 13  1  0  0  0  0
  7 15  2  0  0  0  0
  8 15  1  0  0  0  0
  9 14  1  0  0  0  0
  9 24  1  0  0  0  0
 10 24  1  0  0  0  0
 10 11  1  1  0  0  0
 11 12  1  0  0  0  0
 12 19  1  0  0  0  0
 17 25  1  0  0  0  0
 19 25  1  0  0  0  0
 20 26  1  0  0  0  0
 21 26  1  0  0  0  0
 22 25  2  0  0  0  0
 23 26  2  0  0  0  0
 25 20  1  1  0  0  0
 26 18  1  1  0  0  0
M  CHG  2  17  -1  21  -1
M  END
>  <CHROM.1>
-143.81523487,-142.07017313,-67.96457736,-153.72517368,-171.96056959,-93.15075600
-118.93997552,173.53570784,-0.43119614,-19.25131741,17.71497742,0.44268158
-0.20328360,0.51427396

>  <Name>
ligand

>  <RI>
0

>  <Rbt.Current_Directory>
/home/itssahil/PROJECTS/Mol_Feturizer/New_Systems/rnas/3D2X

>  <Rbt.Executable>
rbdock ($Id: //depot/dev/client3/rdock/2013.1/src/exe/rbdock.cxx#4 $)

>  <Rbt.Library>
libRbt.so (2013.1, Build901 2013/11/27)

>  <Rbt.Parameter_File>
/export/apps/rDock/src/rDock_2013.1_src/data/scripts/dock_solv.prm

>  <Rbt.Receptor>
prm/blind_docking_80.prm

>  <SCORE>
-18.657

>  <SCORE.INTER>
-20.5853

>  <SCORE.INTER.CONST>
1

>  <SCORE.INTER.POLAR>
0

>  <SCORE.INTER.ROT>
8

>  <SCORE.INTER.SOLV>
15.53

>  <SCORE.INTER.VDW>
-27.8335

>  <SCORE.INTER.norm>
-0.791741

>  <SCORE.INTRA>
1.92825

>  <SCORE.INTRA.DIHEDRAL>
1.22018

>  <SCORE.INTRA.DIHEDRAL.0>
7.88077

>  <SCORE.INTRA.POLAR>
0

>  <SCORE.INTRA.POLAR.0>
0

>  <SCORE.INTRA.REPUL>
0

>  <SCORE.INTRA.REPUL.0>
0

>  <SCORE.INTRA.SOLV>
-0.0987095

>  <SCORE.INTRA.SOLV.lig_0>
-63.2542

>  <SCORE.INTRA.VDW>
1.36752

>  <SCORE.INTRA.VDW.0>
-3.15072

>  <SCORE.INTRA.norm>
0.0741636

>  <SCORE.RESTR>
0

>  <SCORE.RESTR.CAVITY>
0

>  <SCORE.RESTR.norm>
0

>  <SCORE.SYSTEM>
0

>  <SCORE.SYSTEM.CONST>
0

>  <SCORE.SYSTEM.DIHEDRAL>
0

>  <SCORE.SYSTEM.SOLV>
0

>  <SCORE.SYSTEM.norm>
0

>  <SCORE.heavy>
26

>  <SCORE.norm>
-0.717578

>  <RMSD>
12.244

$$$$
ligand
 OpenBabel11021811473D
libRbt.so/2013.1/901 2013/11/27
 26 27  0  0  0  0  0  0  0  0999 V2000
    1.3016  -16.0411   20.0608 C   0  0  0  0  0  0  0  0  0  0  0  0
    5.9298  -18.3272   20.2061 C   0  0  0  0  0  0  0  0  0  0  0  0
    4.6581  -18.8749   20.3382 C   0  0  0  0  0  0  0  0  0  0  0  0
    3.4018  -18.0352   20.5819 C   0  0  0  0  0  0  0  0  0  0  0  0
    1.4596  -17.3294   19.2477 C   0  0  1  0  0  0  0  0  0  0  0  0
    7.9832  -21.4721   19.5536 C   0  0  0  0  0  0  0  0  0  0  0  0
    6.8039  -20.5427   19.8445 C   0  0  0  0  0  0  0  0  0  0  0  0
    4.5265  -20.2548   20.2191 C   0  0  0  0  0  0  0  0  0  0  0  0
    2.4794  -19.2926   18.7102 C   0  0  0  0  0  0  0  0  0  0  0  0
    0.6162  -17.6422   18.1884 C   0  0  2  0  0  0  0  0  0  0  0  0
   -0.5684  -16.8792   17.5901 C   0  0  0  0  0  0  0  0  0  0  0  0
   -1.8296  -17.7375   17.4676 C   0  0  0  0  0  0  0  0  0  0  0  0
    7.0202  -19.1627   19.9558 N   0  0  0  0  0  0  0  0  0  0  0  0
    2.4248  -18.2183   19.4988 N   0  0  0  0  0  0  0  0  0  0  0  0
    5.5644  -21.0352   19.9819 N   0  0  0  0  0  0  0  0  0  0  0  0
    6.0972  -17.1114   20.3048 O   0  0  0  0  0  0  0  0  0  0  0  0
   -4.7824  -17.1919   14.9589 O   0  5  0  0  0  0  0  0  0  0  0  0
   -3.3581  -18.9883   13.5423 O   0  0  0  0  0  0  0  0  0  0  0  0
   -2.7823  -17.1558   16.5722 O   0  0  0  0  0  0  0  0  0  0  0  0
   -3.9756  -19.3751   15.9944 O   0  0  0  0  0  0  0  0  0  0  0  0
   -1.5150  -19.6305   15.2401 O   0  5  0  0  0  0  0  0  0  0  0  0
   -5.1416  -17.6296   17.4810 O   0  0  0  0  0  0  0  0  0  0  0  0
   -3.2814  -21.3523   14.5304 O   0  0  0  0  0  0  0  0  0  0  0  0
    1.1356  -19.1980   17.6029 S   0  0  0  0  0  0  0  0  0  0  0  0
   -4.2279  -17.8232   16.3317 P   0  0  2  0  0  0  0  0  0  0  0  0
   -2.9317  -19.8168   14.8547 P   0  0  2  0  0  0  0  0  0  0  0  0
  2 16  2  0  0  0  0
  2  3  1  0  0  0  0
  2 13  1  0  0  0  0
  3  8  2  0  0  0  0
  3  4  1  0  0  0  0
  4 14  1  0  0  0  0
  5  1  1  6  0  0  0
  5 14  1  0  0  0  0
  5 10  1  0  0  0  0
  6  7  1  0  0  0  0
  7 13  1  0  0  0  0
  7 15  2  0  0  0  0
  8 15  1  0  0  0  0
  9 14  1  0  0  0  0
  9 24  1  0  0  0  0
 10 24  1  0  0  0  0
 10 11  1  1  0  0  0
 11 12  1  0  0  0  0
 12 19  1  0  0  0  0
 17 25  1  0  0  0  0
 19 25  1  0  0  0  0
 20 26  1  0  0  0  0
 21 26  1  0  0  0  0
 22 25  2  0  0  0  0
 23 26  2  0  0  0  0
 25 20  1  6  0  0  0
 26 18  1  6  0  0  0
M  CHG  2  17  -1  21  -1
M  END
>  <CHROM.1>
119.92659760,-128.39865599,-162.98182221,-158.96031092,-176.60970378,60.81428170
-161.87727835,-52.42080540,0.46806546,-18.71647078,17.70212494,0.19984393
-0.40301547,0.63187276

>  <Name>
ligand

>  <RI>
0

>  <Rbt.Current_Directory>
/home/itssahil/PROJECTS/Mol_Feturizer/New_Systems/rnas/3D2X

>  <Rbt.Executable>
rbdock ($Id: //depot/dev/client3/rdock/2013.1/src/exe/rbdock.cxx#4 $)

>  <Rbt.Library>
libRbt.so (2013.1, Build901 2013/11/27)

>  <Rbt.Parameter_File>
/export/apps/rDock/src/rDock_2013.1_src/data/scripts/dock_solv.prm

>  <Rbt.Receptor>
prm/blind_docking_100.prm

>  <SCORE>
-16.2265

>  <SCORE.INTER>
-16.2769

>  <SCORE.INTER.CONST>
1

>  <SCORE.INTER.POLAR>
0

>  <SCORE.INTER.ROT>
8

>  <SCORE.INTER.SOLV>
13.4812

>  <SCORE.INTER.VDW>
-24.2784

>  <SCORE.INTER.norm>
-0.626036

>  <SCORE.INTRA>
0.0504184

>  <SCORE.INTRA.DIHEDRAL>
-1.00626

>  <SCORE.INTRA.DIHEDRAL.0>
7.88077

>  <SCORE.INTRA.POLAR>
0

>  <SCORE.INTRA.POLAR.0>
0

>  <SCORE.INTRA.REPUL>
0

>  <SCORE.INTRA.REPUL.0>
0

>  <SCORE.INTRA.SOLV>
-0.827653

>  <SCORE.INTRA.SOLV.lig_0>
-63.2542

>  <SCORE.INTRA.VDW>
0.967375

>  <SCORE.INTRA.VDW.0>
-3.15072

>  <SCORE.INTRA.norm>
0.00193917

>  <SCORE.RESTR>
0

>  <SCORE.RESTR.CAVITY>
0

>  <SCORE.RESTR.norm>
0

>  <SCORE.SYSTEM>
0

>  <SCORE.SYSTEM.CONST>
0

>  <SCORE.SYSTEM.DIHEDRAL>
0

>  <SCORE.SYSTEM.SOLV>
0

>  <SCORE.SYSTEM.norm>
0

>  <SCORE.heavy>
26

>  <SCORE.norm>
-0.624097

>  <RMSD>
12.265

$$$$
ligand
 OpenBabel11021811473D
libRbt.so/2013.1/901 2013/11/27
 26 27  0  0  0  0  0  0  0  0999 V2000
    1.0114  -18.0068   18.3829 C   0  0  0  0  0  0  0  0  0  0  0  0
    0.2875  -13.1547   20.6602 C   0  0  0  0  0  0  0  0  0  0  0  0
    0.2432  -14.4977   21.0199 C   0  0  0  0  0  0  0  0  0  0  0  0
    0.3655  -15.6428   20.0117 C   0  0  0  0  0  0  0  0  0  0  0  0
    1.9348  -17.4593   19.4752 C   0  0  1  0  0  0  0  0  0  0  0  0
   -0.0201  -11.5024   24.0819 C   0  0  0  0  0  0  0  0  0  0  0  0
    0.0628  -12.5651   22.9851 C   0  0  0  0  0  0  0  0  0  0  0  0
    0.1031  -14.8074   22.3689 C   0  0  0  0  0  0  0  0  0  0  0  0
    2.5153  -15.9812   21.1065 C   0  0  0  0  0  0  0  0  0  0  0  0
    3.1611  -18.0444   19.7673 C   0  0  2  0  0  0  0  0  0  0  0  0
    3.8669  -19.2553   19.1515 C   0  0  0  0  0  0  0  0  0  0  0  0
    4.5333  -20.1522   20.1973 C   0  0  0  0  0  0  0  0  0  0  0  0
    0.1975  -12.1711   21.6472 N   0  0  0  0  0  0  0  0  0  0  0  0
    1.6233  -16.3804   20.1989 N   0  0  0  0  0  0  0  0  0  0  0  0
    0.0195  -13.8692   23.2937 N   0  0  0  0  0  0  0  0  0  0  0  0
    0.4091  -12.8304   19.4788 O   0  0  0  0  0  0  0  0  0  0  0  0
    7.1015  -18.8138   20.6508 O   0  5  0  0  0  0  0  0  0  0  0  0
    6.9140  -21.5296   24.1743 O   0  0  0  0  0  0  0  0  0  0  0  0
    5.7255  -20.7610   19.6918 O   0  0  0  0  0  0  0  0  0  0  0  0
    7.3329  -21.1315   21.6824 O   0  0  0  0  0  0  0  0  0  0  0  0
    5.6791  -19.6079   22.9601 O   0  5  0  0  0  0  0  0  0  0  0  0
    8.2712  -20.7005   19.3265 O   0  0  0  0  0  0  0  0  0  0  0  0
    5.0797  -22.0535   22.4620 O   0  0  0  0  0  0  0  0  0  0  0  0
    3.8295  -17.1272   21.0883 S   0  0  0  0  0  0  0  0  0  0  0  0
    7.1778  -20.3761   20.2713 P   0  0  2  0  0  0  0  0  0  0  0  0
    6.2185  -20.9801   22.8308 P   0  0  2  0  0  0  0  0  0  0  0  0
  2 16  2  0  0  0  0
  2  3  1  0  0  0  0
  2 13  1  0  0  0  0
  3  8  2  0  0  0  0
  3  4  1  0  0  0  0
  4 14  1  0  0  0  0
  5  1  1  6  0  0  0
  5 14  1  0  0  0  0
  5 10  1  0  0  0  0
  6  7  1  0  0  0  0
  7 13  1  0  0  0  0
  7 15  2  0  0  0  0
  8 15  1  0  0  0  0
  9 14  1  0  0  0  0
  9 24  1  0  0  0  0
 10 24  1  0  0  0  0
 10 11  1  1  0  0  0
 11 12  1  0  0  0  0
 12 19  1  0  0  0  0
 17 25  1  0  0  0  0
 19 25  1  0  0  0  0
 20 26  1  0  0  0  0
 21 26  1  0  0  0  0
 22 25  2  0  0  0  0
 23 26  2  0  0  0  0
 25 20  1  1  0  0  0
 26 18  1  1  0  0  0
M  CHG  2  17  -1  21  -1
M  END
>  <CHROM.1>
112.02495021,-138.28659742,-147.12202075,177.16390987,112.63610420,59.25579301
-34.09682496,-165.00469678,3.67713986,-17.69929675,21.15777127,2.92339782
-0.83214496,1.30542655

>  <Name>
ligand

>  <RI>
0

>  <Rbt.Current_Directory>
/home/itssahil/PROJECTS/Mol_Feturizer/New_Systems/rnas/3D2X

>  <Rbt.Executable>
rbdock ($Id: //depot/dev/client3/rdock/2013.1/src/exe/rbdock.cxx#4 $)

>  <Rbt.Library>
libRbt.so (2013.1, Build901 2013/11/27)

>  <Rbt.Parameter_File>
/export/apps/rDock/src/rDock_2013.1_src/data/scripts/dock_solv.prm

>  <Rbt.Receptor>
prm/blind_docking_100.prm

>  <SCORE>
-13.1354

>  <SCORE.INTER>
-19.1137

>  <SCORE.INTER.CONST>
1

>  <SCORE.INTER.POLAR>
0

>  <SCORE.INTER.ROT>
8

>  <SCORE.INTER.SOLV>
15.0501

>  <SCORE.INTER.VDW>
-26.6925

>  <SCORE.INTER.norm>
-0.735144

>  <SCORE.INTRA>
5.96288

>  <SCORE.INTRA.DIHEDRAL>
8.60226

>  <SCORE.INTRA.DIHEDRAL.0>
7.88077

>  <SCORE.INTRA.POLAR>
0

>  <SCORE.INTRA.POLAR.0>
0

>  <SCORE.INTRA.REPUL>
0

>  <SCORE.INTRA.REPUL.0>
0

>  <SCORE.INTRA.SOLV>
2.45907

>  <SCORE.INTRA.SOLV.lig_0>
-63.2542

>  <SCORE.INTRA.VDW>
0.432219

>  <SCORE.INTRA.VDW.0>
-3.15072

>  <SCORE.INTRA.norm>
0.229342

>  <SCORE.RESTR>
0.0154324

>  <SCORE.RESTR.CAVITY>
0.0154324

>  <SCORE.RESTR.norm>
0.000593554

>  <SCORE.SYSTEM>
0

>  <SCORE.SYSTEM.CONST>
0

>  <SCORE.SYSTEM.DIHEDRAL>
0

>  <SCORE.SYSTEM.SOLV>
0

>  <SCORE.SYSTEM.norm>
0

>  <SCORE.heavy>
26

>  <SCORE.norm>
-0.505208

>  <RMSD>
12.278

$$$$
ligand
 OpenBabel11021811473D
libRbt.so/2013.1/901 2013/11/27
 26 27  0  0  0  0  0  0  0  0999 V2000
    0.5968  -18.8219   17.1761 C   0  0  0  0  0  0  0  0  0  0  0  0
    5.5208  -18.8045   18.6179 C   0  0  0  0  0  0  0  0  0  0  0  0
    4.3794  -18.8697   19.4101 C   0  0  0  0  0  0  0  0  0  0  0  0
    2.9868  -19.1788   18.8551 C   0  0  0  0  0  0  0  0  0  0  0  0
    0.9863  -17.8591   18.3016 C   0  0  1  0  0  0  0  0  0  0  0  0
    8.1701  -18.0871   21.2634 C   0  0  0  0  0  0  0  0  0  0  0  0
    6.8205  -18.3551   20.5957 C   0  0  0  0  0  0  0  0  0  0  0  0
    4.5226  -18.6649   20.7787 C   0  0  0  0  0  0  0  0  0  0  0  0
    2.3001  -17.1534   20.0218 C   0  0  0  0  0  0  0  0  0  0  0  0
    0.2209  -16.7426   18.6162 C   0  0  2  0  0  0  0  0  0  0  0  0
   -1.0826  -16.2165   18.0097 C   0  0  0  0  0  0  0  0  0  0  0  0
   -2.0560  -17.3340   17.6278 C   0  0  0  0  0  0  0  0  0  0  0  0
    6.7591  -18.5454   19.2089 N   0  0  0  0  0  0  0  0  0  0  0  0
    2.0737  -18.0442   19.0553 N   0  0  0  0  0  0  0  0  0  0  0  0
    5.6985  -18.4211   21.3268 N   0  0  0  0  0  0  0  0  0  0  0  0
    5.4448  -18.9776   17.4013 O   0  0  0  0  0  0  0  0  0  0  0  0
   -4.0347  -17.6278   14.8611 O   0  5  0  0  0  0  0  0  0  0  0  0
   -4.5540  -20.2176   14.4941 O   0  0  0  0  0  0  0  0  0  0  0  0
   -3.3152  -16.8140   17.1901 O   0  0  0  0  0  0  0  0  0  0  0  0
   -4.0494  -19.2640   16.8135 O   0  0  0  0  0  0  0  0  0  0  0  0
   -4.2981  -21.8201   16.5087 O   0  5  0  0  0  0  0  0  0  0  0  0
   -5.7871  -17.3687   16.7435 O   0  0  0  0  0  0  0  0  0  0  0  0
   -6.3440  -20.2807   16.3279 O   0  0  0  0  0  0  0  0  0  0  0  0
    1.0612  -15.9315   19.9082 S   0  0  0  0  0  0  0  0  0  0  0  0
   -4.3889  -17.7404   16.4271 P   0  0  2  0  0  0  0  0  0  0  0  0
   -4.7716  -20.4898   16.0655 P   0  0  2  0  0  0  0  0  0  0  0  0
  2 16  2  0  0  0  0
  2  3  1  0  0  0  0
  2 13  1  0  0  0  0
  3  8  2  0  0  0  0
  3  4  1  0  0  0  0
  4 14  1  0  0  0  0
  5  1  1  1  0  0  0
  5 14  1  0  0  0  0
  5 10  1  0  0  0  0
  6  7  1  0  0  0  0
  7 13  1  0  0  0  0
  7 15  2  0  0  0  0
  8 15  1  0  0  0  0
  9 14  1  0  0  0  0
  9 24  1  0  0  0  0
 10 24  1  0  0  0  0
 10 11  1  6  0  0  0
 11 12  1  0  0  0  0
 12 19  1  0  0  0  0
 17 25  1  0  0  0  0
 19 25  1  0  0  0  0
 20 26  1  0  0  0  0
 21 26  1  0  0  0  0
 22 25  2  0  0  0  0
 23 26  2  0  0  0  0
 25 20  1  1  0  0  0
 26 18  1  6  0  0  0
M  CHG  2  17  -1  21  -1
M  END
>  <CHROM.1>
-116.95503201,38.01574687,174.13876741,156.84155500,166.09896582,-58.62558476
-89.03158753,52.50742619,-0.11949876,-18.36189616,17.95264432,-0.21724573
0.29461745,-2.72035284

>  <Name>
ligand

>  <RI>
0

>  <Rbt.Current_Directory>
/home/itssahil/PROJECTS/Mol_Feturizer/New_Systems/rnas/3D2X

>  <Rbt.Executable>
rbdock ($Id: //depot/dev/client3/rdock/2013.1/src/exe/rbdock.cxx#4 $)

>  <Rbt.Library>
libRbt.so (2013.1, Build901 2013/11/27)

>  <Rbt.Parameter_File>
/export/apps/rDock/src/rDock_2013.1_src/data/scripts/dock_solv.prm

>  <Rbt.Receptor>
prm/blind_docking_40.prm

>  <SCORE>
-20.0527

>  <SCORE.INTER>
-21.452

>  <SCORE.INTER.CONST>
1

>  <SCORE.INTER.POLAR>
0

>  <SCORE.INTER.ROT>
8

>  <SCORE.INTER.SOLV>
16.2399

>  <SCORE.INTER.VDW>
-28.648

>  <SCORE.INTER.norm>
-0.825077

>  <SCORE.INTRA>
1.3993

>  <SCORE.INTRA.DIHEDRAL>
-0.658228

>  <SCORE.INTRA.DIHEDRAL.0>
7.88077

>  <SCORE.INTRA.POLAR>
0

>  <SCORE.INTRA.POLAR.0>
0

>  <SCORE.INTRA.REPUL>
0

>  <SCORE.INTRA.REPUL.0>
0

>  <SCORE.INTRA.SOLV>
-0.993284

>  <SCORE.INTRA.SOLV.lig_0>
-63.2542

>  <SCORE.INTRA.VDW>
2.22506

>  <SCORE.INTRA.VDW.0>
-3.15072

>  <SCORE.INTRA.norm>
0.0538193

>  <SCORE.RESTR>
0

>  <SCORE.RESTR.CAVITY>
0

>  <SCORE.RESTR.norm>
0

>  <SCORE.SYSTEM>
0

>  <SCORE.SYSTEM.CONST>
0

>  <SCORE.SYSTEM.DIHEDRAL>
0

>  <SCORE.SYSTEM.SOLV>
0

>  <SCORE.SYSTEM.norm>
0

>  <SCORE.heavy>
26

>  <SCORE.norm>
-0.771258

>  <RMSD>
12.285

$$$$
ligand
 OpenBabel11021811473D
libRbt.so/2013.1/901 2013/11/27
 26 27  0  0  0  0  0  0  0  0999 V2000
   -0.2394  -16.7718   18.3485 C   0  0  0  0  0  0  0  0  0  0  0  0
    4.5726  -17.7882   19.0745 C   0  0  0  0  0  0  0  0  0  0  0  0
    3.5236  -18.5781   19.5333 C   0  0  0  0  0  0  0  0  0  0  0  0
    2.0728  -18.0947   19.5985 C   0  0  0  0  0  0  0  0  0  0  0  0
    0.1815  -18.2096   18.0301 C   0  0  1  0  0  0  0  0  0  0  0  0
    7.4762  -20.2413   19.3650 C   0  0  0  0  0  0  0  0  0  0  0  0
    6.0718  -19.6394   19.4333 C   0  0  0  0  0  0  0  0  0  0  0  0
    3.8124  -19.8799   19.9300 C   0  0  0  0  0  0  0  0  0  0  0  0
    1.5244  -20.0366   18.2336 C   0  0  0  0  0  0  0  0  0  0  0  0
   -0.5039  -18.9929   17.1093 C   0  0  2  0  0  0  0  0  0  0  0  0
   -1.7266  -18.6832   16.2417 C   0  0  0  0  0  0  0  0  0  0  0  0
   -1.6985  -19.4051   14.8925 C   0  0  0  0  0  0  0  0  0  0  0  0
    5.8639  -18.3167   19.0201 N   0  0  0  0  0  0  0  0  0  0  0  0
    1.2390  -18.7881   18.6061 N   0  0  0  0  0  0  0  0  0  0  0  0
    5.0371  -20.3694   19.8738 N   0  0  0  0  0  0  0  0  0  0  0  0
    4.3673  -16.6292   18.7136 O   0  0  0  0  0  0  0  0  0  0  0  0
   -3.5021  -21.2191   16.3774 O   0  5  0  0  0  0  0  0  0  0  0  0
   -5.9905  -20.4112   17.2897 O   0  0  0  0  0  0  0  0  0  0  0  0
   -3.0175  -19.6547   14.3969 O   0  0  0  0  0  0  0  0  0  0  0  0
   -5.3997  -20.5719   14.8060 O   0  0  0  0  0  0  0  0  0  0  0  0
   -5.3212  -18.2753   15.9926 O   0  5  0  0  0  0  0  0  0  0  0  0
   -3.5402  -22.1354   13.9607 O   0  0  0  0  0  0  0  0  0  0  0  0
   -7.5680  -19.4253   15.5260 O   0  0  0  0  0  0  0  0  0  0  0  0
    0.2909  -20.5426   17.1097 S   0  0  0  0  0  0  0  0  0  0  0  0
   -3.8419  -20.9705   14.8240 P   0  0  2  0  0  0  0  0  0  0  0  0
   -6.0147  -19.5803   15.9114 P   0  0  2  0  0  0  0  0  0  0  0  0
  2 16  2  0  0  0  0
  2  3  1  0  0  0  0
  2 13  1  0  0  0  0
  3  8  2  0  0  0  0
  3  4  1  0  0  0  0
  4 14  1  0  0  0  0
  5  1  1  6  0  0  0
  5 14  1  0  0  0  0
  5 10  1  0  0  0  0
  6  7  1  0  0  0  0
  7 13  1  0  0  0  0
  7 15  2  0  0  0  0
  8 15  1  0  0  0  0
  9 14  1  0  0  0  0
  9 24  1  0  0  0  0
 10 24  1  0  0  0  0
 10 11  1  1  0  0  0
 11 12  1  0  0  0  0
 12 19  1  0  0  0  0
 17 25  1  0  0  0  0
 19 25  1  0  0  0  0
 20 26  1  0  0  0  0
 21 26  1  0  0  0  0
 22 25  2  0  0  0  0
 23 26  2  0  0  0  0
 25 20  1  6  0  0  0
 26 18  1  1  0  0  0
M  CHG  2  17  -1  21  -1
M  END
>  <CHROM.1>
110.67062379,147.34211015,151.64511241,-149.08734473,-86.27132988,41.71929101
38.10754273,-69.54969908,-0.67872398,-19.50316688,17.12087166,0.27722547
-0.26872451,0.51808079

>  <Name>
ligand

>  <RI>
0

>  <Rbt.Current_Directory>
/home/itssahil/PROJECTS/Mol_Feturizer/New_Systems/rnas/3D2X

>  <Rbt.Executable>
rbdock ($Id: //depot/dev/client3/rdock/2013.1/src/exe/rbdock.cxx#4 $)

>  <Rbt.Library>
libRbt.so (2013.1, Build901 2013/11/27)

>  <Rbt.Parameter_File>
/export/apps/rDock/src/rDock_2013.1_src/data/scripts/dock_solv.prm

>  <Rbt.Receptor>
prm/blind_docking_40.prm

>  <SCORE>
-10.5981

>  <SCORE.INTER>
-13.2098

>  <SCORE.INTER.CONST>
1

>  <SCORE.INTER.POLAR>
0

>  <SCORE.INTER.ROT>
8

>  <SCORE.INTER.SOLV>
18.3317

>  <SCORE.INTER.VDW>
-23.8505

>  <SCORE.INTER.norm>
-0.508071

>  <SCORE.INTRA>
2.47043

>  <SCORE.INTRA.DIHEDRAL>
3.75363

>  <SCORE.INTRA.DIHEDRAL.0>
7.88077

>  <SCORE.INTRA.POLAR>
0

>  <SCORE.INTRA.POLAR.0>
0

>  <SCORE.INTRA.REPUL>
0

>  <SCORE.INTRA.REPUL.0>
0

>  <SCORE.INTRA.SOLV>
0.391229

>  <SCORE.INTRA.SOLV.lig_0>
-63.2542

>  <SCORE.INTRA.VDW>
0.398004

>  <SCORE.INTRA.VDW.0>
-3.15072

>  <SCORE.INTRA.norm>
0.0950166

>  <SCORE.RESTR>
0.141275

>  <SCORE.RESTR.CAVITY>
0.141275

>  <SCORE.RESTR.norm>
0.00543366

>  <SCORE.SYSTEM>
0

>  <SCORE.SYSTEM.CONST>
0

>  <SCORE.SYSTEM.DIHEDRAL>
0

>  <SCORE.SYSTEM.SOLV>
0

>  <SCORE.SYSTEM.norm>
0

>  <SCORE.heavy>
26

>  <SCORE.norm>
-0.40762

>  <RMSD>
12.302

$$$$
ligand
 OpenBabel11021811473D
libRbt.so/2013.1/901 2013/11/27
 26 27  0  0  0  0  0  0  0  0999 V2000
    0.1465  -15.8017   18.9115 C   0  0  0  0  0  0  0  0  0  0  0  0
    4.8155  -17.7431   19.5565 C   0  0  0  0  0  0  0  0  0  0  0  0
    3.9119  -17.4287   20.5661 C   0  0  0  0  0  0  0  0  0  0  0  0
    2.5203  -16.8501   20.2990 C   0  0  0  0  0  0  0  0  0  0  0  0
    0.7081  -17.2067   18.6744 C   0  0  1  0  0  0  0  0  0  0  0  0
    7.7061  -19.1390   21.6130 C   0  0  0  0  0  0  0  0  0  0  0  0
    6.3601  -18.5192   21.2344 C   0  0  0  0  0  0  0  0  0  0  0  0
    4.2910  -17.6767   21.8814 C   0  0  0  0  0  0  0  0  0  0  0  0
    2.2028  -18.8914   19.0077 C   0  0  0  0  0  0  0  0  0  0  0  0
    0.1321  -18.0890   17.7682 C   0  0  2  0  0  0  0  0  0  0  0  0
   -1.0798  -17.9312   16.8463 C   0  0  0  0  0  0  0  0  0  0  0  0
   -1.3159  -19.1545   15.9575 C   0  0  0  0  0  0  0  0  0  0  0  0
    6.0553  -18.2953   19.8852 N   0  0  0  0  0  0  0  0  0  0  0  0
    1.7912  -17.6597   19.3121 N   0  0  0  0  0  0  0  0  0  0  0  0
    5.4656  -18.1996   22.1807 N   0  0  0  0  0  0  0  0  0  0  0  0
    4.5264  -17.5406   18.3770 O   0  0  0  0  0  0  0  0  0  0  0  0
   -1.5875  -22.7535   16.5850 O   0  5  0  0  0  0  0  0  0  0  0  0
   -6.4328  -21.3612   16.8301 O   0  0  0  0  0  0  0  0  0  0  0  0
   -1.9622  -20.2125   16.6721 O   0  0  0  0  0  0  0  0  0  0  0  0
   -3.9563  -21.8350   16.3988 O   0  0  0  0  0  0  0  0  0  0  0  0
   -4.7897  -19.3892   16.5079 O   0  5  0  0  0  0  0  0  0  0  0  0
   -2.3079  -21.4745   14.4573 O   0  0  0  0  0  0  0  0  0  0  0  0
   -5.4162  -20.8926   14.5240 O   0  0  0  0  0  0  0  0  0  0  0  0
    1.0639  -19.5571   17.8673 S   0  0  0  0  0  0  0  0  0  0  0  0
   -2.4433  -21.5582   15.9297 P   0  0  2  0  0  0  0  0  0  0  0  0
   -5.1245  -20.7721   16.1006 P   0  0  2  0  0  0  0  0  0  0  0  0
  2 16  2  0  0  0  0
  2  3  1  0  0  0  0
  2 13  1  0  0  0  0
  3  8  2  0  0  0  0
  3  4  1  0  0  0  0
  4 14  1  0  0  0  0
  5  1  1  6  0  0  0
  5 14  1  0  0  0  0
  5 10  1  0  0  0  0
  6  7  1  0  0  0  0
  7 13  1  0  0  0  0
  7 15  2  0  0  0  0
  8 15  1  0  0  0  0
  9 14  1  0  0  0  0
  9 24  1  0  0  0  0
 10 24  1  0  0  0  0
 10 11  1  1  0  0  0
 11 12  1  0  0  0  0
 12 19  1  0  0  0  0
 17 25  1  0  0  0  0
 19 25  1  0  0  0  0
 20 26  1  0  0  0  0
 21 26  1  0  0  0  0
 22 25  2  0  0  0  0
 23 26  2  0  0  0  0
 25 20  1  1  0  0  0
 26 18  1  1  0  0  0
M  CHG  2  17  -1  21  -1
M  END
>  <CHROM.1>
51.30572548,177.18402587,78.96666917,-163.59628435,174.36322457,172.87925225
116.74708915,-175.39016963,0.05821070,-19.35472578,17.91816755,0.43012794
-0.34407743,0.35901740

>  <Name>
ligand

>  <RI>
0

>  <Rbt.Current_Directory>
/home/itssahil/PROJECTS/Mol_Feturizer/New_Systems/rnas/3D2X

>  <Rbt.Executable>
rbdock ($Id: //depot/dev/client3/rdock/2013.1/src/exe/rbdock.cxx#4 $)

>  <Rbt.Library>
libRbt.so (2013.1, Build901 2013/11/27)

>  <Rbt.Parameter_File>
/export/apps/rDock/src/rDock_2013.1_src/data/scripts/dock_solv.prm

>  <Rbt.Receptor>
prm/blind_docking_40.prm

>  <SCORE>
-18.9467

>  <SCORE.INTER>
-20.1215

>  <SCORE.INTER.CONST>
1

>  <SCORE.INTER.POLAR>
0

>  <SCORE.INTER.ROT>
8

>  <SCORE.INTER.SOLV>
18.9693

>  <SCORE.INTER.VDW>
-28.6708

>  <SCORE.INTER.norm>
-0.773906

>  <SCORE.INTRA>
1.17482

>  <SCORE.INTRA.DIHEDRAL>
0.587491

>  <SCORE.INTRA.DIHEDRAL.0>
7.88077

>  <SCORE.INTRA.POLAR>
0

>  <SCORE.INTRA.POLAR.0>
0

>  <SCORE.INTRA.REPUL>
0

>  <SCORE.INTRA.REPUL.0>
0

>  <SCORE.INTRA.SOLV>
0.242815

>  <SCORE.INTRA.SOLV.lig_0>
-63.2542

>  <SCORE.INTRA.VDW>
0.759667

>  <SCORE.INTRA.VDW.0>
-3.15072

>  <SCORE.INTRA.norm>
0.0451854

>  <SCORE.RESTR>
0

>  <SCORE.RESTR.CAVITY>
0

>  <SCORE.RESTR.norm>
0

>  <SCORE.SYSTEM>
0

>  <SCORE.SYSTEM.CONST>
0

>  <SCORE.SYSTEM.DIHEDRAL>
0

>  <SCORE.SYSTEM.SOLV>
0

>  <SCORE.SYSTEM.norm>
0

>  <SCORE.heavy>
26

>  <SCORE.norm>
-0.72872

>  <RMSD>
12.321

$$$$
ligand
 OpenBabel11021811473D
libRbt.so/2013.1/901 2013/11/27
 26 27  0  0  0  0  0  0  0  0999 V2000
   -0.5676  -17.5892   17.0452 C   0  0  0  0  0  0  0  0  0  0  0  0
    3.9881  -18.8066   19.0001 C   0  0  0  0  0  0  0  0  0  0  0  0
    2.9433  -18.1811   19.6723 C   0  0  0  0  0  0  0  0  0  0  0  0
    1.5905  -17.8750   19.0251 C   0  0  0  0  0  0  0  0  0  0  0  0
    0.1150  -18.9237   17.3597 C   0  0  1  0  0  0  0  0  0  0  0  0
    6.5896  -19.0066   21.7794 C   0  0  0  0  0  0  0  0  0  0  0  0
    5.2968  -18.7048   21.0200 C   0  0  0  0  0  0  0  0  0  0  0  0
    3.1378  -17.8400   21.0069 C   0  0  0  0  0  0  0  0  0  0  0  0
    1.6331  -20.2378   18.4329 C   0  0  0  0  0  0  0  0  0  0  0  0
   -0.2372  -20.1033   16.7149 C   0  0  2  0  0  0  0  0  0  0  0  0
   -1.2778  -20.3797   15.6267 C   0  0  0  0  0  0  0  0  0  0  0  0
   -2.7158  -20.1909   16.1153 C   0  0  0  0  0  0  0  0  0  0  0  0
    5.1812  -19.0757   19.6737 N   0  0  0  0  0  0  0  0  0  0  0  0
    1.0972  -19.0288   18.2592 N   0  0  0  0  0  0  0  0  0  0  0  0
    4.2699  -18.0997   21.6341 N   0  0  0  0  0  0  0  0  0  0  0  0
    3.8644  -19.1266   17.8176 O   0  0  0  0  0  0  0  0  0  0  0  0
   -5.9302  -20.7826   13.9253 O   0  5  0  0  0  0  0  0  0  0  0  0
   -7.7745  -20.3900   17.8146 O   0  0  0  0  0  0  0  0  0  0  0  0
   -3.6689  -20.6121   15.1345 O   0  0  0  0  0  0  0  0  0  0  0  0
   -5.8128  -21.2631   16.4242 O   0  0  0  0  0  0  0  0  0  0  0  0
   -8.1941  -21.2612   15.4152 O   0  5  0  0  0  0  0  0  0  0  0  0
   -5.4898  -18.8523   15.5872 O   0  0  0  0  0  0  0  0  0  0  0  0
   -7.5775  -22.8931   17.2980 O   0  0  0  0  0  0  0  0  0  0  0  0
    0.7547  -21.3506   17.4176 S   0  0  0  0  0  0  0  0  0  0  0  0
   -5.2373  -20.2808   15.2886 P   0  0  2  0  0  0  0  0  0  0  0  0
   -7.3952  -21.4333   16.6491 P   0  0  2  0  0  0  0  0  0  0  0  0
  2 16  2  0  0  0  0
  2  3  1  0  0  0  0
  2 13  1  0  0  0  0
  3  8  2  0  0  0  0
  3  4  1  0  0  0  0
  4 14  1  0  0  0  0
  5  1  1  6  0  0  0
  5 14  1  0  0  0  0
  5 10  1  0  0  0  0
  6  7  1  0  0  0  0
  7 13  1  0  0  0  0
  7 15  2  0  0  0  0
  8 15  1  0  0  0  0
  9 14  1  0  0  0  0
  9 24  1  0  0  0  0
 10 24  1  0  0  0  0
 10 11  1  1  0  0  0
 11 12  1  0  0  0  0
 12 19  1  0  0  0  0
 17 25  1  0  0  0  0
 19 25  1  0  0  0  0
 20 26  1  0  0  0  0
 21 26  1  0  0  0  0
 22 25  2  0  0  0  0
 23 26  2  0  0  0  0
 25 20  1  1  0  0  0
 26 18  1  1  0  0  0
M  CHG  2  17  -1  21  -1
M  END
>  <CHROM.1>
45.07295657,-67.15903833,-172.83239527,-164.03508925,-169.00203858,-55.51443680
174.23894851,-94.38984569,-1.44942412,-19.92058013,17.48561627,-0.35187320
-0.18986193,-1.60681511

>  <Name>
ligand

>  <RI>
0

>  <Rbt.Current_Directory>
/home/itssahil/PROJECTS/Mol_Feturizer/New_Systems/rnas/3D2X

>  <Rbt.Executable>
rbdock ($Id: //depot/dev/client3/rdock/2013.1/src/exe/rbdock.cxx#4 $)

>  <Rbt.Library>
libRbt.so (2013.1, Build901 2013/11/27)

>  <Rbt.Parameter_File>
/export/apps/rDock/src/rDock_2013.1_src/data/scripts/dock_solv.prm

>  <Rbt.Receptor>
prm/blind_docking_60.prm

>  <SCORE>
-8.2049

>  <SCORE.INTER>
-9.28903

>  <SCORE.INTER.CONST>
1

>  <SCORE.INTER.POLAR>
0

>  <SCORE.INTER.ROT>
8

>  <SCORE.INTER.SOLV>
18.5617

>  <SCORE.INTER.VDW>
-21.3132

>  <SCORE.INTER.norm>
-0.35727

>  <SCORE.INTRA>
0.8936

>  <SCORE.INTRA.DIHEDRAL>
-1.00047

>  <SCORE.INTRA.DIHEDRAL.0>
7.88077

>  <SCORE.INTRA.POLAR>
0

>  <SCORE.INTRA.POLAR.0>
0

>  <SCORE.INTRA.REPUL>
0

>  <SCORE.INTRA.REPUL.0>
0

>  <SCORE.INTRA.SOLV>
-0.605552

>  <SCORE.INTRA.SOLV.lig_0>
-63.2542

>  <SCORE.INTRA.VDW>
1.69661

>  <SCORE.INTRA.VDW.0>
-3.15072

>  <SCORE.INTRA.norm>
0.0343692

>  <SCORE.RESTR>
0.190528

>  <SCORE.RESTR.CAVITY>
0.190528

>  <SCORE.RESTR.norm>
0.00732799

>  <SCORE.SYSTEM>
0

>  <SCORE.SYSTEM.CONST>
0

>  <SCORE.SYSTEM.DIHEDRAL>
0

>  <SCORE.SYSTEM.SOLV>
0

>  <SCORE.SYSTEM.norm>
0

>  <SCORE.heavy>
26

>  <SCORE.norm>
-0.315573

>  <RMSD>
12.324

$$$$
ligand
 OpenBabel11021811473D
libRbt.so/2013.1/901 2013/11/27
 26 27  0  0  0  0  0  0  0  0999 V2000
    0.9390  -18.6221   18.2636 C   0  0  0  0  0  0  0  0  0  0  0  0
    5.8652  -18.9159   18.5364 C   0  0  0  0  0  0  0  0  0  0  0  0
    5.0276  -18.9712   19.6455 C   0  0  0  0  0  0  0  0  0  0  0  0
    3.5193  -19.2125   19.5491 C   0  0  0  0  0  0  0  0  0  0  0  0
    1.5965  -17.6998   19.2944 C   0  0  1  0  0  0  0  0  0  0  0  0
    9.2384  -18.3856   20.2313 C   0  0  0  0  0  0  0  0  0  0  0  0
    7.7373  -18.5832   20.0155 C   0  0  0  0  0  0  0  0  0  0  0  0
    5.6011  -18.8214   20.9041 C   0  0  0  0  0  0  0  0  0  0  0  0
    3.2313  -17.1245   20.7707 C   0  0  0  0  0  0  0  0  0  0  0  0
    1.0053  -16.5109   19.7048 C   0  0  2  0  0  0  0  0  0  0  0  0
   -0.3197  -15.8581   19.3026 C   0  0  0  0  0  0  0  0  0  0  0  0
   -0.5008  -15.7623   17.7859 C   0  0  0  0  0  0  0  0  0  0  0  0
    7.2364  -18.7205   18.7141 N   0  0  0  0  0  0  0  0  0  0  0  0
    2.7666  -17.9911   19.8696 N   0  0  0  0  0  0  0  0  0  0  0  0
    6.8989  -18.6377   21.0605 N   0  0  0  0  0  0  0  0  0  0  0  0
    5.4046  -19.0417   17.4016 O   0  0  0  0  0  0  0  0  0  0  0  0
   -3.3866  -16.2989   15.9892 O   0  5  0  0  0  0  0  0  0  0  0  0
   -4.7133  -20.5497   16.8440 O   0  0  0  0  0  0  0  0  0  0  0  0
   -1.2336  -16.8769   17.2678 O   0  0  0  0  0  0  0  0  0  0  0  0
   -3.2489  -18.4962   17.2706 O   0  0  0  0  0  0  0  0  0  0  0  0
   -5.8145  -18.3150   17.5407 O   0  5  0  0  0  0  0  0  0  0  0  0
   -3.3683  -16.2818   18.5740 O   0  0  0  0  0  0  0  0  0  0  0  0
   -4.7639  -18.5727   15.2131 O   0  0  0  0  0  0  0  0  0  0  0  0
    2.1171  -15.7845   20.8315 S   0  0  0  0  0  0  0  0  0  0  0  0
   -2.8400  -16.9435   17.3589 P   0  0  2  0  0  0  0  0  0  0  0  0
   -4.7123  -18.9415   16.7772 P   0  0  2  0  0  0  0  0  0  0  0  0
  2 16  2  0  0  0  0
  2  3  1  0  0  0  0
  2 13  1  0  0  0  0
  3  8  2  0  0  0  0
  3  4  1  0  0  0  0
  4 14  1  0  0  0  0
  5  1  1  1  0  0  0
  5 14  1  0  0  0  0
  5 10  1  0  0  0  0
  6  7  1  0  0  0  0
  7 13  1  0  0  0  0
  7 15  2  0  0  0  0
  8 15  1  0  0  0  0
  9 14  1  0  0  0  0
  9 24  1  0  0  0  0
 10 24  1  0  0  0  0
 10 11  1  6  0  0  0
 11 12  1  0  0  0  0
 12 19  1  0  0  0  0
 17 25  1  0  0  0  0
 19 25  1  0  0  0  0
 20 26  1  0  0  0  0
 21 26  1  0  0  0  0
 22 25  2  0  0  0  0
 23 26  2  0  0  0  0
 25 20  1  1  0  0  0
 26 18  1  1  0  0  0
M  CHG  2  17  -1  21  -1
M  END
>  <CHROM.1>
-108.81115844,-50.34231054,94.14887814,147.31431539,80.23656027,-44.56686103
91.87793848,-179.60490092,0.67738808,-17.83222839,18.51117244,-0.12909556
0.24966373,-2.54297569

>  <Name>
ligand

>  <RI>
0

>  <Rbt.Current_Directory>
/home/itssahil/PROJECTS/Mol_Feturizer/New_Systems/rnas/3D2X

>  <Rbt.Executable>
rbdock ($Id: //depot/dev/client3/rdock/2013.1/src/exe/rbdock.cxx#4 $)

>  <Rbt.Library>
libRbt.so (2013.1, Build901 2013/11/27)

>  <Rbt.Parameter_File>
/export/apps/rDock/src/rDock_2013.1_src/data/scripts/dock_solv.prm

>  <Rbt.Receptor>
prm/blind_docking_40.prm

>  <SCORE>
-19.2188

>  <SCORE.INTER>
-22.7031

>  <SCORE.INTER.CONST>
1

>  <SCORE.INTER.POLAR>
0

>  <SCORE.INTER.ROT>
8

>  <SCORE.INTER.SOLV>
16.1728

>  <SCORE.INTER.VDW>
-29.4597

>  <SCORE.INTER.norm>
-0.873197

>  <SCORE.INTRA>
3.48432

>  <SCORE.INTRA.DIHEDRAL>
3.62395

>  <SCORE.INTRA.DIHEDRAL.0>
7.88077

>  <SCORE.INTRA.POLAR>
0

>  <SCORE.INTRA.POLAR.0>
0

>  <SCORE.INTRA.REPUL>
0

>  <SCORE.INTRA.REPUL.0>
0

>  <SCORE.INTRA.SOLV>
1.56715

>  <SCORE.INTRA.SOLV.lig_0>
-63.2542

>  <SCORE.INTRA.VDW>
0.888773

>  <SCORE.INTRA.VDW.0>
-3.15072

>  <SCORE.INTRA.norm>
0.134012

>  <SCORE.RESTR>
0

>  <SCORE.RESTR.CAVITY>
0

>  <SCORE.RESTR.norm>
0

>  <SCORE.SYSTEM>
0

>  <SCORE.SYSTEM.CONST>
0

>  <SCORE.SYSTEM.DIHEDRAL>
0

>  <SCORE.SYSTEM.SOLV>
0

>  <SCORE.SYSTEM.norm>
0

>  <SCORE.heavy>
26

>  <SCORE.norm>
-0.739184

>  <RMSD>
12.393

$$$$
ligand
 OpenBabel11021811473D
libRbt.so/2013.1/901 2013/11/27
 26 27  0  0  0  0  0  0  0  0999 V2000
    0.0519  -16.0651   18.7719 C   0  0  0  0  0  0  0  0  0  0  0  0
    4.8436  -17.7121   19.5556 C   0  0  0  0  0  0  0  0  0  0  0  0
    3.9103  -17.3603   20.5250 C   0  0  0  0  0  0  0  0  0  0  0  0
    2.5016  -16.8612   20.1944 C   0  0  0  0  0  0  0  0  0  0  0  0
    0.6988  -17.4457   18.6265 C   0  0  1  0  0  0  0  0  0  0  0  0
    7.7505  -18.8297   21.7542 C   0  0  0  0  0  0  0  0  0  0  0  0
    6.3878  -18.2960   21.3100 C   0  0  0  0  0  0  0  0  0  0  0  0
    4.2755  -17.4933   21.8608 C   0  0  0  0  0  0  0  0  0  0  0  0
    2.3005  -19.0055   19.0559 C   0  0  0  0  0  0  0  0  0  0  0  0
    0.1704  -18.4248   17.7938 C   0  0  2  0  0  0  0  0  0  0  0  0
   -1.0587  -18.4094   16.8813 C   0  0  0  0  0  0  0  0  0  0  0  0
   -0.9970  -19.4706   15.7803 C   0  0  0  0  0  0  0  0  0  0  0  0
    6.0983  -18.1866   19.9433 N   0  0  0  0  0  0  0  0  0  0  0  0
    1.8150  -17.7834   19.2784 N   0  0  0  0  0  0  0  0  0  0  0  0
    5.4645  -17.9435   22.2161 N   0  0  0  0  0  0  0  0  0  0  0  0
    4.5677  -17.6107   18.3600 O   0  0  0  0  0  0  0  0  0  0  0  0
   -4.1286  -17.9041   15.4557 O   0  5  0  0  0  0  0  0  0  0  0  0
   -5.5135  -22.0680   12.9551 O   0  0  0  0  0  0  0  0  0  0  0  0
   -2.0847  -19.3433   14.8592 O   0  0  0  0  0  0  0  0  0  0  0  0
   -4.4617  -20.0571   14.1354 O   0  0  0  0  0  0  0  0  0  0  0  0
   -3.0044  -21.5461   12.6033 O   0  5  0  0  0  0  0  0  0  0  0  0
   -3.7696  -20.1892   16.6093 O   0  0  0  0  0  0  0  0  0  0  0  0
   -3.8410  -22.4273   14.8642 O   0  0  0  0  0  0  0  0  0  0  0  0
    1.1942  -19.8210   17.9827 S   0  0  0  0  0  0  0  0  0  0  0  0
   -3.6165  -19.4262   15.3493 P   0  0  2  0  0  0  0  0  0  0  0  0
   -4.1280  -21.5227   13.5663 P   0  0  2  0  0  0  0  0  0  0  0  0
  2 16  2  0  0  0  0
  2  3  1  0  0  0  0
  2 13  1  0  0  0  0
  3  8  2  0  0  0  0
  3  4  1  0  0  0  0
  4 14  1  0  0  0  0
  5  1  1  6  0  0  0
  5 14  1  0  0  0  0
  5 10  1  0  0  0  0
  6  7  1  0  0  0  0
  7 13  1  0  0  0  0
  7 15  2  0  0  0  0
  8 15  1  0  0  0  0
  9 14  1  0  0  0  0
  9 24  1  0  0  0  0
 10 24  1  0  0  0  0
 10 11  1  1  0  0  0
 11 12  1  0  0  0  0
 12 19  1  0  0  0  0
 17 25  1  0  0  0  0
 19 25  1  0  0  0  0
 20 26  1  0  0  0  0
 21 26  1  0  0  0  0
 22 25  2  0  0  0  0
 23 26  2  0  0  0  0
 25 20  1  6  0  0  0
 26 18  1  6  0  0  0
M  CHG  2  17  -1  21  -1
M  END
>  <CHROM.1>
52.24299227,158.90059202,-173.82805859,-165.85691392,-58.37118235,172.20901646
99.85183285,152.91116416,0.05918195,-19.13126465,17.29220901,0.54242333,-0.40095398
0.58146178

>  <Name>
ligand

>  <RI>
0

>  <Rbt.Current_Directory>
/home/itssahil/PROJECTS/Mol_Feturizer/New_Systems/rnas/3D2X

>  <Rbt.Executable>
rbdock ($Id: //depot/dev/client3/rdock/2013.1/src/exe/rbdock.cxx#4 $)

>  <Rbt.Library>
libRbt.so (2013.1, Build901 2013/11/27)

>  <Rbt.Parameter_File>
/export/apps/rDock/src/rDock_2013.1_src/data/scripts/dock_solv.prm

>  <Rbt.Receptor>
prm/blind_docking_40.prm

>  <SCORE>
-17.2713

>  <SCORE.INTER>
-19.0584

>  <SCORE.INTER.CONST>
1

>  <SCORE.INTER.POLAR>
0

>  <SCORE.INTER.ROT>
8

>  <SCORE.INTER.SOLV>
17.6947

>  <SCORE.INTER.VDW>
-27.5372

>  <SCORE.INTER.norm>
-0.733017

>  <SCORE.INTRA>
1.78717

>  <SCORE.INTRA.DIHEDRAL>
-0.702494

>  <SCORE.INTRA.DIHEDRAL.0>
7.88077

>  <SCORE.INTRA.POLAR>
0

>  <SCORE.INTRA.POLAR.0>
0

>  <SCORE.INTRA.REPUL>
0

>  <SCORE.INTRA.REPUL.0>
0

>  <SCORE.INTRA.SOLV>
1.25709

>  <SCORE.INTRA.SOLV.lig_0>
-63.2542

>  <SCORE.INTRA.VDW>
1.50988

>  <SCORE.INTRA.VDW.0>
-3.15072

>  <SCORE.INTRA.norm>
0.0687374

>  <SCORE.RESTR>
0

>  <SCORE.RESTR.CAVITY>
0

>  <SCORE.RESTR.norm>
0

>  <SCORE.SYSTEM>
0

>  <SCORE.SYSTEM.CONST>
0

>  <SCORE.SYSTEM.DIHEDRAL>
0

>  <SCORE.SYSTEM.SOLV>
0

>  <SCORE.SYSTEM.norm>
0

>  <SCORE.heavy>
26

>  <SCORE.norm>
-0.664279

>  <RMSD>
12.416

$$$$
ligand
 OpenBabel11021811473D
libRbt.so/2013.1/901 2013/11/27
 26 27  0  0  0  0  0  0  0  0999 V2000
    0.0665  -16.1311   18.7937 C   0  0  0  0  0  0  0  0  0  0  0  0
    4.8284  -17.8117   20.9674 C   0  0  0  0  0  0  0  0  0  0  0  0
    4.0747  -17.6997   19.8038 C   0  0  0  0  0  0  0  0  0  0  0  0
    2.6480  -17.1460   19.7759 C   0  0  0  0  0  0  0  0  0  0  0  0
    0.6002  -17.5293   18.4683 C   0  0  1  0  0  0  0  0  0  0  0  0
    8.0908  -19.1921   19.5590 C   0  0  0  0  0  0  0  0  0  0  0  0
    6.6564  -18.6703   19.6541 C   0  0  0  0  0  0  0  0  0  0  0  0
    4.6626  -18.0916   18.6054 C   0  0  0  0  0  0  0  0  0  0  0  0
    2.1510  -19.1939   18.5535 C   0  0  0  0  0  0  0  0  0  0  0  0
   -0.1042  -18.4208   17.6679 C   0  0  2  0  0  0  0  0  0  0  0  0
   -1.4520  -18.2805   16.9558 C   0  0  0  0  0  0  0  0  0  0  0  0
   -1.8069  -19.5025   16.1055 C   0  0  0  0  0  0  0  0  0  0  0  0
    6.1346  -18.3009   20.9010 N   0  0  0  0  0  0  0  0  0  0  0  0
    1.7785  -17.9670   18.9209 N   0  0  0  0  0  0  0  0  0  0  0  0
    5.8987  -18.5523   18.5542 N   0  0  0  0  0  0  0  0  0  0  0  0
    4.3514  -17.4789   22.0525 O   0  0  0  0  0  0  0  0  0  0  0  0
   -2.7267  -22.4040   15.7770 O   0  5  0  0  0  0  0  0  0  0  0  0
   -5.7832  -19.5858   17.7113 O   0  0  0  0  0  0  0  0  0  0  0  0
   -3.1541  -19.9306   16.3282 O   0  0  0  0  0  0  0  0  0  0  0  0
   -5.0866  -21.6473   16.3664 O   0  0  0  0  0  0  0  0  0  0  0  0
   -6.7823  -19.9756   15.3571 O   0  5  0  0  0  0  0  0  0  0  0  0
   -4.0504  -20.9172   14.1281 O   0  0  0  0  0  0  0  0  0  0  0  0
   -7.4540  -21.4897   17.3179 O   0  0  0  0  0  0  0  0  0  0  0  0
    0.8503  -19.8765   17.6139 S   0  0  0  0  0  0  0  0  0  0  0  0
   -3.7722  -21.2006   15.5549 P   0  0  2  0  0  0  0  0  0  0  0  0
   -6.3051  -20.6251   16.5984 P   0  0  2  0  0  0  0  0  0  0  0  0
  2 16  2  0  0  0  0
  2  3  1  0  0  0  0
  2 13  1  0  0  0  0
  3  8  2  0  0  0  0
  3  4  1  0  0  0  0
  4 14  1  0  0  0  0
  5  1  1  6  0  0  0
  5 14  1  0  0  0  0
  5 10  1  0  0  0  0
  6  7  1  0  0  0  0
  7 13  1  0  0  0  0
  7 15  2  0  0  0  0
  8 15  1  0  0  0  0
  9 14  1  0  0  0  0
  9 24  1  0  0  0  0
 10 24  1  0  0  0  0
 10 11  1  1  0  0  0
 11 12  1  0  0  0  0
 12 19  1  0  0  0  0
 17 25  1  0  0  0  0
 19 25  1  0  0  0  0
 20 26  1  0  0  0  0
 21 26  1  0  0  0  0
 22 25  2  0  0  0  0
 23 26  2  0  0  0  0
 25 20  1  1  0  0  0
 26 18  1  1  0  0  0
M  CHG  2  17  -1  21  -1
M  END
>  <CHROM.1>
-136.37907255,176.57111553,133.11959766,-163.14303022,-179.86386146,170.44818400
51.57566184,-73.69309984,-0.46073927,-19.38686809,17.75771001,0.40454753
-0.08133048,0.76844235

>  <Name>
ligand

>  <RI>
0

>  <Rbt.Current_Directory>
/home/itssahil/PROJECTS/Mol_Feturizer/New_Systems/rnas/3D2X

>  <Rbt.Executable>
rbdock ($Id: //depot/dev/client3/rdock/2013.1/src/exe/rbdock.cxx#4 $)

>  <Rbt.Library>
libRbt.so (2013.1, Build901 2013/11/27)

>  <Rbt.Parameter_File>
/export/apps/rDock/src/rDock_2013.1_src/data/scripts/dock_solv.prm

>  <Rbt.Receptor>
prm/blind_docking_40.prm

>  <SCORE>
-20.9255

>  <SCORE.INTER>
-22.3903

>  <SCORE.INTER.CONST>
1

>  <SCORE.INTER.POLAR>
0

>  <SCORE.INTER.ROT>
8

>  <SCORE.INTER.SOLV>
19.3292

>  <SCORE.INTER.VDW>
-30.3033

>  <SCORE.INTER.norm>
-0.861165

>  <SCORE.INTRA>
1.46478

>  <SCORE.INTRA.DIHEDRAL>
2.04204

>  <SCORE.INTRA.DIHEDRAL.0>
7.88077

>  <SCORE.INTRA.POLAR>
0

>  <SCORE.INTRA.POLAR.0>
0

>  <SCORE.INTRA.REPUL>
0

>  <SCORE.INTRA.REPUL.0>
0

>  <SCORE.INTRA.SOLV>
-2.50158

>  <SCORE.INTRA.SOLV.lig_0>
-63.2542

>  <SCORE.INTRA.VDW>
1.69455

>  <SCORE.INTRA.VDW.0>
-3.15072

>  <SCORE.INTRA.norm>
0.0563376

>  <SCORE.RESTR>
0

>  <SCORE.RESTR.CAVITY>
0

>  <SCORE.RESTR.norm>
0

>  <SCORE.SYSTEM>
0

>  <SCORE.SYSTEM.CONST>
0

>  <SCORE.SYSTEM.DIHEDRAL>
0

>  <SCORE.SYSTEM.SOLV>
0

>  <SCORE.SYSTEM.norm>
0

>  <SCORE.heavy>
26

>  <SCORE.norm>
-0.804828

>  <RMSD>
12.432

$$$$
ligand
 OpenBabel11021811473D
libRbt.so/2013.1/901 2013/11/27
 26 27  0  0  0  0  0  0  0  0999 V2000
    1.3616  -16.0294   20.1677 C   0  0  0  0  0  0  0  0  0  0  0  0
    5.3343  -19.5396   20.0265 C   0  0  0  0  0  0  0  0  0  0  0  0
    4.8494  -18.2963   20.4187 C   0  0  0  0  0  0  0  0  0  0  0  0
    3.3949  -18.0516   20.8275 C   0  0  0  0  0  0  0  0  0  0  0  0
    1.5537  -17.3219   19.3689 C   0  0  1  0  0  0  0  0  0  0  0  0
    9.0053  -18.7033   19.4286 C   0  0  0  0  0  0  0  0  0  0  0  0
    7.5210  -18.5621   19.7693 C   0  0  0  0  0  0  0  0  0  0  0  0
    5.7434  -17.2311   20.4609 C   0  0  0  0  0  0  0  0  0  0  0  0
    2.5781  -19.3007   18.9020 C   0  0  0  0  0  0  0  0  0  0  0  0
    0.7764  -17.6255   18.2575 C   0  0  2  0  0  0  0  0  0  0  0  0
   -0.3559  -16.8474   17.5823 C   0  0  0  0  0  0  0  0  0  0  0  0
   -1.6159  -17.6905   17.3723 C   0  0  0  0  0  0  0  0  0  0  0  0
    6.6836  -19.6832   19.6969 N   0  0  0  0  0  0  0  0  0  0  0  0
    2.4877  -18.2237   19.6836 N   0  0  0  0  0  0  0  0  0  0  0  0
    7.0172  -17.3785   20.1476 N   0  0  0  0  0  0  0  0  0  0  0  0
    4.5817  -20.5124   19.9723 O   0  0  0  0  0  0  0  0  0  0  0  0
   -4.8150  -16.5893   15.3720 O   0  5  0  0  0  0  0  0  0  0  0  0
   -1.6079  -20.1631   15.7633 O   0  0  0  0  0  0  0  0  0  0  0  0
   -2.5605  -17.0303   16.5241 O   0  0  0  0  0  0  0  0  0  0  0  0
   -3.6078  -18.7921   14.9485 O   0  0  0  0  0  0  0  0  0  0  0  0
   -4.0096  -20.9561   16.3066 O   0  5  0  0  0  0  0  0  0  0  0  0
   -4.6446  -18.3466   17.2600 O   0  0  0  0  0  0  0  0  0  0  0  0
   -3.1181  -21.0726   13.9024 O   0  0  0  0  0  0  0  0  0  0  0  0
    1.3105  -19.1901   17.7097 S   0  0  0  0  0  0  0  0  0  0  0  0
   -3.9495  -17.7302   16.1067 P   0  0  2  0  0  0  0  0  0  0  0  0
   -3.1460  -20.2895   15.3064 P   0  0  2  0  0  0  0  0  0  0  0  0
  2 16  2  0  0  0  0
  2  3  1  0  0  0  0
  2 13  1  0  0  0  0
  3  8  2  0  0  0  0
  3  4  1  0  0  0  0
  4 14  1  0  0  0  0
  5  1  1  6  0  0  0
  5 14  1  0  0  0  0
  5 10  1  0  0  0  0
  6  7  1  0  0  0  0
  7 13  1  0  0  0  0
  7 15  2  0  0  0  0
  8 15  1  0  0  0  0
  9 14  1  0  0  0  0
  9 24  1  0  0  0  0
 10 24  1  0  0  0  0
 10 11  1  1  0  0  0
 11 12  1  0  0  0  0
 12 19  1  0  0  0  0
 17 25  1  0  0  0  0
 19 25  1  0  0  0  0
 20 26  1  0  0  0  0
 21 26  1  0  0  0  0
 22 25  2  0  0  0  0
 23 26  2  0  0  0  0
 25 20  1  6  0  0  0
 26 18  1  1  0  0  0
M  CHG  2  17  -1  21  -1
M  END
>  <CHROM.1>
-66.82758855,-128.72866631,-169.05567265,-130.97476411,177.88562109,-161.46456851
170.78013026,-76.71817342,0.59223811,-18.60397100,17.80124906,0.22604715
-0.35604052,0.50453126

>  <Name>
ligand

>  <RI>
0

>  <Rbt.Current_Directory>
/home/itssahil/PROJECTS/Mol_Feturizer/New_Systems/rnas/3D2X

>  <Rbt.Executable>
rbdock ($Id: //depot/dev/client3/rdock/2013.1/src/exe/rbdock.cxx#4 $)

>  <Rbt.Library>
libRbt.so (2013.1, Build901 2013/11/27)

>  <Rbt.Parameter_File>
/export/apps/rDock/src/rDock_2013.1_src/data/scripts/dock_solv.prm

>  <Rbt.Receptor>
prm/blind_docking_60.prm

>  <SCORE>
-18.9854

>  <SCORE.INTER>
-18.1436

>  <SCORE.INTER.CONST>
1

>  <SCORE.INTER.POLAR>
0

>  <SCORE.INTER.ROT>
8

>  <SCORE.INTER.SOLV>
14.7786

>  <SCORE.INTER.VDW>
-25.9553

>  <SCORE.INTER.norm>
-0.697832

>  <SCORE.INTRA>
-0.854702

>  <SCORE.INTRA.DIHEDRAL>
-0.928955

>  <SCORE.INTRA.DIHEDRAL.0>
7.88077

>  <SCORE.INTRA.POLAR>
0

>  <SCORE.INTRA.POLAR.0>
0

>  <SCORE.INTRA.REPUL>
0

>  <SCORE.INTRA.REPUL.0>
0

>  <SCORE.INTRA.SOLV>
-1.73519

>  <SCORE.INTRA.SOLV.lig_0>
-63.2542

>  <SCORE.INTRA.VDW>
0.477373

>  <SCORE.INTRA.VDW.0>
-3.15072

>  <SCORE.INTRA.norm>
-0.0328731

>  <SCORE.RESTR>
0.0129111

>  <SCORE.RESTR.CAVITY>
0.0129111

>  <SCORE.RESTR.norm>
0.000496582

>  <SCORE.SYSTEM>
0

>  <SCORE.SYSTEM.CONST>
0

>  <SCORE.SYSTEM.DIHEDRAL>
0

>  <SCORE.SYSTEM.SOLV>
0

>  <SCORE.SYSTEM.norm>
0

>  <SCORE.heavy>
26

>  <SCORE.norm>
-0.730208

>  <RMSD>
12.436

$$$$
ligand
 OpenBabel11021811473D
libRbt.so/2013.1/901 2013/11/27
 26 27  0  0  0  0  0  0  0  0999 V2000
    0.5984  -18.8292   18.2659 C   0  0  0  0  0  0  0  0  0  0  0  0
    5.9078  -18.8164   18.6151 C   0  0  0  0  0  0  0  0  0  0  0  0
    4.8639  -18.8100   19.5344 C   0  0  0  0  0  0  0  0  0  0  0  0
    3.3995  -19.0266   19.1455 C   0  0  0  0  0  0  0  0  0  0  0  0
    1.3281  -17.7071   19.0102 C   0  0  1  0  0  0  0  0  0  0  0  0
    8.8863  -18.2799   20.9331 C   0  0  0  0  0  0  0  0  0  0  0  0
    7.4540  -18.4580   20.4273 C   0  0  0  0  0  0  0  0  0  0  0  0
    5.1776  -18.6190   20.8762 C   0  0  0  0  0  0  0  0  0  0  0  0
    3.1235  -16.7881   20.0662 C   0  0  0  0  0  0  0  0  0  0  0  0
    0.7044  -16.5079   19.3332 C   0  0  2  0  0  0  0  0  0  0  0  0
   -0.7241  -16.0197   19.0790 C   0  0  0  0  0  0  0  0  0  0  0  0
   -1.3747  -16.6865   17.8648 C   0  0  0  0  0  0  0  0  0  0  0  0
    7.2203  -18.6397   19.0577 N   0  0  0  0  0  0  0  0  0  0  0  0
    2.5992  -17.8211   19.4051 N   0  0  0  0  0  0  0  0  0  0  0  0
    6.4222  -18.4535   21.2836 N   0  0  0  0  0  0  0  0  0  0  0  0
    5.6805  -18.9805   17.4163 O   0  0  0  0  0  0  0  0  0  0  0  0
   -3.3118  -16.7969   15.3826 O   0  5  0  0  0  0  0  0  0  0  0  0
   -5.4726  -20.1580   16.9981 O   0  0  0  0  0  0  0  0  0  0  0  0
   -2.7997  -16.5589   17.8897 O   0  0  0  0  0  0  0  0  0  0  0  0
   -3.2620  -18.8796   16.8485 O   0  0  0  0  0  0  0  0  0  0  0  0
   -4.3846  -19.7490   14.6870 O   0  5  0  0  0  0  0  0  0  0  0  0
   -5.1764  -17.1848   17.1302 O   0  0  0  0  0  0  0  0  0  0  0  0
   -3.3177  -21.3864   16.3510 O   0  0  0  0  0  0  0  0  0  0  0  0
    1.9143  -15.5328   20.1196 S   0  0  0  0  0  0  0  0  0  0  0  0
   -3.7333  -17.3422   16.8370 P   0  0  2  0  0  0  0  0  0  0  0  0
   -4.1309  -20.0187   16.1199 P   0  0  2  0  0  0  0  0  0  0  0  0
  2 16  2  0  0  0  0
  2  3  1  0  0  0  0
  2 13  1  0  0  0  0
  3  8  2  0  0  0  0
  3  4  1  0  0  0  0
  4 14  1  0  0  0  0
  5  1  1  1  0  0  0
  5 14  1  0  0  0  0
  5 10  1  0  0  0  0
  6  7  1  0  0  0  0
  7 13  1  0  0  0  0
  7 15  2  0  0  0  0
  8 15  1  0  0  0  0
  9 14  1  0  0  0  0
  9 24  1  0  0  0  0
 10 24  1  0  0  0  0
 10 11  1  6  0  0  0
 11 12  1  0  0  0  0
 12 19  1  0  0  0  0
 17 25  1  0  0  0  0
 19 25  1  0  0  0  0
 20 26  1  0  0  0  0
 21 26  1  0  0  0  0
 22 25  2  0  0  0  0
 23 26  2  0  0  0  0
 25 20  1  1  0  0  0
 26 18  1  1  0  0  0
M  CHG  2  17  -1  21  -1
M  END
>  <CHROM.1>
-115.14741723,-26.07824133,161.33865572,172.22877405,-171.56618984,-78.95178355
-61.63900457,-69.13866272,0.46743442,-18.11496947,18.22206800,-0.19161060
0.27918589,-2.66925415

>  <Name>
ligand

>  <RI>
0

>  <Rbt.Current_Directory>
/home/itssahil/PROJECTS/Mol_Feturizer/New_Systems/rnas/3D2X

>  <Rbt.Executable>
rbdock ($Id: //depot/dev/client3/rdock/2013.1/src/exe/rbdock.cxx#4 $)

>  <Rbt.Library>
libRbt.so (2013.1, Build901 2013/11/27)

>  <Rbt.Parameter_File>
/export/apps/rDock/src/rDock_2013.1_src/data/scripts/dock_solv.prm

>  <Rbt.Receptor>
prm/blind_docking_40.prm

>  <SCORE>
-19.6701

>  <SCORE.INTER>
-21.3822

>  <SCORE.INTER.CONST>
1

>  <SCORE.INTER.POLAR>
0

>  <SCORE.INTER.ROT>
8

>  <SCORE.INTER.SOLV>
14.956

>  <SCORE.INTER.VDW>
-28.1735

>  <SCORE.INTER.norm>
-0.822393

>  <SCORE.INTRA>
1.71207

>  <SCORE.INTRA.DIHEDRAL>
-0.831816

>  <SCORE.INTRA.DIHEDRAL.0>
7.88077

>  <SCORE.INTRA.POLAR>
0

>  <SCORE.INTRA.POLAR.0>
0

>  <SCORE.INTRA.REPUL>
0

>  <SCORE.INTRA.REPUL.0>
0

>  <SCORE.INTRA.SOLV>
-1.49122

>  <SCORE.INTRA.SOLV.lig_0>
-63.2542

>  <SCORE.INTRA.VDW>
2.87359

>  <SCORE.INTRA.VDW.0>
-3.15072

>  <SCORE.INTRA.norm>
0.0658489

>  <SCORE.RESTR>
0

>  <SCORE.RESTR.CAVITY>
0

>  <SCORE.RESTR.norm>
0

>  <SCORE.SYSTEM>
0

>  <SCORE.SYSTEM.CONST>
0

>  <SCORE.SYSTEM.DIHEDRAL>
0

>  <SCORE.SYSTEM.SOLV>
0

>  <SCORE.SYSTEM.norm>
0

>  <SCORE.heavy>
26

>  <SCORE.norm>
-0.756544

>  <RMSD>
12.444

$$$$
ligand
 OpenBabel11021811473D
libRbt.so/2013.1/901 2013/11/27
 26 27  0  0  0  0  0  0  0  0999 V2000
    0.7775  -15.4212   19.9948 C   0  0  0  0  0  0  0  0  0  0  0  0
    5.1522  -17.7525   19.6165 C   0  0  0  0  0  0  0  0  0  0  0  0
    4.5370  -17.4929   20.8367 C   0  0  0  0  0  0  0  0  0  0  0  0
    3.1320  -16.8986   20.9607 C   0  0  0  0  0  0  0  0  0  0  0  0
    1.1449  -16.8277   19.5126 C   0  0  1  0  0  0  0  0  0  0  0  0
    8.4461  -19.2635   20.7997 C   0  0  0  0  0  0  0  0  0  0  0  0
    7.0577  -18.6220   20.8066 C   0  0  0  0  0  0  0  0  0  0  0  0
    5.2316  -17.8136   21.9987 C   0  0  0  0  0  0  0  0  0  0  0  0
    2.4557  -18.6882   19.4523 C   0  0  0  0  0  0  0  0  0  0  0  0
    0.3860  -17.5056   18.5661 C   0  0  2  0  0  0  0  0  0  0  0  0
   -0.8807  -17.0919   17.8125 C   0  0  0  0  0  0  0  0  0  0  0  0
   -1.4559  -18.2181   16.9504 C   0  0  0  0  0  0  0  0  0  0  0  0
    6.4261  -18.3236   19.5918 N   0  0  0  0  0  0  0  0  0  0  0  0
    2.2226  -17.4775   19.9612 N   0  0  0  0  0  0  0  0  0  0  0  0
    6.4355  -18.3538   21.9636 N   0  0  0  0  0  0  0  0  0  0  0  0
    4.5782  -17.4850   18.5607 O   0  0  0  0  0  0  0  0  0  0  0  0
   -3.0093  -18.6125   14.0499 O   0  5  0  0  0  0  0  0  0  0  0  0
   -3.0693  -21.3277   13.4694 O   0  0  0  0  0  0  0  0  0  0  0  0
   -2.7881  -17.9265   16.5167 O   0  0  0  0  0  0  0  0  0  0  0  0
   -3.0937  -20.4071   15.8559 O   0  0  0  0  0  0  0  0  0  0  0  0
   -3.1076  -22.9646   15.4722 O   0  5  0  0  0  0  0  0  0  0  0  0
   -5.0536  -18.7571   15.6253 O   0  0  0  0  0  0  0  0  0  0  0  0
   -5.1759  -21.5514   14.9127 O   0  0  0  0  0  0  0  0  0  0  0  0
    1.1437  -19.0609   18.3659 S   0  0  0  0  0  0  0  0  0  0  0  0
   -3.5843  -18.9123   15.5230 P   0  0  2  0  0  0  0  0  0  0  0  0
   -3.5722  -21.6550   14.9630 P   0  0  2  0  0  0  0  0  0  0  0  0
  2 16  2  0  0  0  0
  2  3  1  0  0  0  0
  2 13  1  0  0  0  0
  3  8  2  0  0  0  0
  3  4  1  0  0  0  0
  4 14  1  0  0  0  0
  5  1  1  6  0  0  0
  5 14  1  0  0  0  0
  5 10  1  0  0  0  0
  6  7  1  0  0  0  0
  7 13  1  0  0  0  0
  7 15  2  0  0  0  0
  8 15  1  0  0  0  0
  9 14  1  0  0  0  0
  9 24  1  0  0  0  0
 10 24  1  0  0  0  0
 10 11  1  1  0  0  0
 11 12  1  0  0  0  0
 12 19  1  0  0  0  0
 17 25  1  0  0  0  0
 19 25  1  0  0  0  0
 20 26  1  0  0  0  0
 21 26  1  0  0  0  0
 22 25  2  0  0  0  0
 23 26  2  0  0  0  0
 25 20  1  1  0  0  0
 26 18  1  6  0  0  0
M  CHG  2  17  -1  21  -1
M  END
>  <CHROM.1>
40.34449300,-174.56972355,166.04244314,-154.20930213,176.25954009,-62.05469396
-78.71485612,59.25754793,0.37233582,-18.85108161,17.77995625,0.43486779,-0.39587728
0.46777487

>  <Name>
ligand

>  <RI>
0

>  <Rbt.Current_Directory>
/home/itssahil/PROJECTS/Mol_Feturizer/New_Systems/rnas/3D2X

>  <Rbt.Executable>
rbdock ($Id: //depot/dev/client3/rdock/2013.1/src/exe/rbdock.cxx#4 $)

>  <Rbt.Library>
libRbt.so (2013.1, Build901 2013/11/27)

>  <Rbt.Parameter_File>
/export/apps/rDock/src/rDock_2013.1_src/data/scripts/dock_solv.prm

>  <Rbt.Receptor>
prm/blind_docking_100.prm

>  <SCORE>
-19.0012

>  <SCORE.INTER>
-19.9709

>  <SCORE.INTER.CONST>
1

>  <SCORE.INTER.POLAR>
0

>  <SCORE.INTER.ROT>
8

>  <SCORE.INTER.SOLV>
13.0498

>  <SCORE.INTER.VDW>
-26.5972

>  <SCORE.INTER.norm>
-0.768112

>  <SCORE.INTRA>
0.969736

>  <SCORE.INTRA.DIHEDRAL>
-1.60702

>  <SCORE.INTRA.DIHEDRAL.0>
7.88077

>  <SCORE.INTRA.POLAR>
0

>  <SCORE.INTRA.POLAR.0>
0

>  <SCORE.INTRA.REPUL>
0

>  <SCORE.INTRA.REPUL.0>
0

>  <SCORE.INTRA.SOLV>
-0.551617

>  <SCORE.INTRA.SOLV.lig_0>
-63.2542

>  <SCORE.INTRA.VDW>
2.04905

>  <SCORE.INTRA.VDW.0>
-3.15072

>  <SCORE.INTRA.norm>
0.0372975

>  <SCORE.RESTR>
0

>  <SCORE.RESTR.CAVITY>
0

>  <SCORE.RESTR.norm>
0

>  <SCORE.SYSTEM>
0

>  <SCORE.SYSTEM.CONST>
0

>  <SCORE.SYSTEM.DIHEDRAL>
0

>  <SCORE.SYSTEM.SOLV>
0

>  <SCORE.SYSTEM.norm>
0

>  <SCORE.heavy>
26

>  <SCORE.norm>
-0.730814

>  <RMSD>
12.459

$$$$
ligand
 OpenBabel11021811473D
libRbt.so/2013.1/901 2013/11/27
 26 27  0  0  0  0  0  0  0  0999 V2000
    1.0462  -19.5099   17.2156 C   0  0  0  0  0  0  0  0  0  0  0  0
    5.8867  -18.7652   18.8633 C   0  0  0  0  0  0  0  0  0  0  0  0
    4.7465  -19.0923   19.5897 C   0  0  0  0  0  0  0  0  0  0  0  0
    3.4310  -19.5274   18.9394 C   0  0  0  0  0  0  0  0  0  0  0  0
    1.3223  -18.4453   18.2815 C   0  0  1  0  0  0  0  0  0  0  0  0
    8.3270  -18.0082   21.6925 C   0  0  0  0  0  0  0  0  0  0  0  0
    7.0508  -18.3827   20.9373 C   0  0  0  0  0  0  0  0  0  0  0  0
    4.8204  -19.0408   20.9780 C   0  0  0  0  0  0  0  0  0  0  0  0
    2.5331  -17.5093   19.9670 C   0  0  0  0  0  0  0  0  0  0  0  0
    0.4479  -17.3909   18.5160 C   0  0  2  0  0  0  0  0  0  0  0  0
   -0.8898  -17.0328   17.8634 C   0  0  0  0  0  0  0  0  0  0  0  0
   -1.5696  -18.2329   17.2000 C   0  0  0  0  0  0  0  0  0  0  0  0
    7.0562  -18.4058   19.5363 N   0  0  0  0  0  0  0  0  0  0  0  0
    2.4097  -18.4766   19.0570 N   0  0  0  0  0  0  0  0  0  0  0  0
    5.9316  -18.7002   21.6039 N   0  0  0  0  0  0  0  0  0  0  0  0
    5.8704  -18.7946   17.6326 O   0  0  0  0  0  0  0  0  0  0  0  0
   -3.4835  -20.3709   16.4959 O   0  5  0  0  0  0  0  0  0  0  0  0
   -6.5601  -20.3079   17.4521 O   0  0  0  0  0  0  0  0  0  0  0  0
   -2.8483  -17.8861   16.6594 O   0  0  0  0  0  0  0  0  0  0  0  0
   -5.2607  -18.5982   16.0622 O   0  0  0  0  0  0  0  0  0  0  0  0
   -7.6560  -19.2671   15.3526 O   0  5  0  0  0  0  0  0  0  0  0  0
   -3.3592  -18.9203   14.3601 O   0  0  0  0  0  0  0  0  0  0  0  0
   -5.7139  -20.9281   15.1133 O   0  0  0  0  0  0  0  0  0  0  0  0
    1.1845  -16.4230   19.7625 S   0  0  0  0  0  0  0  0  0  0  0  0
   -3.7114  -18.9384   15.7985 P   0  0  2  0  0  0  0  0  0  0  0  0
   -6.3895  -19.7376   15.9567 P   0  0  2  0  0  0  0  0  0  0  0  0
  2 16  2  0  0  0  0
  2  3  1  0  0  0  0
  2 13  1  0  0  0  0
  3  8  2  0  0  0  0
  3  4  1  0  0  0  0
  4 14  1  0  0  0  0
  5  1  1  1  0  0  0
  5 14  1  0  0  0  0
  5 10  1  0  0  0  0
  6  7  1  0  0  0  0
  7 13  1  0  0  0  0
  7 15  2  0  0  0  0
  8 15  1  0  0  0  0
  9 14  1  0  0  0  0
  9 24  1  0  0  0  0
 10 24  1  0  0  0  0
 10 11  1  6  0  0  0
 11 12  1  0  0  0  0
 12 19  1  0  0  0  0
 17 25  1  0  0  0  0
 19 25  1  0  0  0  0
 20 26  1  0  0  0  0
 21 26  1  0  0  0  0
 22 25  2  0  0  0  0
 23 26  2  0  0  0  0
 25 20  1  1  0  0  0
 26 18  1  1  0  0  0
M  CHG  2  17  -1  21  -1
M  END
>  <CHROM.1>
-108.34952847,22.26248420,176.96218921,161.41770709,174.66491359,-40.08758535
37.66336281,92.98353612,-0.11148830,-18.70709314,17.88425599,-0.32708280
0.18566742,-2.32640107

>  <Name>
ligand

>  <RI>
0

>  <Rbt.Current_Directory>
/home/itssahil/PROJECTS/Mol_Feturizer/New_Systems/rnas/3D2X

>  <Rbt.Executable>
rbdock ($Id: //depot/dev/client3/rdock/2013.1/src/exe/rbdock.cxx#4 $)

>  <Rbt.Library>
libRbt.so (2013.1, Build901 2013/11/27)

>  <Rbt.Parameter_File>
/export/apps/rDock/src/rDock_2013.1_src/data/scripts/dock_solv.prm

>  <Rbt.Receptor>
prm/blind_docking_40.prm

>  <SCORE>
-16.9467

>  <SCORE.INTER>
-21.0814

>  <SCORE.INTER.CONST>
1

>  <SCORE.INTER.POLAR>
0

>  <SCORE.INTER.ROT>
8

>  <SCORE.INTER.SOLV>
18.4707

>  <SCORE.INTER.VDW>
-29.1445

>  <SCORE.INTER.norm>
-0.810822

>  <SCORE.INTRA>
4.13465

>  <SCORE.INTRA.DIHEDRAL>
0.709668

>  <SCORE.INTRA.DIHEDRAL.0>
7.88077

>  <SCORE.INTRA.POLAR>
0

>  <SCORE.INTRA.POLAR.0>
0

>  <SCORE.INTRA.REPUL>
0

>  <SCORE.INTRA.REPUL.0>
0

>  <SCORE.INTRA.SOLV>
0.217848

>  <SCORE.INTRA.SOLV.lig_0>
-63.2542

>  <SCORE.INTRA.VDW>
3.6709

>  <SCORE.INTRA.VDW.0>
-3.15072

>  <SCORE.INTRA.norm>
0.159025

>  <SCORE.RESTR>
0

>  <SCORE.RESTR.CAVITY>
0

>  <SCORE.RESTR.norm>
0

>  <SCORE.SYSTEM>
0

>  <SCORE.SYSTEM.CONST>
0

>  <SCORE.SYSTEM.DIHEDRAL>
0

>  <SCORE.SYSTEM.SOLV>
0

>  <SCORE.SYSTEM.norm>
0

>  <SCORE.heavy>
26

>  <SCORE.norm>
-0.651797

>  <RMSD>
12.562

$$$$
ligand
 OpenBabel11021811473D
libRbt.so/2013.1/901 2013/11/27
 26 27  0  0  0  0  0  0  0  0999 V2000
    1.4007  -19.2583   17.7251 C   0  0  0  0  0  0  0  0  0  0  0  0
    6.0110  -19.0152   18.4587 C   0  0  0  0  0  0  0  0  0  0  0  0
    5.2130  -19.2462   19.5743 C   0  0  0  0  0  0  0  0  0  0  0  0
    3.7309  -19.6177   19.4857 C   0  0  0  0  0  0  0  0  0  0  0  0
    1.8204  -18.2358   18.7853 C   0  0  1  0  0  0  0  0  0  0  0  0
    9.3675  -18.3243   20.1289 C   0  0  0  0  0  0  0  0  0  0  0  0
    7.8852  -18.6412   19.9253 C   0  0  0  0  0  0  0  0  0  0  0  0
    5.8051  -19.1554   20.8300 C   0  0  0  0  0  0  0  0  0  0  0  0
    3.1356  -17.4752   20.4808 C   0  0  0  0  0  0  0  0  0  0  0  0
    1.1131  -17.0583   18.9965 C   0  0  2  0  0  0  0  0  0  0  0  0
   -0.1454  -16.5089   18.3199 C   0  0  0  0  0  0  0  0  0  0  0  0
   -1.1556  -17.6017   17.9627 C   0  0  0  0  0  0  0  0  0  0  0  0
    7.3631  -18.7092   18.6268 N   0  0  0  0  0  0  0  0  0  0  0  0
    2.8795  -18.4229   19.5779 N   0  0  0  0  0  0  0  0  0  0  0  0
    7.0846  -18.8660   20.9771 N   0  0  0  0  0  0  0  0  0  0  0  0
    5.5325  -19.0826   17.3263 O   0  0  0  0  0  0  0  0  0  0  0  0
   -2.4700  -19.5829   16.2453 O   0  5  0  0  0  0  0  0  0  0  0  0
   -5.2528  -20.6308   16.7289 O   0  0  0  0  0  0  0  0  0  0  0  0
   -2.1031  -17.1507   16.9898 O   0  0  0  0  0  0  0  0  0  0  0  0
   -4.3437  -18.3531   17.4561 O   0  0  0  0  0  0  0  0  0  0  0  0
   -6.7230  -19.0683   18.1742 O   0  5  0  0  0  0  0  0  0  0  0  0
   -3.7237  -17.6594   15.0580 O   0  0  0  0  0  0  0  0  0  0  0  0
   -6.2218  -18.4797   15.7266 O   0  0  0  0  0  0  0  0  0  0  0  0
    1.9706  -16.1992   20.2454 S   0  0  0  0  0  0  0  0  0  0  0  0
   -3.1934  -18.1490   16.3511 P   0  0  2  0  0  0  0  0  0  0  0  0
   -5.7045  -19.1318   17.1023 P   0  0  2  0  0  0  0  0  0  0  0  0
  2 16  2  0  0  0  0
  2  3  1  0  0  0  0
  2 13  1  0  0  0  0
  3  8  2  0  0  0  0
  3  4  1  0  0  0  0
  4 14  1  0  0  0  0
  5  1  1  1  0  0  0
  5 14  1  0  0  0  0
  5 10  1  0  0  0  0
  6  7  1  0  0  0  0
  7 13  1  0  0  0  0
  7 15  2  0  0  0  0
  8 15  1  0  0  0  0
  9 14  1  0  0  0  0
  9 24  1  0  0  0  0
 10 24  1  0  0  0  0
 10 11  1  6  0  0  0
 11 12  1  0  0  0  0
 12 19  1  0  0  0  0
 17 25  1  0  0  0  0
 19 25  1  0  0  0  0
 20 26  1  0  0  0  0
 21 26  1  0  0  0  0
 22 25  2  0  0  0  0
 23 26  2  0  0  0  0
 25 20  1  1  0  0  0
 26 18  1  6  0  0  0
M  CHG  2  17  -1  21  -1
M  END
>  <CHROM.1>
-93.65595933,36.42483487,-162.00050333,136.89881159,174.64406882,-76.28849245
-34.36442082,62.72848514,0.46045730,-18.38069337,18.20555690,-0.19524535
0.17509865,-2.35527285

>  <Name>
ligand

>  <RI>
0

>  <Rbt.Current_Directory>
/home/itssahil/PROJECTS/Mol_Feturizer/New_Systems/rnas/3D2X

>  <Rbt.Executable>
rbdock ($Id: //depot/dev/client3/rdock/2013.1/src/exe/rbdock.cxx#4 $)

>  <Rbt.Library>
libRbt.so (2013.1, Build901 2013/11/27)

>  <Rbt.Parameter_File>
/export/apps/rDock/src/rDock_2013.1_src/data/scripts/dock_solv.prm

>  <Rbt.Receptor>
prm/blind_docking_80.prm

>  <SCORE>
-20.6921

>  <SCORE.INTER>
-21.2704

>  <SCORE.INTER.CONST>
1

>  <SCORE.INTER.POLAR>
0

>  <SCORE.INTER.ROT>
8

>  <SCORE.INTER.SOLV>
20.6809

>  <SCORE.INTER.VDW>
-30.0072

>  <SCORE.INTER.norm>
-0.818092

>  <SCORE.INTRA>
0.578325

>  <SCORE.INTRA.DIHEDRAL>
-0.825907

>  <SCORE.INTRA.DIHEDRAL.0>
7.88077

>  <SCORE.INTRA.POLAR>
0

>  <SCORE.INTRA.POLAR.0>
0

>  <SCORE.INTRA.REPUL>
0

>  <SCORE.INTRA.REPUL.0>
0

>  <SCORE.INTRA.SOLV>
-0.451924

>  <SCORE.INTRA.SOLV.lig_0>
-63.2542

>  <SCORE.INTRA.VDW>
1.21724

>  <SCORE.INTRA.VDW.0>
-3.15072

>  <SCORE.INTRA.norm>
0.0222433

>  <SCORE.RESTR>
0

>  <SCORE.RESTR.CAVITY>
0

>  <SCORE.RESTR.norm>
0

>  <SCORE.SYSTEM>
0

>  <SCORE.SYSTEM.CONST>
0

>  <SCORE.SYSTEM.DIHEDRAL>
0

>  <SCORE.SYSTEM.SOLV>
0

>  <SCORE.SYSTEM.norm>
0

>  <SCORE.heavy>
26

>  <SCORE.norm>
-0.795849

>  <RMSD>
12.740

$$$$
ligand
 OpenBabel11021811473D
libRbt.so/2013.1/901 2013/11/27
 26 27  0  0  0  0  0  0  0  0999 V2000
    1.3543  -16.0069   19.9562 C   0  0  0  0  0  0  0  0  0  0  0  0
    5.6142  -18.7346   18.9356 C   0  0  0  0  0  0  0  0  0  0  0  0
    5.0326  -18.4840   20.1740 C   0  0  0  0  0  0  0  0  0  0  0  0
    3.7821  -17.6207   20.3567 C   0  0  0  0  0  0  0  0  0  0  0  0
    1.5725  -17.3754   19.3040 C   0  0  1  0  0  0  0  0  0  0  0  0
    8.4783  -21.0332   19.9584 C   0  0  0  0  0  0  0  0  0  0  0  0
    7.2574  -20.1148   20.0302 C   0  0  0  0  0  0  0  0  0  0  0  0
    5.6096  -19.0700   21.2961 C   0  0  0  0  0  0  0  0  0  0  0  0
    2.7754  -19.2561   18.8577 C   0  0  0  0  0  0  0  0  0  0  0  0
    0.6298  -17.9499   18.4598 C   0  0  2  0  0  0  0  0  0  0  0  0
   -0.7335  -17.4412   17.9845 C   0  0  0  0  0  0  0  0  0  0  0  0
   -1.3889  -18.3653   16.9555 C   0  0  0  0  0  0  0  0  0  0  0  0
    6.7388  -19.5582   18.8534 N   0  0  0  0  0  0  0  0  0  0  0  0
    2.6860  -18.0883   19.4959 N   0  0  0  0  0  0  0  0  0  0  0  0
    6.6726  -19.8475   21.2067 N   0  0  0  0  0  0  0  0  0  0  0  0
    5.1407  -18.2375   17.9135 O   0  0  0  0  0  0  0  0  0  0  0  0
   -3.0562  -18.9101   14.3659 O   0  5  0  0  0  0  0  0  0  0  0  0
   -2.8071  -21.5421   14.0978 O   0  0  0  0  0  0  0  0  0  0  0  0
   -2.7750  -18.0592   16.7745 O   0  0  0  0  0  0  0  0  0  0  0  0
   -3.5385  -20.4849   16.3093 O   0  0  0  0  0  0  0  0  0  0  0  0
   -1.0318  -20.9613   15.8876 O   0  5  0  0  0  0  0  0  0  0  0  0
   -5.1329  -18.5183   15.8544 O   0  0  0  0  0  0  0  0  0  0  0  0
   -2.6787  -22.8919   16.2732 O   0  0  0  0  0  0  0  0  0  0  0  0
    1.2762  -19.5007   18.0013 S   0  0  0  0  0  0  0  0  0  0  0  0
   -3.7196  -18.9602   15.8315 P   0  0  2  0  0  0  0  0  0  0  0  0
   -2.4159  -21.4311   15.6552 P   0  0  2  0  0  0  0  0  0  0  0  0
  2 16  2  0  0  0  0
  2  3  1  0  0  0  0
  2 13  1  0  0  0  0
  3  8  2  0  0  0  0
  3  4  1  0  0  0  0
  4 14  1  0  0  0  0
  5  1  1  6  0  0  0
  5 14  1  0  0  0  0
  5 10  1  0  0  0  0
  6  7  1  0  0  0  0
  7 13  1  0  0  0  0
  7 15  2  0  0  0  0
  8 15  1  0  0  0  0
  9 14  1  0  0  0  0
  9 24  1  0  0  0  0
 10 24  1  0  0  0  0
 10 11  1  1  0  0  0
 11 12  1  0  0  0  0
 12 19  1  0  0  0  0
 17 25  1  0  0  0  0
 19 25  1  0  0  0  0
 20 26  1  0  0  0  0
 21 26  1  0  0  0  0
 22 25  2  0  0  0  0
 23 26  2  0  0  0  0
 25 20  1  1  0  0  0
 26 18  1  6  0  0  0
M  CHG  2  17  -1  21  -1
M  END
>  <CHROM.1>
53.40565813,175.20334242,165.62548136,-168.51335518,-175.14119463,21.49964094
-59.14021478,-62.14787268,0.79857289,-19.30927194,17.72289344,0.26078209
-0.36129331,0.45952517

>  <Name>
ligand

>  <RI>
0

>  <Rbt.Current_Directory>
/home/itssahil/PROJECTS/Mol_Feturizer/New_Systems/rnas/3D2X

>  <Rbt.Executable>
rbdock ($Id: //depot/dev/client3/rdock/2013.1/src/exe/rbdock.cxx#4 $)

>  <Rbt.Library>
libRbt.so (2013.1, Build901 2013/11/27)

>  <Rbt.Parameter_File>
/export/apps/rDock/src/rDock_2013.1_src/data/scripts/dock_solv.prm

>  <Rbt.Receptor>
prm/blind_docking_100.prm

>  <SCORE>
-17.8279

>  <SCORE.INTER>
-19.2696

>  <SCORE.INTER.CONST>
1

>  <SCORE.INTER.POLAR>
0

>  <SCORE.INTER.ROT>
8

>  <SCORE.INTER.SOLV>
14.4879

>  <SCORE.INTER.VDW>
-26.609

>  <SCORE.INTER.norm>
-0.741137

>  <SCORE.INTRA>
1.44164

>  <SCORE.INTRA.DIHEDRAL>
-0.887443

>  <SCORE.INTRA.DIHEDRAL.0>
7.88077

>  <SCORE.INTRA.POLAR>
0

>  <SCORE.INTRA.POLAR.0>
0

>  <SCORE.INTRA.REPUL>
0

>  <SCORE.INTRA.REPUL.0>
0

>  <SCORE.INTRA.SOLV>
0.276628

>  <SCORE.INTRA.SOLV.lig_0>
-63.2542

>  <SCORE.INTRA.VDW>
1.74704

>  <SCORE.INTRA.VDW.0>
-3.15072

>  <SCORE.INTRA.norm>
0.0554476

>  <SCORE.RESTR>
0

>  <SCORE.RESTR.CAVITY>
0

>  <SCORE.RESTR.norm>
0

>  <SCORE.SYSTEM>
0

>  <SCORE.SYSTEM.CONST>
0

>  <SCORE.SYSTEM.DIHEDRAL>
0

>  <SCORE.SYSTEM.SOLV>
0

>  <SCORE.SYSTEM.norm>
0

>  <SCORE.heavy>
26

>  <SCORE.norm>
-0.685689

>  <RMSD>
12.797

$$$$
ligand
 OpenBabel11021811473D
libRbt.so/2013.1/901 2013/11/27
 26 27  0  0  0  0  0  0  0  0999 V2000
    1.9918  -15.9631   20.6803 C   0  0  0  0  0  0  0  0  0  0  0  0
    6.0614  -19.5700   21.0219 C   0  0  0  0  0  0  0  0  0  0  0  0
    5.6247  -18.2566   20.8840 C   0  0  0  0  0  0  0  0  0  0  0  0
    4.2191  -17.7924   21.2732 C   0  0  0  0  0  0  0  0  0  0  0  0
    2.2288  -17.2738   19.9242 C   0  0  1  0  0  0  0  0  0  0  0  0
    9.6600  -19.2433   19.8067 C   0  0  0  0  0  0  0  0  0  0  0  0
    8.2174  -18.9001   20.1816 C   0  0  0  0  0  0  0  0  0  0  0  0
    6.5244  -17.3187   20.3877 C   0  0  0  0  0  0  0  0  0  0  0  0
    3.3708  -19.1894   19.4666 C   0  0  0  0  0  0  0  0  0  0  0  0
    1.4021  -17.6876   18.8865 C   0  0  2  0  0  0  0  0  0  0  0  0
    0.1677  -17.0301   18.2642 C   0  0  0  0  0  0  0  0  0  0  0  0
   -0.8300  -18.0463   17.7034 C   0  0  0  0  0  0  0  0  0  0  0  0
    7.3707  -19.9042   20.6697 N   0  0  0  0  0  0  0  0  0  0  0  0
    3.2507  -18.0866   20.2071 N   0  0  0  0  0  0  0  0  0  0  0  0
    7.7602  -17.6457   20.0583 N   0  0  0  0  0  0  0  0  0  0  0  0
    5.3017  -20.4364   21.4554 O   0  0  0  0  0  0  0  0  0  0  0  0
   -0.8129  -21.2093   17.1311 O   0  5  0  0  0  0  0  0  0  0  0  0
   -3.3310  -20.7817   13.7436 O   0  0  0  0  0  0  0  0  0  0  0  0
   -0.2928  -18.7533   16.5813 O   0  0  0  0  0  0  0  0  0  0  0  0
   -2.5846  -19.7870   15.9790 O   0  0  0  0  0  0  0  0  0  0  0  0
   -3.5126  -22.1997   15.8997 O   0  5  0  0  0  0  0  0  0  0  0  0
   -0.4750  -20.4726   14.6765 O   0  0  0  0  0  0  0  0  0  0  0  0
   -5.0689  -20.1917   15.5331 O   0  0  0  0  0  0  0  0  0  0  0  0
    2.0182  -19.2315   18.3668 S   0  0  0  0  0  0  0  0  0  0  0  0
   -1.0032  -20.0776   16.0026 P   0  0  2  0  0  0  0  0  0  0  0  0
   -3.6112  -20.8383   15.3276 P   0  0  2  0  0  0  0  0  0  0  0  0
  2 16  2  0  0  0  0
  2  3  1  0  0  0  0
  2 13  1  0  0  0  0
  3  8  2  0  0  0  0
  3  4  1  0  0  0  0
  4 14  1  0  0  0  0
  5  1  1  6  0  0  0
  5 14  1  0  0  0  0
  5 10  1  0  0  0  0
  6  7  1  0  0  0  0
  7 13  1  0  0  0  0
  7 15  2  0  0  0  0
  8 15  1  0  0  0  0
  9 14  1  0  0  0  0
  9 24  1  0  0  0  0
 10 24  1  0  0  0  0
 10 11  1  1  0  0  0
 11 12  1  0  0  0  0
 12 19  1  0  0  0  0
 17 25  1  0  0  0  0
 19 25  1  0  0  0  0
 20 26  1  0  0  0  0
 21 26  1  0  0  0  0
 22 25  2  0  0  0  0
 23 26  2  0  0  0  0
 25 20  1  6  0  0  0
 26 18  1  6  0  0  0
M  CHG  2  17  -1  21  -1
M  END
>  <CHROM.1>
-82.03884647,-150.21029575,-66.54167257,-144.36481152,166.98456732,-73.80821897
-68.44628771,-69.67395330,1.50723857,-19.26244988,18.11031489,0.42545195
-0.30814140,0.62093894

>  <Name>
ligand

>  <RI>
0

>  <Rbt.Current_Directory>
/home/itssahil/PROJECTS/Mol_Feturizer/New_Systems/rnas/3D2X

>  <Rbt.Executable>
rbdock ($Id: //depot/dev/client3/rdock/2013.1/src/exe/rbdock.cxx#4 $)

>  <Rbt.Library>
libRbt.so (2013.1, Build901 2013/11/27)

>  <Rbt.Parameter_File>
/export/apps/rDock/src/rDock_2013.1_src/data/scripts/dock_solv.prm

>  <Rbt.Receptor>
prm/blind_docking_100.prm

>  <SCORE>
-19.9995

>  <SCORE.INTER>
-18.7003

>  <SCORE.INTER.CONST>
1

>  <SCORE.INTER.POLAR>
0

>  <SCORE.INTER.ROT>
8

>  <SCORE.INTER.SOLV>
17.5809

>  <SCORE.INTER.VDW>
-27.2605

>  <SCORE.INTER.norm>
-0.71924

>  <SCORE.INTRA>
-1.29921

>  <SCORE.INTRA.DIHEDRAL>
-1.42112

>  <SCORE.INTRA.DIHEDRAL.0>
7.88077

>  <SCORE.INTRA.POLAR>
0

>  <SCORE.INTRA.POLAR.0>
0

>  <SCORE.INTRA.REPUL>
0

>  <SCORE.INTRA.REPUL.0>
0

>  <SCORE.INTRA.SOLV>
-1.06358

>  <SCORE.INTRA.SOLV.lig_0>
-63.2542

>  <SCORE.INTRA.VDW>
-0.0568579

>  <SCORE.INTRA.VDW.0>
-3.15072

>  <SCORE.INTRA.norm>
-0.0499696

>  <SCORE.RESTR>
0

>  <SCORE.RESTR.CAVITY>
0

>  <SCORE.RESTR.norm>
0

>  <SCORE.SYSTEM>
0

>  <SCORE.SYSTEM.CONST>
0

>  <SCORE.SYSTEM.DIHEDRAL>
0

>  <SCORE.SYSTEM.SOLV>
0

>  <SCORE.SYSTEM.norm>
0

>  <SCORE.heavy>
26

>  <SCORE.norm>
-0.76921

>  <RMSD>
13.103

$$$$
ligand
 OpenBabel11021811473D
libRbt.so/2013.1/901 2013/11/27
 26 27  0  0  0  0  0  0  0  0999 V2000
    4.3820  -20.9417   19.8717 C   0  0  0  0  0  0  0  0  0  0  0  0
    8.1121  -18.6120   21.2903 C   0  0  0  0  0  0  0  0  0  0  0  0
    7.0503  -19.5021   21.1672 C   0  0  0  0  0  0  0  0  0  0  0  0
    5.7425  -19.3647   21.9504 C   0  0  0  0  0  0  0  0  0  0  0  0
    4.0574  -19.4733   20.1619 C   0  0  1  0  0  0  0  0  0  0  0  0
   10.5559  -20.0822   18.7608 C   0  0  0  0  0  0  0  0  0  0  0  0
    9.3139  -19.8768   19.6292 C   0  0  0  0  0  0  0  0  0  0  0  0
    7.1827  -20.5550   20.2676 C   0  0  0  0  0  0  0  0  0  0  0  0
    4.3019  -17.5131   21.2937 C   0  0  0  0  0  0  0  0  0  0  0  0
    3.0780  -18.7808   19.4600 C   0  0  2  0  0  0  0  0  0  0  0  0
    2.1435  -19.2305   18.3339 C   0  0  0  0  0  0  0  0  0  0  0  0
    0.7616  -18.5772   18.4095 C   0  0  0  0  0  0  0  0  0  0  0  0
    9.2600  -18.7935   20.5164 N   0  0  0  0  0  0  0  0  0  0  0  0
    4.6845  -18.7783   21.1150 N   0  0  0  0  0  0  0  0  0  0  0  0
    8.2725  -20.7167   19.5405 N   0  0  0  0  0  0  0  0  0  0  0  0
    8.0429  -17.6651   22.0741 O   0  0  0  0  0  0  0  0  0  0  0  0
   -2.2606  -17.9909   18.0694 O   0  5  0  0  0  0  0  0  0  0  0  0
   -0.3736  -16.2484   19.4847 O   0  0  0  0  0  0  0  0  0  0  0  0
    0.0379  -18.7237   17.1837 O   0  0  0  0  0  0  0  0  0  0  0  0
   -0.7476  -16.2714   16.9543 O   0  0  0  0  0  0  0  0  0  0  0  0
   -0.5373  -14.0119   18.1950 O   0  5  0  0  0  0  0  0  0  0  0  0
   -1.8304  -18.1146   15.5236 O   0  0  0  0  0  0  0  0  0  0  0  0
   -2.6171  -15.4829   18.5093 O   0  0  0  0  0  0  0  0  0  0  0  0
    3.0922  -17.1570   20.0893 S   0  0  0  0  0  0  0  0  0  0  0  0
   -1.2360  -17.7994   16.8430 P   0  0  2  0  0  0  0  0  0  0  0  0
   -1.0276  -15.4058   18.2794 P   0  0  2  0  0  0  0  0  0  0  0  0
  2 16  2  0  0  0  0
  2  3  1  0  0  0  0
  2 13  1  0  0  0  0
  3  8  2  0  0  0  0
  3  4  1  0  0  0  0
  4 14  1  0  0  0  0
  5  1  1  1  0  0  0
  5 14  1  0  0  0  0
  5 10  1  0  0  0  0
  6  7  1  0  0  0  0
  7 13  1  0  0  0  0
  7 15  2  0  0  0  0
  8 15  1  0  0  0  0
  9 14  1  0  0  0  0
  9 24  1  0  0  0  0
 10 24  1  0  0  0  0
 10 11  1  6  0  0  0
 11 12  1  0  0  0  0
 12 19  1  0  0  0  0
 17 25  1  0  0  0  0
 19 25  1  0  0  0  0
 20 26  1  0  0  0  0
 21 26  1  0  0  0  0
 22 25  2  0  0  0  0
 23 26  2  0  0  0  0
 25 20  1  6  0  0  0
 26 18  1  1  0  0  0
M  CHG  2  17  -1  21  -1
M  END
>  <CHROM.1>
100.84373188,144.85365691,164.55005405,75.02810064,-162.49393108,13.46472922
-55.71865037,56.26839094,2.85341190,-18.03450649,19.15408464,0.05491185,0.40460188
-2.50771806

>  <Name>
ligand

>  <RI>
0

>  <Rbt.Current_Directory>
/home/itssahil/PROJECTS/Mol_Feturizer/New_Systems/rnas/3D2X

>  <Rbt.Executable>
rbdock ($Id: //depot/dev/client3/rdock/2013.1/src/exe/rbdock.cxx#4 $)

>  <Rbt.Library>
libRbt.so (2013.1, Build901 2013/11/27)

>  <Rbt.Parameter_File>
/export/apps/rDock/src/rDock_2013.1_src/data/scripts/dock_solv.prm

>  <Rbt.Receptor>
prm/blind_docking_100.prm

>  <SCORE>
-7.73372

>  <SCORE.INTER>
-9.9825

>  <SCORE.INTER.CONST>
1

>  <SCORE.INTER.POLAR>
0

>  <SCORE.INTER.ROT>
8

>  <SCORE.INTER.SOLV>
17.657

>  <SCORE.INTER.VDW>
-21.474

>  <SCORE.INTER.norm>
-0.383942

>  <SCORE.INTRA>
2.2091

>  <SCORE.INTRA.DIHEDRAL>
1.20652

>  <SCORE.INTRA.DIHEDRAL.0>
7.88077

>  <SCORE.INTRA.POLAR>
0

>  <SCORE.INTRA.POLAR.0>
0

>  <SCORE.INTRA.REPUL>
0

>  <SCORE.INTRA.REPUL.0>
0

>  <SCORE.INTRA.SOLV>
-0.725218

>  <SCORE.INTRA.SOLV.lig_0>
-63.2542

>  <SCORE.INTRA.VDW>
1.96844

>  <SCORE.INTRA.VDW.0>
-3.15072

>  <SCORE.INTRA.norm>
0.0849652

>  <SCORE.RESTR>
0.0396924

>  <SCORE.RESTR.CAVITY>
0.0396924

>  <SCORE.RESTR.norm>
0.00152663

>  <SCORE.SYSTEM>
0

>  <SCORE.SYSTEM.CONST>
0

>  <SCORE.SYSTEM.DIHEDRAL>
0

>  <SCORE.SYSTEM.SOLV>
0

>  <SCORE.SYSTEM.norm>
0

>  <SCORE.heavy>
26

>  <SCORE.norm>
-0.297451

>  <RMSD>
13.445

$$$$
ligand
 OpenBabel11021811473D
libRbt.so/2013.1/901 2013/11/27
 26 27  0  0  0  0  0  0  0  0999 V2000
    3.9653  -21.3486   19.4788 C   0  0  0  0  0  0  0  0  0  0  0  0
    8.2144  -19.5514   21.6602 C   0  0  0  0  0  0  0  0  0  0  0  0
    8.0075  -19.7768   20.3033 C   0  0  0  0  0  0  0  0  0  0  0  0
    6.7595  -20.4656   19.7459 C   0  0  0  0  0  0  0  0  0  0  0  0
    4.3937  -19.8796   19.4148 C   0  0  1  0  0  0  0  0  0  0  0  0
   11.5586  -17.7239   21.5651 C   0  0  0  0  0  0  0  0  0  0  0  0
   10.2967  -18.4660   21.1224 C   0  0  0  0  0  0  0  0  0  0  0  0
    8.9783  -19.3303   19.4124 C   0  0  0  0  0  0  0  0  0  0  0  0
    5.9202  -18.1924   19.4951 C   0  0  0  0  0  0  0  0  0  0  0  0
    3.4775  -18.8504   19.2338 C   0  0  2  0  0  0  0  0  0  0  0  0
    1.9553  -18.8788   19.0741 C   0  0  0  0  0  0  0  0  0  0  0  0
    1.5110  -19.2898   17.6684 C   0  0  0  0  0  0  0  0  0  0  0  0
    9.3686  -18.8890   22.0832 N   0  0  0  0  0  0  0  0  0  0  0  0
    5.6684  -19.5013   19.5442 N   0  0  0  0  0  0  0  0  0  0  0  0
   10.0656  -18.7047   19.8234 N   0  0  0  0  0  0  0  0  0  0  0  0
    7.3846  -19.9290   22.4876 O   0  0  0  0  0  0  0  0  0  0  0  0
    0.4218  -21.2446   15.6835 O   0  5  0  0  0  0  0  0  0  0  0  0
   -2.3701  -21.4644   14.2735 O   0  0  0  0  0  0  0  0  0  0  0  0
    0.1112  -19.5826   17.6189 O   0  0  0  0  0  0  0  0  0  0  0  0
   -1.8820  -20.9721   16.7358 O   0  0  0  0  0  0  0  0  0  0  0  0
   -2.0272  -23.4242   15.9269 O   0  5  0  0  0  0  0  0  0  0  0  0
   -0.9098  -19.0598   15.3164 O   0  0  0  0  0  0  0  0  0  0  0  0
   -4.1371  -21.9687   16.0608 O   0  0  0  0  0  0  0  0  0  0  0  0
    4.4099  -17.3804   19.1782 S   0  0  0  0  0  0  0  0  0  0  0  0
   -0.5853  -20.1387   16.2777 P   0  0  2  0  0  0  0  0  0  0  0  0
   -2.5601  -22.0537   15.7592 P   0  0  2  0  0  0  0  0  0  0  0  0
  2 16  2  0  0  0  0
  2  3  1  0  0  0  0
  2 13  1  0  0  0  0
  3  8  2  0  0  0  0
  3  4  1  0  0  0  0
  4 14  1  0  0  0  0
  5  1  1  1  0  0  0
  5 14  1  0  0  0  0
  5 10  1  0  0  0  0
  6  7  1  0  0  0  0
  7 13  1  0  0  0  0
  7 15  2  0  0  0  0
  8 15  1  0  0  0  0
  9 14  1  0  0  0  0
  9 24  1  0  0  0  0
 10 24  1  0  0  0  0
 10 11  1  6  0  0  0
 11 12  1  0  0  0  0
 12 19  1  0  0  0  0
 17 25  1  0  0  0  0
 19 25  1  0  0  0  0
 20 26  1  0  0  0  0
 21 26  1  0  0  0  0
 22 25  2  0  0  0  0
 23 26  2  0  0  0  0
 25 20  1  1  0  0  0
 26 18  1  6  0  0  0
M  CHG  2  17  -1  21  -1
M  END
>  <CHROM.1>
85.59200529,-78.12581985,167.69324823,-161.68869828,-175.63786484,-48.08537625
42.75916669,-34.05966805,3.11683114,-19.90710152,18.35130992,-0.14917419
0.45929920,3.01444048

>  <Name>
ligand

>  <RI>
0

>  <Rbt.Current_Directory>
/home/itssahil/PROJECTS/Mol_Feturizer/New_Systems/rnas/3D2X

>  <Rbt.Executable>
rbdock ($Id: //depot/dev/client3/rdock/2013.1/src/exe/rbdock.cxx#4 $)

>  <Rbt.Library>
libRbt.so (2013.1, Build901 2013/11/27)

>  <Rbt.Parameter_File>
/export/apps/rDock/src/rDock_2013.1_src/data/scripts/dock_solv.prm

>  <Rbt.Receptor>
prm/blind_docking_100.prm

>  <SCORE>
-13.3692

>  <SCORE.INTER>
-13.1294

>  <SCORE.INTER.CONST>
1

>  <SCORE.INTER.POLAR>
0

>  <SCORE.INTER.ROT>
8

>  <SCORE.INTER.SOLV>
20.4984

>  <SCORE.INTER.VDW>
-24.5191

>  <SCORE.INTER.norm>
-0.504979

>  <SCORE.INTRA>
-0.48404

>  <SCORE.INTRA.DIHEDRAL>
-0.299688

>  <SCORE.INTRA.DIHEDRAL.0>
7.88077

>  <SCORE.INTRA.POLAR>
0

>  <SCORE.INTRA.POLAR.0>
0

>  <SCORE.INTRA.REPUL>
0

>  <SCORE.INTRA.REPUL.0>
0

>  <SCORE.INTRA.SOLV>
-1.47463

>  <SCORE.INTRA.SOLV.lig_0>
-63.2542

>  <SCORE.INTRA.VDW>
0.40312

>  <SCORE.INTRA.VDW.0>
-3.15072

>  <SCORE.INTRA.norm>
-0.0186169

>  <SCORE.RESTR>
0.244258

>  <SCORE.RESTR.CAVITY>
0.244258

>  <SCORE.RESTR.norm>
0.00939454

>  <SCORE.SYSTEM>
0

>  <SCORE.SYSTEM.CONST>
0

>  <SCORE.SYSTEM.DIHEDRAL>
0

>  <SCORE.SYSTEM.SOLV>
0

>  <SCORE.SYSTEM.norm>
0

>  <SCORE.heavy>
26

>  <SCORE.norm>
-0.514201

>  <RMSD>
14.867

$$$$
ligand
 OpenBabel11021811473D
libRbt.so/2013.1/901 2013/11/27
 26 27  0  0  0  0  0  0  0  0999 V2000
   -4.0070   -1.4890   13.7945 C   0  0  0  0  0  0  0  0  0  0  0  0
   -1.1125   -3.7741   15.5429 C   0  0  0  0  0  0  0  0  0  0  0  0
   -0.6207   -2.4731   15.5334 C   0  0  0  0  0  0  0  0  0  0  0  0
   -1.1936   -1.3638   14.6480 C   0  0  0  0  0  0  0  0  0  0  0  0
   -2.8400   -1.9552   12.9189 C   0  0  1  0  0  0  0  0  0  0  0  0
    1.1196   -5.3477   18.2027 C   0  0  0  0  0  0  0  0  0  0  0  0
    0.5029   -4.3307   17.2412 C   0  0  0  0  0  0  0  0  0  0  0  0
    0.4305   -2.1667   16.3917 C   0  0  0  0  0  0  0  0  0  0  0  0
   -0.6348   -2.2973   12.4683 C   0  0  0  0  0  0  0  0  0  0  0  0
   -3.0338   -2.4662   11.6411 C   0  0  2  0  0  0  0  0  0  0  0  0
   -4.3139   -2.6787   10.8290 C   0  0  0  0  0  0  0  0  0  0  0  0
   -5.2512   -3.7148   11.4539 C   0  0  0  0  0  0  0  0  0  0  0  0
   -0.5508   -4.7196   16.4034 N   0  0  0  0  0  0  0  0  0  0  0  0
   -1.5694   -1.8837   13.3253 N   0  0  0  0  0  0  0  0  0  0  0  0
    0.9535   -3.0685   17.2015 N   0  0  0  0  0  0  0  0  0  0  0  0
   -2.0410   -4.0941   14.8004 O   0  0  0  0  0  0  0  0  0  0  0  0
   -4.6994   -6.6015   10.1131 O   0  5  0  0  0  0  0  0  0  0  0  0
   -8.8696   -5.1320    8.1252 O   0  0  0  0  0  0  0  0  0  0  0  0
   -6.0054   -4.4155   10.4600 O   0  0  0  0  0  0  0  0  0  0  0  0
   -6.4466   -5.9063    8.3945 O   0  0  0  0  0  0  0  0  0  0  0  0
   -6.9369   -3.5203    7.5256 O   0  5  0  0  0  0  0  0  0  0  0  0
   -4.2573   -4.5686    8.5791 O   0  0  0  0  0  0  0  0  0  0  0  0
   -7.4212   -5.5681    6.0557 O   0  0  0  0  0  0  0  0  0  0  0  0
   -1.4537   -2.9021   11.0525 S   0  0  0  0  0  0  0  0  0  0  0  0
   -5.2847   -5.3181    9.3379 P   0  0  2  0  0  0  0  0  0  0  0  0
   -7.3874   -4.9301    7.5312 P   0  0  2  0  0  0  0  0  0  0  0  0
  2 16  2  0  0  0  0
  2  3  1  0  0  0  0
  2 13  1  0  0  0  0
  3  8  2  0  0  0  0
  3  4  1  0  0  0  0
  4 14  1  0  0  0  0
  5  1  1  6  0  0  0
  5 14  1  0  0  0  0
  5 10  1  0  0  0  0
  6  7  1  0  0  0  0
  7 13  1  0  0  0  0
  7 15  2  0  0  0  0
  8 15  1  0  0  0  0
  9 14  1  0  0  0  0
  9 24  1  0  0  0  0
 10 24  1  0  0  0  0
 10 11  1  1  0  0  0
 11 12  1  0  0  0  0
 12 19  1  0  0  0  0
 17 25  1  0  0  0  0
 19 25  1  0  0  0  0
 20 26  1  0  0  0  0
 21 26  1  0  0  0  0
 22 25  2  0  0  0  0
 23 26  2  0  0  0  0
 25 20  1  6  0  0  0
 26 18  1  1  0  0  0
M  CHG  2  17  -1  21  -1
M  END
>  <CHROM.1>
-38.17234193,-64.78580840,-148.94440473,112.41275248,61.91376718,174.61157233
70.10875864,-115.69673656,-3.53211148,-3.87435181,11.75501389,-0.16186232
-0.87856809,-0.42185518

>  <Name>
ligand

>  <RI>
0

>  <Rbt.Current_Directory>
/home/itssahil/PROJECTS/Mol_Feturizer/New_Systems/rnas/3D2X

>  <Rbt.Executable>
rbdock ($Id: //depot/dev/client3/rdock/2013.1/src/exe/rbdock.cxx#4 $)

>  <Rbt.Library>
libRbt.so (2013.1, Build901 2013/11/27)

>  <Rbt.Parameter_File>
/export/apps/rDock/src/rDock_2013.1_src/data/scripts/dock_solv.prm

>  <Rbt.Receptor>
prm/blind_docking_20.prm

>  <SCORE>
-4.54543

>  <SCORE.INTER>
-11.2164

>  <SCORE.INTER.CONST>
1

>  <SCORE.INTER.POLAR>
0

>  <SCORE.INTER.ROT>
8

>  <SCORE.INTER.SOLV>
21.7341

>  <SCORE.INTER.VDW>
-23.6556

>  <SCORE.INTER.norm>
-0.431399

>  <SCORE.INTRA>
0.697524

>  <SCORE.INTRA.DIHEDRAL>
1.91154

>  <SCORE.INTRA.DIHEDRAL.0>
7.88077

>  <SCORE.INTRA.POLAR>
0

>  <SCORE.INTRA.POLAR.0>
0

>  <SCORE.INTRA.REPUL>
0

>  <SCORE.INTRA.REPUL.0>
0

>  <SCORE.INTRA.SOLV>
0.574758

>  <SCORE.INTRA.SOLV.lig_0>
-63.2542

>  <SCORE.INTRA.VDW>
-0.545624

>  <SCORE.INTRA.VDW.0>
-3.15072

>  <SCORE.INTRA.norm>
0.0268278

>  <SCORE.RESTR>
5.97343

>  <SCORE.RESTR.CAVITY>
5.97343

>  <SCORE.RESTR.norm>
0.229747

>  <SCORE.SYSTEM>
0

>  <SCORE.SYSTEM.CONST>
0

>  <SCORE.SYSTEM.DIHEDRAL>
0

>  <SCORE.SYSTEM.SOLV>
0

>  <SCORE.SYSTEM.norm>
0

>  <SCORE.heavy>
26

>  <SCORE.norm>
-0.174824

>  <RMSD>
16.365

$$$$
ligand
 OpenBabel11021811473D
libRbt.so/2013.1/901 2013/11/27
 26 27  0  0  0  0  0  0  0  0999 V2000
   -4.2098   -0.7964   13.4096 C   0  0  0  0  0  0  0  0  0  0  0  0
   -0.2034   -2.5277   16.3646 C   0  0  0  0  0  0  0  0  0  0  0  0
   -1.4584   -3.0581   16.0847 C   0  0  0  0  0  0  0  0  0  0  0  0
   -2.5371   -2.3007   15.3066 C   0  0  0  0  0  0  0  0  0  0  0  0
   -2.9955   -1.6279   12.9855 C   0  0  1  0  0  0  0  0  0  0  0  0
    1.4036   -5.4590   18.1969 C   0  0  0  0  0  0  0  0  0  0  0  0
    0.3840   -4.5945   17.4539 C   0  0  0  0  0  0  0  0  0  0  0  0
   -1.7313   -4.3517   16.5177 C   0  0  0  0  0  0  0  0  0  0  0  0
   -1.1998   -2.9697   13.3833 C   0  0  0  0  0  0  0  0  0  0  0  0
   -2.5910   -1.7207   11.6592 C   0  0  2  0  0  0  0  0  0  0  0  0
   -3.1650   -1.0885   10.3886 C   0  0  0  0  0  0  0  0  0  0  0  0
   -4.0230   -2.0599    9.5746 C   0  0  0  0  0  0  0  0  0  0  0  0
    0.7344   -3.2975   17.0558 N   0  0  0  0  0  0  0  0  0  0  0  0
   -2.2468   -2.2987   13.8655 N   0  0  0  0  0  0  0  0  0  0  0  0
   -0.8368   -5.0707   17.1701 N   0  0  0  0  0  0  0  0  0  0  0  0
    0.0848   -1.3866   16.0032 O   0  0  0  0  0  0  0  0  0  0  0  0
   -4.7777   -5.0896    9.2082 O   0  5  0  0  0  0  0  0  0  0  0  0
   -4.9765   -5.4995    5.3602 O   0  0  0  0  0  0  0  0  0  0  0  0
   -3.2267   -3.0594    8.9307 O   0  0  0  0  0  0  0  0  0  0  0  0
   -4.9775   -3.6435    7.1206 O   0  0  0  0  0  0  0  0  0  0  0  0
   -6.9222   -5.3473    7.0583 O   0  5  0  0  0  0  0  0  0  0  0  0
   -2.8985   -5.1254    7.4337 O   0  0  0  0  0  0  0  0  0  0  0  0
   -6.6739   -3.5845    5.2092 O   0  0  0  0  0  0  0  0  0  0  0  0
   -1.2186   -2.7929   11.6486 S   0  0  0  0  0  0  0  0  0  0  0  0
   -3.8991   -4.2826    8.1278 P   0  0  2  0  0  0  0  0  0  0  0  0
   -5.9523   -4.5772    6.2480 P   0  0  2  0  0  0  0  0  0  0  0  0
  2 16  2  0  0  0  0
  2  3  1  0  0  0  0
  2 13  1  0  0  0  0
  3  8  2  0  0  0  0
  3  4  1  0  0  0  0
  4 14  1  0  0  0  0
  5  1  1  1  0  0  0
  5 14  1  0  0  0  0
  5 10  1  0  0  0  0
  6  7  1  0  0  0  0
  7 13  1  0  0  0  0
  7 15  2  0  0  0  0
  8 15  1  0  0  0  0
  9 14  1  0  0  0  0
  9 24  1  0  0  0  0
 10 24  1  0  0  0  0
 10 11  1  6  0  0  0
 11 12  1  0  0  0  0
 12 19  1  0  0  0  0
 17 25  1  0  0  0  0
 19 25  1  0  0  0  0
 20 26  1  0  0  0  0
 21 26  1  0  0  0  0
 22 25  2  0  0  0  0
 23 26  2  0  0  0  0
 25 20  1  6  0  0  0
 26 18  1  6  0  0  0
M  CHG  2  17  -1  21  -1
M  END
>  <CHROM.1>
76.70778172,-100.89614324,-71.74025066,-175.57388050,174.13275292,-62.02282486
-60.89328797,-59.01169473,-2.91074198,-3.46945378,11.36922762,0.42766480
-1.05513890,0.37886114

>  <Name>
ligand

>  <RI>
0

>  <Rbt.Current_Directory>
/home/itssahil/PROJECTS/Mol_Feturizer/New_Systems/rnas/3D2X

>  <Rbt.Executable>
rbdock ($Id: //depot/dev/client3/rdock/2013.1/src/exe/rbdock.cxx#4 $)

>  <Rbt.Library>
libRbt.so (2013.1, Build901 2013/11/27)

>  <Rbt.Parameter_File>
/export/apps/rDock/src/rDock_2013.1_src/data/scripts/dock_solv.prm

>  <Rbt.Receptor>
prm/blind_docking_20.prm

>  <SCORE>
-9.06817

>  <SCORE.INTER>
-12.3082

>  <SCORE.INTER.CONST>
1

>  <SCORE.INTER.POLAR>
0

>  <SCORE.INTER.ROT>
8

>  <SCORE.INTER.SOLV>
19.6089

>  <SCORE.INTER.VDW>
-23.6751

>  <SCORE.INTER.norm>
-0.473394

>  <SCORE.INTRA>
-1.91816

>  <SCORE.INTRA.DIHEDRAL>
-2.11093

>  <SCORE.INTRA.DIHEDRAL.0>
7.88077

>  <SCORE.INTRA.POLAR>
0

>  <SCORE.INTRA.POLAR.0>
0

>  <SCORE.INTRA.REPUL>
0

>  <SCORE.INTRA.REPUL.0>
0

>  <SCORE.INTRA.SOLV>
-1.39377

>  <SCORE.INTRA.SOLV.lig_0>
-63.2542

>  <SCORE.INTRA.VDW>
-0.165807

>  <SCORE.INTRA.VDW.0>
-3.15072

>  <SCORE.INTRA.norm>
-0.0737753

>  <SCORE.RESTR>
5.15822

>  <SCORE.RESTR.CAVITY>
5.15822

>  <SCORE.RESTR.norm>
0.198393

>  <SCORE.SYSTEM>
0

>  <SCORE.SYSTEM.CONST>
0

>  <SCORE.SYSTEM.DIHEDRAL>
0

>  <SCORE.SYSTEM.SOLV>
0

>  <SCORE.SYSTEM.norm>
0

>  <SCORE.heavy>
26

>  <SCORE.norm>
-0.348776

>  <RMSD>
16.672

$$$$
ligand
 OpenBabel11021811473D
libRbt.so/2013.1/901 2013/11/27
 26 27  0  0  0  0  0  0  0  0999 V2000
   -1.2215   -3.3430    9.5683 C   0  0  0  0  0  0  0  0  0  0  0  0
   -6.1365   -5.3527    8.5707 C   0  0  0  0  0  0  0  0  0  0  0  0
   -4.9661   -4.7834    8.0801 C   0  0  0  0  0  0  0  0  0  0  0  0
   -3.6218   -4.8656    8.8073 C   0  0  0  0  0  0  0  0  0  0  0  0
   -2.5298   -3.3049   10.3636 C   0  0  1  0  0  0  0  0  0  0  0  0
   -8.5681   -4.4819    5.7668 C   0  0  0  0  0  0  0  0  0  0  0  0
   -7.2903   -4.5828    6.6010 C   0  0  0  0  0  0  0  0  0  0  0  0
   -5.0236   -4.1273    6.8547 C   0  0  0  0  0  0  0  0  0  0  0  0
   -4.7003   -3.8715   10.7524 C   0  0  0  0  0  0  0  0  0  0  0  0
   -2.6761   -2.5301   11.5080 C   0  0  2  0  0  0  0  0  0  0  0  0
   -1.6947   -1.5940   12.2179 C   0  0  0  0  0  0  0  0  0  0  0  0
   -1.8488   -1.6124   13.7405 C   0  0  0  0  0  0  0  0  0  0  0  0
   -7.3160   -5.2566    7.8293 N   0  0  0  0  0  0  0  0  0  0  0  0
   -3.6095   -4.0006    9.9959 N   0  0  0  0  0  0  0  0  0  0  0  0
   -6.1442   -4.0429    6.1620 N   0  0  0  0  0  0  0  0  0  0  0  0
   -6.1364   -5.9427    9.6513 O   0  0  0  0  0  0  0  0  0  0  0  0
   -2.5451   -2.9010   16.5549 O   0  5  0  0  0  0  0  0  0  0  0  0
    0.2676   -6.4680   17.4945 O   0  0  0  0  0  0  0  0  0  0  0  0
   -1.2874   -2.7960   14.3162 O   0  0  0  0  0  0  0  0  0  0  0  0
   -0.5466   -4.4341   16.1741 O   0  0  0  0  0  0  0  0  0  0  0  0
    0.8069   -4.0871   18.3503 O   0  5  0  0  0  0  0  0  0  0  0  0
   -0.1617   -1.9059   16.4511 O   0  0  0  0  0  0  0  0  0  0  0  0
   -1.5965   -4.9835   18.4391 O   0  0  0  0  0  0  0  0  0  0  0  0
   -4.2884   -2.8340   12.0921 S   0  0  0  0  0  0  0  0  0  0  0  0
   -1.0727   -2.9384   15.9059 P   0  0  2  0  0  0  0  0  0  0  0  0
   -0.1911   -4.9341   17.6597 P   0  0  2  0  0  0  0  0  0  0  0  0
  2 16  2  0  0  0  0
  2  3  1  0  0  0  0
  2 13  1  0  0  0  0
  3  8  2  0  0  0  0
  3  4  1  0  0  0  0
  4 14  1  0  0  0  0
  5  1  1  6  0  0  0
  5 14  1  0  0  0  0
  5 10  1  0  0  0  0
  6  7  1  0  0  0  0
  7 13  1  0  0  0  0
  7 15  2  0  0  0  0
  8 15  1  0  0  0  0
  9 14  1  0  0  0  0
  9 24  1  0  0  0  0
 10 24  1  0  0  0  0
 10 11  1  1  0  0  0
 11 12  1  0  0  0  0
 12 19  1  0  0  0  0
 17 25  1  0  0  0  0
 19 25  1  0  0  0  0
 20 26  1  0  0  0  0
 21 26  1  0  0  0  0
 22 25  2  0  0  0  0
 23 26  2  0  0  0  0
 25 20  1  1  0  0  0
 26 18  1  6  0  0  0
M  CHG  2  17  -1  21  -1
M  END
>  <CHROM.1>
-72.45182673,-144.71451027,75.64705702,-141.87427241,168.50302781,-69.21829784
64.02813105,179.15628607,-2.95734641,-3.88121116,12.54922755,-2.43883044
0.84215528,2.24110946

>  <Name>
ligand

>  <RI>
0

>  <Rbt.Current_Directory>
/home/itssahil/PROJECTS/Mol_Feturizer/New_Systems/rnas/3D2X

>  <Rbt.Executable>
rbdock ($Id: //depot/dev/client3/rdock/2013.1/src/exe/rbdock.cxx#4 $)

>  <Rbt.Library>
libRbt.so (2013.1, Build901 2013/11/27)

>  <Rbt.Parameter_File>
/export/apps/rDock/src/rDock_2013.1_src/data/scripts/dock_solv.prm

>  <Rbt.Receptor>
prm/blind_docking_20.prm

>  <SCORE>
-12.9655

>  <SCORE.INTER>
-15.8612

>  <SCORE.INTER.CONST>
1

>  <SCORE.INTER.POLAR>
0

>  <SCORE.INTER.ROT>
8

>  <SCORE.INTER.SOLV>
15.2915

>  <SCORE.INTER.VDW>
-24.6046

>  <SCORE.INTER.norm>
-0.610048

>  <SCORE.INTRA>
0.0895335

>  <SCORE.INTRA.DIHEDRAL>
-1.19769

>  <SCORE.INTRA.DIHEDRAL.0>
7.88077

>  <SCORE.INTRA.POLAR>
0

>  <SCORE.INTRA.POLAR.0>
0

>  <SCORE.INTRA.REPUL>
0

>  <SCORE.INTRA.REPUL.0>
0

>  <SCORE.INTRA.SOLV>
0.790738

>  <SCORE.INTRA.SOLV.lig_0>
-63.2542

>  <SCORE.INTRA.VDW>
0.293011

>  <SCORE.INTRA.VDW.0>
-3.15072

>  <SCORE.INTRA.norm>
0.0034436

>  <SCORE.RESTR>
2.80623

>  <SCORE.RESTR.CAVITY>
2.80623

>  <SCORE.RESTR.norm>
0.107932

>  <SCORE.SYSTEM>
0

>  <SCORE.SYSTEM.CONST>
0

>  <SCORE.SYSTEM.DIHEDRAL>
0

>  <SCORE.SYSTEM.SOLV>
0

>  <SCORE.SYSTEM.norm>
0

>  <SCORE.heavy>
26

>  <SCORE.norm>
-0.498672

>  <RMSD>
16.729

$$$$
ligand
 OpenBabel11021811473D
libRbt.so/2013.1/901 2013/11/27
 26 27  0  0  0  0  0  0  0  0999 V2000
   -1.2943   -3.2786    9.5813 C   0  0  0  0  0  0  0  0  0  0  0  0
   -6.0963   -5.4260    8.3620 C   0  0  0  0  0  0  0  0  0  0  0  0
   -4.9618   -4.7926    7.8657 C   0  0  0  0  0  0  0  0  0  0  0  0
   -3.6130   -4.7946    8.5893 C   0  0  0  0  0  0  0  0  0  0  0  0
   -2.6401   -3.3313   10.3105 C   0  0  1  0  0  0  0  0  0  0  0  0
   -8.5814   -4.7080    5.5618 C   0  0  0  0  0  0  0  0  0  0  0  0
   -7.2976   -4.7319    6.3926 C   0  0  0  0  0  0  0  0  0  0  0  0
   -5.0601   -4.1461    6.6378 C   0  0  0  0  0  0  0  0  0  0  0  0
   -4.8107   -3.9762   10.5465 C   0  0  0  0  0  0  0  0  0  0  0  0
   -2.8623   -2.6491   11.5007 C   0  0  2  0  0  0  0  0  0  0  0  0
   -1.9420   -1.7469   12.3268 C   0  0  0  0  0  0  0  0  0  0  0  0
   -1.2758   -2.4822   13.4921 C   0  0  0  0  0  0  0  0  0  0  0  0
   -7.2813   -5.4008    7.6238 N   0  0  0  0  0  0  0  0  0  0  0  0
   -3.6815   -4.0221    9.8382 N   0  0  0  0  0  0  0  0  0  0  0  0
   -6.1855   -4.1290    5.9481 N   0  0  0  0  0  0  0  0  0  0  0  0
   -6.0595   -6.0104    9.4450 O   0  0  0  0  0  0  0  0  0  0  0  0
   -2.9542   -3.3804   16.9296 O   0  5  0  0  0  0  0  0  0  0  0  0
   -1.4424   -5.3767   18.2061 O   0  0  0  0  0  0  0  0  0  0  0  0
   -2.1886   -2.7017   14.5721 O   0  0  0  0  0  0  0  0  0  0  0  0
   -0.6897   -4.1762   16.0763 O   0  0  0  0  0  0  0  0  0  0  0  0
    0.9224   -5.8192   17.2553 O   0  5  0  0  0  0  0  0  0  0  0  0
   -1.0249   -1.6865   16.6294 O   0  0  0  0  0  0  0  0  0  0  0  0
    0.3572   -3.5550   18.3242 O   0  0  0  0  0  0  0  0  0  0  0  0
   -4.4922   -3.0339   11.9788 S   0  0  0  0  0  0  0  0  0  0  0  0
   -1.6711   -2.9023   16.0838 P   0  0  2  0  0  0  0  0  0  0  0  0
   -0.1410   -4.8081   17.4486 P   0  0  2  0  0  0  0  0  0  0  0  0
  2 16  2  0  0  0  0
  2  3  1  0  0  0  0
  2 13  1  0  0  0  0
  3  8  2  0  0  0  0
  3  4  1  0  0  0  0
  4 14  1  0  0  0  0
  5  1  1  6  0  0  0
  5 14  1  0  0  0  0
  5 10  1  0  0  0  0
  6  7  1  0  0  0  0
  7 13  1  0  0  0  0
  7 15  2  0  0  0  0
  8 15  1  0  0  0  0
  9 14  1  0  0  0  0
  9 24  1  0  0  0  0
 10 24  1  0  0  0  0
 10 11  1  1  0  0  0
 11 12  1  0  0  0  0
 12 19  1  0  0  0  0
 17 25  1  0  0  0  0
 19 25  1  0  0  0  0
 20 26  1  0  0  0  0
 21 26  1  0  0  0  0
 22 25  2  0  0  0  0
 23 26  2  0  0  0  0
 25 20  1  1  0  0  0
 26 18  1  1  0  0  0
M  CHG  2  17  -1  21  -1
M  END
>  <CHROM.1>
-67.39529681,-97.54637863,-75.72295097,-146.98133603,-155.53631112,-59.21479064
-169.99905155,64.75670394,-3.09105675,-3.91384409,12.46849789,-2.31197981
0.76018713,2.06009019

>  <Name>
ligand

>  <RI>
0

>  <Rbt.Current_Directory>
/home/itssahil/PROJECTS/Mol_Feturizer/New_Systems/rnas/3D2X

>  <Rbt.Executable>
rbdock ($Id: //depot/dev/client3/rdock/2013.1/src/exe/rbdock.cxx#4 $)

>  <Rbt.Library>
libRbt.so (2013.1, Build901 2013/11/27)

>  <Rbt.Parameter_File>
/export/apps/rDock/src/rDock_2013.1_src/data/scripts/dock_solv.prm

>  <Rbt.Receptor>
prm/blind_docking_20.prm

>  <SCORE>
-10.4568

>  <SCORE.INTER>
-13.2828

>  <SCORE.INTER.CONST>
1

>  <SCORE.INTER.POLAR>
0

>  <SCORE.INTER.ROT>
8

>  <SCORE.INTER.SOLV>
18.4521

>  <SCORE.INTER.VDW>
-23.9392

>  <SCORE.INTER.norm>
-0.510878

>  <SCORE.INTRA>
0.571437

>  <SCORE.INTRA.DIHEDRAL>
0.81179

>  <SCORE.INTRA.DIHEDRAL.0>
7.88077

>  <SCORE.INTRA.POLAR>
0

>  <SCORE.INTRA.POLAR.0>
0

>  <SCORE.INTRA.REPUL>
0

>  <SCORE.INTRA.REPUL.0>
0

>  <SCORE.INTRA.SOLV>
-0.611221

>  <SCORE.INTRA.SOLV.lig_0>
-63.2542

>  <SCORE.INTRA.VDW>
0.471153

>  <SCORE.INTRA.VDW.0>
-3.15072

>  <SCORE.INTRA.norm>
0.0219784

>  <SCORE.RESTR>
2.25457

>  <SCORE.RESTR.CAVITY>
2.25457

>  <SCORE.RESTR.norm>
0.0867142

>  <SCORE.SYSTEM>
0

>  <SCORE.SYSTEM.CONST>
0

>  <SCORE.SYSTEM.DIHEDRAL>
0

>  <SCORE.SYSTEM.SOLV>
0

>  <SCORE.SYSTEM.norm>
0

>  <SCORE.heavy>
26

>  <SCORE.norm>
-0.402185

>  <RMSD>
16.748

$$$$
ligand
 OpenBabel11021811473D
libRbt.so/2013.1/901 2013/11/27
 26 27  0  0  0  0  0  0  0  0999 V2000
   -1.4268   -3.1228    9.5439 C   0  0  0  0  0  0  0  0  0  0  0  0
   -6.1355   -5.4714    8.3749 C   0  0  0  0  0  0  0  0  0  0  0  0
   -4.9969   -4.8166    7.9169 C   0  0  0  0  0  0  0  0  0  0  0  0
   -3.6637   -4.8225    8.6687 C   0  0  0  0  0  0  0  0  0  0  0  0
   -2.7418   -3.2486   10.3189 C   0  0  1  0  0  0  0  0  0  0  0  0
   -8.5682   -4.7132    5.5394 C   0  0  0  0  0  0  0  0  0  0  0  0
   -7.3019   -4.7441    6.3965 C   0  0  0  0  0  0  0  0  0  0  0  0
   -5.0758   -4.1434    6.7020 C   0  0  0  0  0  0  0  0  0  0  0  0
   -4.8533   -4.0356   10.6437 C   0  0  0  0  0  0  0  0  0  0  0  0
   -2.9736   -2.5509   11.4983 C   0  0  2  0  0  0  0  0  0  0  0  0
   -2.0931   -1.5648   12.2701 C   0  0  0  0  0  0  0  0  0  0  0  0
   -1.0918   -2.2586   13.1965 C   0  0  0  0  0  0  0  0  0  0  0  0
   -7.3049   -5.4404    7.6125 N   0  0  0  0  0  0  0  0  0  0  0  0
   -3.7466   -4.0226    9.8993 N   0  0  0  0  0  0  0  0  0  0  0  0
   -6.1866   -4.1212    5.9892 N   0  0  0  0  0  0  0  0  0  0  0  0
   -6.1157   -6.0797    9.4450 O   0  0  0  0  0  0  0  0  0  0  0  0
   -2.6056   -2.7578   16.6819 O   0  5  0  0  0  0  0  0  0  0  0  0
    1.6191   -3.2781   17.2799 O   0  0  0  0  0  0  0  0  0  0  0  0
   -1.7474   -2.9458   14.2668 O   0  0  0  0  0  0  0  0  0  0  0  0
   -0.5291   -4.1529   16.2013 O   0  0  0  0  0  0  0  0  0  0  0  0
   -0.3842   -3.9443   18.7750 O   0  5  0  0  0  0  0  0  0  0  0  0
   -0.4038   -1.5921   15.9929 O   0  0  0  0  0  0  0  0  0  0  0  0
    0.9632   -5.7430   17.5351 O   0  0  0  0  0  0  0  0  0  0  0  0
   -4.5565   -3.0345   12.0403 S   0  0  0  0  0  0  0  0  0  0  0  0
   -1.2635   -2.7815   15.7939 P   0  0  2  0  0  0  0  0  0  0  0  0
    0.3628   -4.2515   17.5348 P   0  0  2  0  0  0  0  0  0  0  0  0
  2 16  2  0  0  0  0
  2  3  1  0  0  0  0
  2 13  1  0  0  0  0
  3  8  2  0  0  0  0
  3  4  1  0  0  0  0
  4 14  1  0  0  0  0
  5  1  1  6  0  0  0
  5 14  1  0  0  0  0
  5 10  1  0  0  0  0
  6  7  1  0  0  0  0
  7 13  1  0  0  0  0
  7 15  2  0  0  0  0
  8 15  1  0  0  0  0
  9 14  1  0  0  0  0
  9 24  1  0  0  0  0
 10 24  1  0  0  0  0
 10 11  1  1  0  0  0
 11 12  1  0  0  0  0
 12 19  1  0  0  0  0
 17 25  1  0  0  0  0
 19 25  1  0  0  0  0
 20 26  1  0  0  0  0
 21 26  1  0  0  0  0
 22 25  2  0  0  0  0
 23 26  2  0  0  0  0
 25 20  1  1  0  0  0
 26 18  1  6  0  0  0
M  CHG  2  17  -1  21  -1
M  END
>  <CHROM.1>
-70.25214717,-83.54360040,-66.56880578,-141.24347735,-132.08384448,-81.32382686
141.80757552,-66.00899828,-2.89905513,-3.76159956,12.40870712,-2.37664778
0.73709812,2.06898450

>  <Name>
ligand

>  <RI>
0

>  <Rbt.Current_Directory>
/home/itssahil/PROJECTS/Mol_Feturizer/New_Systems/rnas/3D2X

>  <Rbt.Executable>
rbdock ($Id: //depot/dev/client3/rdock/2013.1/src/exe/rbdock.cxx#4 $)

>  <Rbt.Library>
libRbt.so (2013.1, Build901 2013/11/27)

>  <Rbt.Parameter_File>
/export/apps/rDock/src/rDock_2013.1_src/data/scripts/dock_solv.prm

>  <Rbt.Receptor>
prm/blind_docking_20.prm

>  <SCORE>
-9.31846

>  <SCORE.INTER>
-14.649

>  <SCORE.INTER.CONST>
1

>  <SCORE.INTER.POLAR>
0

>  <SCORE.INTER.ROT>
8

>  <SCORE.INTER.SOLV>
16.6062

>  <SCORE.INTER.VDW>
-24.2347

>  <SCORE.INTER.norm>
-0.563424

>  <SCORE.INTRA>
2.60724

>  <SCORE.INTRA.DIHEDRAL>
5.95162

>  <SCORE.INTRA.DIHEDRAL.0>
7.88077

>  <SCORE.INTRA.POLAR>
0

>  <SCORE.INTRA.POLAR.0>
0

>  <SCORE.INTRA.REPUL>
0

>  <SCORE.INTRA.REPUL.0>
0

>  <SCORE.INTRA.SOLV>
-1.02948

>  <SCORE.INTRA.SOLV.lig_0>
-63.2542

>  <SCORE.INTRA.VDW>
0.146175

>  <SCORE.INTRA.VDW.0>
-3.15072

>  <SCORE.INTRA.norm>
0.100279

>  <SCORE.RESTR>
2.72332

>  <SCORE.RESTR.CAVITY>
2.72332

>  <SCORE.RESTR.norm>
0.104743

>  <SCORE.SYSTEM>
0

>  <SCORE.SYSTEM.CONST>
0

>  <SCORE.SYSTEM.DIHEDRAL>
0

>  <SCORE.SYSTEM.SOLV>
0

>  <SCORE.SYSTEM.norm>
0

>  <SCORE.heavy>
26

>  <SCORE.norm>
-0.358402

>  <RMSD>
16.833

$$$$
ligand
 OpenBabel11021811473D
libRbt.so/2013.1/901 2013/11/27
 26 27  0  0  0  0  0  0  0  0999 V2000
   -1.2249   -3.2409    9.6117 C   0  0  0  0  0  0  0  0  0  0  0  0
   -6.0256   -5.3929    8.4004 C   0  0  0  0  0  0  0  0  0  0  0  0
   -4.9812   -4.6706    7.8328 C   0  0  0  0  0  0  0  0  0  0  0  0
   -3.5923   -4.5612    8.4665 C   0  0  0  0  0  0  0  0  0  0  0  0
   -2.5915   -3.2662   10.3027 C   0  0  1  0  0  0  0  0  0  0  0  0
   -8.7388   -4.8857    5.7710 C   0  0  0  0  0  0  0  0  0  0  0  0
   -7.4057   -4.8033    6.5160 C   0  0  0  0  0  0  0  0  0  0  0  0
   -5.2120   -4.0370    6.6159 C   0  0  0  0  0  0  0  0  0  0  0  0
   -4.7991   -3.8048   10.4430 C   0  0  0  0  0  0  0  0  0  0  0  0
   -2.8104   -2.6501   11.5290 C   0  0  2  0  0  0  0  0  0  0  0  0
   -1.8669   -1.8542   12.4345 C   0  0  0  0  0  0  0  0  0  0  0  0
   -1.1261   -2.7343   13.4439 C   0  0  0  0  0  0  0  0  0  0  0  0
   -7.2545   -5.4658    7.7414 N   0  0  0  0  0  0  0  0  0  0  0  0
   -3.6545   -3.8674    9.7610 N   0  0  0  0  0  0  0  0  0  0  0  0
   -6.3778   -4.1131    6.0014 N   0  0  0  0  0  0  0  0  0  0  0  0
   -5.8705   -5.9699    9.4769 O   0  0  0  0  0  0  0  0  0  0  0  0
   -3.2758   -2.0445   16.4601 O   0  5  0  0  0  0  0  0  0  0  0  0
    0.4590   -5.4442   17.0296 O   0  0  0  0  0  0  0  0  0  0  0  0
   -1.9740   -3.1280   14.5273 O   0  0  0  0  0  0  0  0  0  0  0  0
   -1.4271   -3.7168   16.9844 O   0  0  0  0  0  0  0  0  0  0  0  0
    1.0340   -2.9223   16.9886 O   0  5  0  0  0  0  0  0  0  0  0  0
   -0.8065   -1.4060   16.0402 O   0  0  0  0  0  0  0  0  0  0  0  0
    0.0033   -3.9834   19.0862 O   0  0  0  0  0  0  0  0  0  0  0  0
   -4.4711   -2.9747   11.9410 S   0  0  0  0  0  0  0  0  0  0  0  0
   -1.8025   -2.5013   16.0008 P   0  0  2  0  0  0  0  0  0  0  0  0
    0.0845   -3.9453   17.4808 P   0  0  2  0  0  0  0  0  0  0  0  0
  2 16  2  0  0  0  0
  2  3  1  0  0  0  0
  2 13  1  0  0  0  0
  3  8  2  0  0  0  0
  3  4  1  0  0  0  0
  4 14  1  0  0  0  0
  5  1  1  6  0  0  0
  5 14  1  0  0  0  0
  5 10  1  0  0  0  0
  6  7  1  0  0  0  0
  7 13  1  0  0  0  0
  7 15  2  0  0  0  0
  8 15  1  0  0  0  0
  9 14  1  0  0  0  0
  9 24  1  0  0  0  0
 10 24  1  0  0  0  0
 10 11  1  1  0  0  0
 11 12  1  0  0  0  0
 12 19  1  0  0  0  0
 17 25  1  0  0  0  0
 19 25  1  0  0  0  0
 20 26  1  0  0  0  0
 21 26  1  0  0  0  0
 22 25  2  0  0  0  0
 23 26  2  0  0  0  0
 25 20  1  1  0  0  0
 26 18  1  6  0  0  0
M  CHG  2  17  -1  21  -1
M  END
>  <CHROM.1>
-63.82938527,-89.63280460,-76.14832344,-157.77172905,-107.45857818,-145.41734611
130.93198099,-123.02467987,-3.03830856,-3.65388760,12.43998264,-2.14630249
0.37318475,1.66492382

>  <Name>
ligand

>  <RI>
0

>  <Rbt.Current_Directory>
/home/itssahil/PROJECTS/Mol_Feturizer/New_Systems/rnas/3D2X

>  <Rbt.Executable>
rbdock ($Id: //depot/dev/client3/rdock/2013.1/src/exe/rbdock.cxx#4 $)

>  <Rbt.Library>
libRbt.so (2013.1, Build901 2013/11/27)

>  <Rbt.Parameter_File>
/export/apps/rDock/src/rDock_2013.1_src/data/scripts/dock_solv.prm

>  <Rbt.Receptor>
prm/blind_docking_20.prm

>  <SCORE>
-3.2661

>  <SCORE.INTER>
-13.021

>  <SCORE.INTER.CONST>
1

>  <SCORE.INTER.POLAR>
0

>  <SCORE.INTER.ROT>
8

>  <SCORE.INTER.SOLV>
13.164

>  <SCORE.INTER.VDW>
-22.002

>  <SCORE.INTER.norm>
-0.500809

>  <SCORE.INTRA>
6.72231

>  <SCORE.INTRA.DIHEDRAL>
10.7139

>  <SCORE.INTRA.DIHEDRAL.0>
7.88077

>  <SCORE.INTRA.POLAR>
0

>  <SCORE.INTRA.POLAR.0>
0

>  <SCORE.INTRA.REPUL>
0

>  <SCORE.INTRA.REPUL.0>
0

>  <SCORE.INTRA.SOLV>
0.0317781

>  <SCORE.INTRA.SOLV.lig_0>
-63.2542

>  <SCORE.INTRA.VDW>
1.34947

>  <SCORE.INTRA.VDW.0>
-3.15072

>  <SCORE.INTRA.norm>
0.25855

>  <SCORE.RESTR>
3.03263

>  <SCORE.RESTR.CAVITY>
3.03263

>  <SCORE.RESTR.norm>
0.11664

>  <SCORE.SYSTEM>
0

>  <SCORE.SYSTEM.CONST>
0

>  <SCORE.SYSTEM.DIHEDRAL>
0

>  <SCORE.SYSTEM.SOLV>
0

>  <SCORE.SYSTEM.norm>
0

>  <SCORE.heavy>
26

>  <SCORE.norm>
-0.125619

>  <RMSD>
16.865

$$$$
ligand
 OpenBabel11021811473D
libRbt.so/2013.1/901 2013/11/27
 26 27  0  0  0  0  0  0  0  0999 V2000
   -1.0877   -3.3438    9.6187 C   0  0  0  0  0  0  0  0  0  0  0  0
   -5.4792   -3.9358    7.3396 C   0  0  0  0  0  0  0  0  0  0  0  0
   -5.0681   -4.6688    8.4480 C   0  0  0  0  0  0  0  0  0  0  0  0
   -3.6264   -4.6790    8.9618 C   0  0  0  0  0  0  0  0  0  0  0  0
   -2.3443   -3.2377   10.4879 C   0  0  1  0  0  0  0  0  0  0  0  0
   -9.2031   -4.7506    7.3027 C   0  0  0  0  0  0  0  0  0  0  0  0
   -7.7262   -4.7265    7.6991 C   0  0  0  0  0  0  0  0  0  0  0  0
   -6.0264   -5.4096    9.1322 C   0  0  0  0  0  0  0  0  0  0  0  0
   -4.5240   -3.6653   10.9871 C   0  0  0  0  0  0  0  0  0  0  0  0
   -2.3728   -2.4850   11.6559 C   0  0  2  0  0  0  0  0  0  0  0  0
   -1.2911   -1.6369   12.3295 C   0  0  0  0  0  0  0  0  0  0  0  0
   -1.4233   -1.6031   13.8539 C   0  0  0  0  0  0  0  0  0  0  0  0
   -6.8211   -3.9588    6.9542 N   0  0  0  0  0  0  0  0  0  0  0  0
   -3.4883   -3.8484   10.1669 N   0  0  0  0  0  0  0  0  0  0  0  0
   -7.2926   -5.4235    8.7593 N   0  0  0  0  0  0  0  0  0  0  0  0
   -4.6678   -3.2657    6.7006 O   0  0  0  0  0  0  0  0  0  0  0  0
   -2.2322   -4.5463   16.1686 O   0  5  0  0  0  0  0  0  0  0  0  0
    2.2808   -2.9760   17.7000 O   0  0  0  0  0  0  0  0  0  0  0  0
   -1.2910   -2.9077   14.4268 O   0  0  0  0  0  0  0  0  0  0  0  0
    0.0269   -3.4453   16.5850 O   0  0  0  0  0  0  0  0  0  0  0  0
    0.9365   -1.0255   16.6606 O   0  5  0  0  0  0  0  0  0  0  0  0
   -2.1108   -2.0190   16.6974 O   0  0  0  0  0  0  0  0  0  0  0  0
    0.1093   -2.1745   18.8015 O   0  0  0  0  0  0  0  0  0  0  0  0
   -3.9676   -2.6938   12.3240 S   0  0  0  0  0  0  0  0  0  0  0  0
   -1.4461   -3.1507   16.0112 P   0  0  2  0  0  0  0  0  0  0  0  0
    0.8482   -2.3156   17.3804 P   0  0  2  0  0  0  0  0  0  0  0  0
  2 16  2  0  0  0  0
  2  3  1  0  0  0  0
  2 13  1  0  0  0  0
  3  8  2  0  0  0  0
  3  4  1  0  0  0  0
  4 14  1  0  0  0  0
  5  1  1  6  0  0  0
  5 14  1  0  0  0  0
  5 10  1  0  0  0  0
  6  7  1  0  0  0  0
  7 13  1  0  0  0  0
  7 15  2  0  0  0  0
  8 15  1  0  0  0  0
  9 14  1  0  0  0  0
  9 24  1  0  0  0  0
 10 24  1  0  0  0  0
 10 11  1  1  0  0  0
 11 12  1  0  0  0  0
 12 19  1  0  0  0  0
 17 25  1  0  0  0  0
 19 25  1  0  0  0  0
 20 26  1  0  0  0  0
 21 26  1  0  0  0  0
 22 25  2  0  0  0  0
 23 26  2  0  0  0  0
 25 20  1  1  0  0  0
 26 18  1  1  0  0  0
M  CHG  2  17  -1  21  -1
M  END
>  <CHROM.1>
103.76213251,-148.87554633,61.51696924,-151.35595587,-177.68667709,-145.11816414
141.45411876,-176.78528377,-2.73635076,-3.25846733,12.63238799,-2.21755942
0.35357310,1.62407294

>  <Name>
ligand

>  <RI>
0

>  <Rbt.Current_Directory>
/home/itssahil/PROJECTS/Mol_Feturizer/New_Systems/rnas/3D2X

>  <Rbt.Executable>
rbdock ($Id: //depot/dev/client3/rdock/2013.1/src/exe/rbdock.cxx#4 $)

>  <Rbt.Library>
libRbt.so (2013.1, Build901 2013/11/27)

>  <Rbt.Parameter_File>
/export/apps/rDock/src/rDock_2013.1_src/data/scripts/dock_solv.prm

>  <Rbt.Receptor>
prm/blind_docking_20.prm

>  <SCORE>
-6.82077

>  <SCORE.INTER>
-11.5962

>  <SCORE.INTER.CONST>
1

>  <SCORE.INTER.POLAR>
0

>  <SCORE.INTER.ROT>
8

>  <SCORE.INTER.SOLV>
16.5428

>  <SCORE.INTER.VDW>
-22.1784

>  <SCORE.INTER.norm>
-0.446006

>  <SCORE.INTRA>
0.764989

>  <SCORE.INTRA.DIHEDRAL>
0.857873

>  <SCORE.INTRA.DIHEDRAL.0>
7.88077

>  <SCORE.INTRA.POLAR>
0

>  <SCORE.INTRA.POLAR.0>
0

>  <SCORE.INTRA.REPUL>
0

>  <SCORE.INTRA.REPUL.0>
0

>  <SCORE.INTRA.SOLV>
0.0875109

>  <SCORE.INTRA.SOLV.lig_0>
-63.2542

>  <SCORE.INTRA.VDW>
0.292297

>  <SCORE.INTRA.VDW.0>
-3.15072

>  <SCORE.INTRA.norm>
0.0294227

>  <SCORE.RESTR>
4.01041

>  <SCORE.RESTR.CAVITY>
4.01041

>  <SCORE.RESTR.norm>
0.154246

>  <SCORE.SYSTEM>
0

>  <SCORE.SYSTEM.CONST>
0

>  <SCORE.SYSTEM.DIHEDRAL>
0

>  <SCORE.SYSTEM.SOLV>
0

>  <SCORE.SYSTEM.norm>
0

>  <SCORE.heavy>
26

>  <SCORE.norm>
-0.262337

>  <RMSD>
16.889

$$$$
ligand
 OpenBabel11021811473D
libRbt.so/2013.1/901 2013/11/27
 26 27  0  0  0  0  0  0  0  0999 V2000
   -0.9850   -3.3163    9.6945 C   0  0  0  0  0  0  0  0  0  0  0  0
   -5.7239   -5.1853    8.4385 C   0  0  0  0  0  0  0  0  0  0  0  0
   -4.8557   -4.3493    7.7441 C   0  0  0  0  0  0  0  0  0  0  0  0
   -3.4525   -3.9941    8.2415 C   0  0  0  0  0  0  0  0  0  0  0  0
   -2.3834   -3.1936   10.3070 C   0  0  1  0  0  0  0  0  0  0  0  0
   -8.6938   -5.2516    6.0494 C   0  0  0  0  0  0  0  0  0  0  0  0
   -7.3319   -4.9247    6.6638 C   0  0  0  0  0  0  0  0  0  0  0  0
   -5.2833   -3.8321    6.5255 C   0  0  0  0  0  0  0  0  0  0  0  0
   -4.6551   -3.3334   10.2544 C   0  0  0  0  0  0  0  0  0  0  0  0
   -2.5838   -2.7381   11.6046 C   0  0  2  0  0  0  0  0  0  0  0  0
   -1.5875   -2.2731   12.6698 C   0  0  0  0  0  0  0  0  0  0  0  0
   -1.8098   -2.9440   14.0273 C   0  0  0  0  0  0  0  0  0  0  0  0
   -6.9774   -5.4820    7.8996 N   0  0  0  0  0  0  0  0  0  0  0  0
   -3.4907   -3.5020    9.6262 N   0  0  0  0  0  0  0  0  0  0  0  0
   -6.4706   -4.1197    6.0252 N   0  0  0  0  0  0  0  0  0  0  0  0
   -5.3913   -5.6665    9.5218 O   0  0  0  0  0  0  0  0  0  0  0  0
   -1.3751   -0.9763   16.0205 O   0  5  0  0  0  0  0  0  0  0  0  0
   -2.2343   -4.6838   16.2451 O   0  0  0  0  0  0  0  0  0  0  0  0
   -0.5882   -3.0737   14.7612 O   0  0  0  0  0  0  0  0  0  0  0  0
   -0.6318   -3.0211   17.3455 O   0  0  0  0  0  0  0  0  0  0  0  0
    0.1870   -5.4112   16.7929 O   0  5  0  0  0  0  0  0  0  0  0  0
    1.1202   -1.6500   16.0542 O   0  0  0  0  0  0  0  0  0  0  0  0
   -1.5072   -5.0176   18.6805 O   0  0  0  0  0  0  0  0  0  0  0  0
   -4.3020   -2.8107   11.8801 S   0  0  0  0  0  0  0  0  0  0  0  0
   -0.2739   -2.1498   16.0422 P   0  0  2  0  0  0  0  0  0  0  0  0
   -0.9640   -4.5894   17.2290 P   0  0  2  0  0  0  0  0  0  0  0  0
  2 16  2  0  0  0  0
  2  3  1  0  0  0  0
  2 13  1  0  0  0  0
  3  8  2  0  0  0  0
  3  4  1  0  0  0  0
  4 14  1  0  0  0  0
  5  1  1  6  0  0  0
  5 14  1  0  0  0  0
  5 10  1  0  0  0  0
  6  7  1  0  0  0  0
  7 13  1  0  0  0  0
  7 15  2  0  0  0  0
  8 15  1  0  0  0  0
  9 14  1  0  0  0  0
  9 24  1  0  0  0  0
 10 24  1  0  0  0  0
 10 11  1  1  0  0  0
 11 12  1  0  0  0  0
 12 19  1  0  0  0  0
 17 25  1  0  0  0  0
 19 25  1  0  0  0  0
 20 26  1  0  0  0  0
 21 26  1  0  0  0  0
 22 25  2  0  0  0  0
 23 26  2  0  0  0  0
 25 20  1  1  0  0  0
 26 18  1  6  0  0  0
M  CHG  2  17  -1  21  -1
M  END
>  <CHROM.1>
-51.70506863,-130.32708938,149.96093025,176.41488484,107.03980885,121.92860583
-12.55917433,-59.07876668,-2.89353854,-3.67252095,12.40660842,-2.30604134
0.71771499,1.98149291

>  <Name>
ligand

>  <RI>
0

>  <Rbt.Current_Directory>
/home/itssahil/PROJECTS/Mol_Feturizer/New_Systems/rnas/3D2X

>  <Rbt.Executable>
rbdock ($Id: //depot/dev/client3/rdock/2013.1/src/exe/rbdock.cxx#4 $)

>  <Rbt.Library>
libRbt.so (2013.1, Build901 2013/11/27)

>  <Rbt.Parameter_File>
/export/apps/rDock/src/rDock_2013.1_src/data/scripts/dock_solv.prm

>  <Rbt.Receptor>
prm/blind_docking_20.prm

>  <SCORE>
-1.90322

>  <SCORE.INTER>
-11.9363

>  <SCORE.INTER.CONST>
1

>  <SCORE.INTER.POLAR>
0

>  <SCORE.INTER.ROT>
8

>  <SCORE.INTER.SOLV>
19.653

>  <SCORE.INTER.VDW>
-23.4419

>  <SCORE.INTER.norm>
-0.459087

>  <SCORE.INTRA>
7.08336

>  <SCORE.INTRA.DIHEDRAL>
10.7511

>  <SCORE.INTRA.DIHEDRAL.0>
7.88077

>  <SCORE.INTRA.POLAR>
0

>  <SCORE.INTRA.POLAR.0>
0

>  <SCORE.INTRA.REPUL>
0

>  <SCORE.INTRA.REPUL.0>
0

>  <SCORE.INTRA.SOLV>
-1.60542

>  <SCORE.INTRA.SOLV.lig_0>
-63.2542

>  <SCORE.INTRA.VDW>
2.51054

>  <SCORE.INTRA.VDW.0>
-3.15072

>  <SCORE.INTRA.norm>
0.272437

>  <SCORE.RESTR>
2.94968

>  <SCORE.RESTR.CAVITY>
2.94968

>  <SCORE.RESTR.norm>
0.113449

>  <SCORE.SYSTEM>
0

>  <SCORE.SYSTEM.CONST>
0

>  <SCORE.SYSTEM.DIHEDRAL>
0

>  <SCORE.SYSTEM.SOLV>
0

>  <SCORE.SYSTEM.norm>
0

>  <SCORE.heavy>
26

>  <SCORE.norm>
-0.0732007

>  <RMSD>
16.908

$$$$
ligand
 OpenBabel11021811473D
libRbt.so/2013.1/901 2013/11/27
 26 27  0  0  0  0  0  0  0  0999 V2000
   -1.7945   -3.5429    9.3404 C   0  0  0  0  0  0  0  0  0  0  0  0
   -6.0196   -4.4106    6.3978 C   0  0  0  0  0  0  0  0  0  0  0  0
   -5.7036   -4.7250    7.7154 C   0  0  0  0  0  0  0  0  0  0  0  0
   -4.2756   -4.7040    8.2658 C   0  0  0  0  0  0  0  0  0  0  0  0
   -3.1167   -3.5661   10.1130 C   0  0  1  0  0  0  0  0  0  0  0  0
   -9.8141   -4.7672    6.4828 C   0  0  0  0  0  0  0  0  0  0  0  0
   -8.3465   -4.7615    6.9132 C   0  0  0  0  0  0  0  0  0  0  0  0
   -6.7465   -5.0522    8.5761 C   0  0  0  0  0  0  0  0  0  0  0  0
   -5.3307   -4.0366   10.3578 C   0  0  0  0  0  0  0  0  0  0  0  0
   -3.2372   -3.0237   11.3869 C   0  0  2  0  0  0  0  0  0  0  0  0
   -2.2109   -2.3212   12.2794 C   0  0  0  0  0  0  0  0  0  0  0  0
   -2.2643   -2.7927   13.7344 C   0  0  0  0  0  0  0  0  0  0  0  0
   -7.3531   -4.4260    5.9837 N   0  0  0  0  0  0  0  0  0  0  0  0
   -4.2328   -4.0939    9.6026 N   0  0  0  0  0  0  0  0  0  0  0  0
   -8.0038   -5.0630    8.1739 N   0  0  0  0  0  0  0  0  0  0  0  0
   -5.1313   -4.1159    5.5980 O   0  0  0  0  0  0  0  0  0  0  0  0
   -2.5265   -2.6039   16.5725 O   0  5  0  0  0  0  0  0  0  0  0  0
   -0.3071   -3.6604   18.9193 O   0  0  0  0  0  0  0  0  0  0  0  0
   -1.0824   -2.4279   14.4540 O   0  0  0  0  0  0  0  0  0  0  0  0
   -0.4083   -4.0068   16.3869 O   0  0  0  0  0  0  0  0  0  0  0  0
    0.9364   -5.6614   17.8507 O   0  5  0  0  0  0  0  0  0  0  0  0
   -0.2116   -1.4579   16.6716 O   0  0  0  0  0  0  0  0  0  0  0  0
    1.7788   -3.2648   17.4827 O   0  0  0  0  0  0  0  0  0  0  0  0
   -4.8812   -3.3171   11.8813 S   0  0  0  0  0  0  0  0  0  0  0  0
   -1.0025   -2.5492   16.0577 P   0  0  2  0  0  0  0  0  0  0  0  0
    0.5235   -4.2512   17.6736 P   0  0  2  0  0  0  0  0  0  0  0  0
  2 16  2  0  0  0  0
  2  3  1  0  0  0  0
  2 13  1  0  0  0  0
  3  8  2  0  0  0  0
  3  4  1  0  0  0  0
  4 14  1  0  0  0  0
  5  1  1  6  0  0  0
  5 14  1  0  0  0  0
  5 10  1  0  0  0  0
  6  7  1  0  0  0  0
  7 13  1  0  0  0  0
  7 15  2  0  0  0  0
  8 15  1  0  0  0  0
  9 14  1  0  0  0  0
  9 24  1  0  0  0  0
 10 24  1  0  0  0  0
 10 11  1  1  0  0  0
 11 12  1  0  0  0  0
 12 19  1  0  0  0  0
 17 25  1  0  0  0  0
 19 25  1  0  0  0  0
 20 26  1  0  0  0  0
 21 26  1  0  0  0  0
 22 25  2  0  0  0  0
 23 26  2  0  0  0  0
 25 20  1  1  0  0  0
 26 18  1  1  0  0  0
M  CHG  2  17  -1  21  -1
M  END
>  <CHROM.1>
137.68428684,-135.82719797,163.34216509,-157.80778581,168.01913087,-100.91149773
-19.45990041,52.62383804,-3.13299684,-3.71276163,12.36963534,-2.17204410
0.13250945,1.55616727

>  <Name>
ligand

>  <RI>
0

>  <Rbt.Current_Directory>
/home/itssahil/PROJECTS/Mol_Feturizer/New_Systems/rnas/3D2X

>  <Rbt.Executable>
rbdock ($Id: //depot/dev/client3/rdock/2013.1/src/exe/rbdock.cxx#4 $)

>  <Rbt.Library>
libRbt.so (2013.1, Build901 2013/11/27)

>  <Rbt.Parameter_File>
/export/apps/rDock/src/rDock_2013.1_src/data/scripts/dock_solv.prm

>  <Rbt.Receptor>
prm/blind_docking_20.prm

>  <SCORE>
-3.75257

>  <SCORE.INTER>
-11.1464

>  <SCORE.INTER.CONST>
1

>  <SCORE.INTER.POLAR>
0

>  <SCORE.INTER.ROT>
8

>  <SCORE.INTER.SOLV>
16.5386

>  <SCORE.INTER.VDW>
-21.8772

>  <SCORE.INTER.norm>
-0.428709

>  <SCORE.INTRA>
4.74684

>  <SCORE.INTRA.DIHEDRAL>
2.18556

>  <SCORE.INTRA.DIHEDRAL.0>
7.88077

>  <SCORE.INTRA.POLAR>
0

>  <SCORE.INTRA.POLAR.0>
0

>  <SCORE.INTRA.REPUL>
0

>  <SCORE.INTRA.REPUL.0>
0

>  <SCORE.INTRA.SOLV>
-1.22838

>  <SCORE.INTRA.SOLV.lig_0>
-63.2542

>  <SCORE.INTRA.VDW>
4.26825

>  <SCORE.INTRA.VDW.0>
-3.15072

>  <SCORE.INTRA.norm>
0.182571

>  <SCORE.RESTR>
2.64704

>  <SCORE.RESTR.CAVITY>
2.64704

>  <SCORE.RESTR.norm>
0.101809

>  <SCORE.SYSTEM>
0

>  <SCORE.SYSTEM.CONST>
0

>  <SCORE.SYSTEM.DIHEDRAL>
0

>  <SCORE.SYSTEM.SOLV>
0

>  <SCORE.SYSTEM.norm>
0

>  <SCORE.heavy>
26

>  <SCORE.norm>
-0.144329

>  <RMSD>
16.931

$$$$
ligand
 OpenBabel11021811473D
libRbt.so/2013.1/901 2013/11/27
 26 27  0  0  0  0  0  0  0  0999 V2000
   -1.8086   -4.0112   10.4028 C   0  0  0  0  0  0  0  0  0  0  0  0
   -5.9951   -4.8964    8.5634 C   0  0  0  0  0  0  0  0  0  0  0  0
   -4.6794   -4.8699    9.0136 C   0  0  0  0  0  0  0  0  0  0  0  0
   -3.4746   -4.7169    8.0821 C   0  0  0  0  0  0  0  0  0  0  0  0
   -2.1158   -3.0387    9.2602 C   0  0  1  0  0  0  0  0  0  0  0  0
   -7.8623   -5.2040   11.8727 C   0  0  0  0  0  0  0  0  0  0  0  0
   -6.7319   -5.0962   10.8482 C   0  0  0  0  0  0  0  0  0  0  0  0
   -4.4567   -4.9650   10.3836 C   0  0  0  0  0  0  0  0  0  0  0  0
   -3.0510   -2.4607    7.2666 C   0  0  0  0  0  0  0  0  0  0  0  0
   -1.6130   -1.7433    9.2377 C   0  0  2  0  0  0  0  0  0  0  0  0
   -0.7072   -1.0015   10.2239 C   0  0  0  0  0  0  0  0  0  0  0  0
   -1.3136   -0.8937   11.6250 C   0  0  0  0  0  0  0  0  0  0  0  0
   -7.0390   -5.0100    9.4838 N   0  0  0  0  0  0  0  0  0  0  0  0
   -2.8706   -3.3830    8.2130 N   0  0  0  0  0  0  0  0  0  0  0  0
   -5.4513   -5.0716   11.2449 N   0  0  0  0  0  0  0  0  0  0  0  0
   -6.2430   -4.8167    7.3600 O   0  0  0  0  0  0  0  0  0  0  0  0
   -3.0194   -2.9428   13.4682 O   0  5  0  0  0  0  0  0  0  0  0  0
   -2.5192   -3.9034   16.3969 O   0  0  0  0  0  0  0  0  0  0  0  0
   -0.8649   -1.9498   12.4799 O   0  0  0  0  0  0  0  0  0  0  0  0
   -0.7834   -3.4714   14.5683 O   0  0  0  0  0  0  0  0  0  0  0  0
   -0.1622   -4.9508   16.5967 O   0  5  0  0  0  0  0  0  0  0  0  0
   -1.7418   -1.0906   14.7404 O   0  0  0  0  0  0  0  0  0  0  0  0
   -0.4850   -2.4201   16.8792 O   0  0  0  0  0  0  0  0  0  0  0  0
   -2.2531   -1.0036    7.7967 S   0  0  0  0  0  0  0  0  0  0  0  0
   -1.6082   -2.2809   13.8695 P   0  0  2  0  0  0  0  0  0  0  0  0
   -0.9356   -3.7747   16.1394 P   0  0  2  0  0  0  0  0  0  0  0  0
  2 16  2  0  0  0  0
  2  3  1  0  0  0  0
  2 13  1  0  0  0  0
  3  8  2  0  0  0  0
  3  4  1  0  0  0  0
  4 14  1  0  0  0  0
  5  1  1  6  0  0  0
  5 14  1  0  0  0  0
  5 10  1  0  0  0  0
  6  7  1  0  0  0  0
  7 13  1  0  0  0  0
  7 15  2  0  0  0  0
  8 15  1  0  0  0  0
  9 14  1  0  0  0  0
  9 24  1  0  0  0  0
 10 24  1  0  0  0  0
 10 11  1  1  0  0  0
 11 12  1  0  0  0  0
 12 19  1  0  0  0  0
 17 25  1  0  0  0  0
 19 25  1  0  0  0  0
 20 26  1  0  0  0  0
 21 26  1  0  0  0  0
 22 25  2  0  0  0  0
 23 26  2  0  0  0  0
 25 20  1  1  0  0  0
 26 18  1  1  0  0  0
M  CHG  2  17  -1  21  -1
M  END
>  <CHROM.1>
107.69913656,-60.01173288,94.58704260,75.34083947,-164.93936753,-86.69939627
71.24286383,51.66475113,-2.82161507,-3.26826481,11.69528626,-2.16121161,0.61819397
1.83268301

>  <Name>
ligand

>  <RI>
0

>  <Rbt.Current_Directory>
/home/itssahil/PROJECTS/Mol_Feturizer/New_Systems/rnas/3D2X

>  <Rbt.Executable>
rbdock ($Id: //depot/dev/client3/rdock/2013.1/src/exe/rbdock.cxx#4 $)

>  <Rbt.Library>
libRbt.so (2013.1, Build901 2013/11/27)

>  <Rbt.Parameter_File>
/export/apps/rDock/src/rDock_2013.1_src/data/scripts/dock_solv.prm

>  <Rbt.Receptor>
prm/blind_docking_20.prm

>  <SCORE>
-5.05955

>  <SCORE.INTER>
-10.6445

>  <SCORE.INTER.CONST>
1

>  <SCORE.INTER.POLAR>
0

>  <SCORE.INTER.ROT>
8

>  <SCORE.INTER.SOLV>
20.5542

>  <SCORE.INTER.VDW>
-22.8811

>  <SCORE.INTER.norm>
-0.409402

>  <SCORE.INTRA>
1.98827

>  <SCORE.INTRA.DIHEDRAL>
2.04391

>  <SCORE.INTRA.DIHEDRAL.0>
7.88077

>  <SCORE.INTRA.POLAR>
0

>  <SCORE.INTRA.POLAR.0>
0

>  <SCORE.INTRA.REPUL>
0

>  <SCORE.INTRA.REPUL.0>
0

>  <SCORE.INTRA.SOLV>
-0.0428907

>  <SCORE.INTRA.SOLV.lig_0>
-63.2542

>  <SCORE.INTRA.VDW>
0.987762

>  <SCORE.INTRA.VDW.0>
-3.15072

>  <SCORE.INTRA.norm>
0.076472

>  <SCORE.RESTR>
3.59664

>  <SCORE.RESTR.CAVITY>
3.59664

>  <SCORE.RESTR.norm>
0.138332

>  <SCORE.SYSTEM>
0

>  <SCORE.SYSTEM.CONST>
0

>  <SCORE.SYSTEM.DIHEDRAL>
0

>  <SCORE.SYSTEM.SOLV>
0

>  <SCORE.SYSTEM.norm>
0

>  <SCORE.heavy>
26

>  <SCORE.norm>
-0.194598

>  <RMSD>
16.954

$$$$
ligand
 OpenBabel11021811473D
libRbt.so/2013.1/901 2013/11/27
 26 27  0  0  0  0  0  0  0  0999 V2000
   -4.7245   -3.4135   11.5622 C   0  0  0  0  0  0  0  0  0  0  0  0
   -7.0225   -4.9901    8.9696 C   0  0  0  0  0  0  0  0  0  0  0  0
   -5.7093   -4.8587    8.5303 C   0  0  0  0  0  0  0  0  0  0  0  0
   -4.5001   -5.3307    9.3412 C   0  0  0  0  0  0  0  0  0  0  0  0
   -3.6095   -3.3602   10.5136 C   0  0  1  0  0  0  0  0  0  0  0  0
   -8.9066   -3.5378    5.9907 C   0  0  0  0  0  0  0  0  0  0  0  0
   -7.7710   -3.9999    6.9049 C   0  0  0  0  0  0  0  0  0  0  0  0
   -5.4938   -4.2890    7.2795 C   0  0  0  0  0  0  0  0  0  0  0  0
   -2.4967   -4.1143    8.6762 C   0  0  0  0  0  0  0  0  0  0  0  0
   -2.6096   -2.3956   10.5472 C   0  0  2  0  0  0  0  0  0  0  0  0
   -2.3550   -1.2484   11.5283 C   0  0  0  0  0  0  0  0  0  0  0  0
   -1.4827   -1.6620   12.7158 C   0  0  0  0  0  0  0  0  0  0  0  0
   -8.0710   -4.5591    8.1542 N   0  0  0  0  0  0  0  0  0  0  0  0
   -3.5243   -4.2452    9.5164 N   0  0  0  0  0  0  0  0  0  0  0  0
   -6.4927   -3.8855    6.5167 N   0  0  0  0  0  0  0  0  0  0  0  0
   -7.2641   -5.4868   10.0699 O   0  0  0  0  0  0  0  0  0  0  0  0
   -1.5099   -4.1563   14.6387 O   0  5  0  0  0  0  0  0  0  0  0  0
    0.4090   -4.0754   17.0069 O   0  0  0  0  0  0  0  0  0  0  0  0
   -2.2513   -1.8047   13.9144 O   0  0  0  0  0  0  0  0  0  0  0  0
   -0.2104   -2.1282   15.4679 O   0  0  0  0  0  0  0  0  0  0  0  0
    1.9209   -1.9778   16.9251 O   0  5  0  0  0  0  0  0  0  0  0  0
   -2.5883   -2.5503   16.3532 O   0  0  0  0  0  0  0  0  0  0  0  0
   -0.4058   -1.8581   18.0023 O   0  0  0  0  0  0  0  0  0  0  0  0
   -1.6072   -2.6928    9.1544 S   0  0  0  0  0  0  0  0  0  0  0  0
   -1.7023   -2.6495   15.1706 P   0  0  2  0  0  0  0  0  0  0  0  0
    0.5299   -2.4779   16.8510 P   0  0  2  0  0  0  0  0  0  0  0  0
  2 16  2  0  0  0  0
  2  3  1  0  0  0  0
  2 13  1  0  0  0  0
  3  8  2  0  0  0  0
  3  4  1  0  0  0  0
  4 14  1  0  0  0  0
  5  1  1  1  0  0  0
  5 14  1  0  0  0  0
  5 10  1  0  0  0  0
  6  7  1  0  0  0  0
  7 13  1  0  0  0  0
  7 15  2  0  0  0  0
  8 15  1  0  0  0  0
  9 14  1  0  0  0  0
  9 24  1  0  0  0  0
 10 24  1  0  0  0  0
 10 11  1  6  0  0  0
 11 12  1  0  0  0  0
 12 19  1  0  0  0  0
 17 25  1  0  0  0  0
 19 25  1  0  0  0  0
 20 26  1  0  0  0  0
 21 26  1  0  0  0  0
 22 25  2  0  0  0  0
 23 26  2  0  0  0  0
 25 20  1  1  0  0  0
 26 18  1  1  0  0  0
M  CHG  2  17  -1  21  -1
M  END
>  <CHROM.1>
-126.25600220,88.84724712,-105.48468328,86.20905515,160.77796255,-82.70583820
-61.52383987,51.87573851,-3.02297236,-3.24564778,12.02814251,2.24363260,-0.34667908
-1.50893791

>  <Name>
ligand

>  <RI>
0

>  <Rbt.Current_Directory>
/home/itssahil/PROJECTS/Mol_Feturizer/New_Systems/rnas/3D2X

>  <Rbt.Executable>
rbdock ($Id: //depot/dev/client3/rdock/2013.1/src/exe/rbdock.cxx#4 $)

>  <Rbt.Library>
libRbt.so (2013.1, Build901 2013/11/27)

>  <Rbt.Parameter_File>
/export/apps/rDock/src/rDock_2013.1_src/data/scripts/dock_solv.prm

>  <Rbt.Receptor>
prm/blind_docking_20.prm

>  <SCORE>
-4.60493

>  <SCORE.INTER>
-8.25456

>  <SCORE.INTER.CONST>
1

>  <SCORE.INTER.POLAR>
0

>  <SCORE.INTER.ROT>
8

>  <SCORE.INTER.SOLV>
19.0255

>  <SCORE.INTER.VDW>
-20.7782

>  <SCORE.INTER.norm>
-0.317483

>  <SCORE.INTRA>
0.73993

>  <SCORE.INTRA.DIHEDRAL>
4.12537

>  <SCORE.INTRA.DIHEDRAL.0>
7.88077

>  <SCORE.INTRA.POLAR>
0

>  <SCORE.INTRA.POLAR.0>
0

>  <SCORE.INTRA.REPUL>
0

>  <SCORE.INTRA.REPUL.0>
0

>  <SCORE.INTRA.SOLV>
-0.853294

>  <SCORE.INTRA.SOLV.lig_0>
-63.2542

>  <SCORE.INTRA.VDW>
-0.896111

>  <SCORE.INTRA.VDW.0>
-3.15072

>  <SCORE.INTRA.norm>
0.0284588

>  <SCORE.RESTR>
2.90971

>  <SCORE.RESTR.CAVITY>
2.90971

>  <SCORE.RESTR.norm>
0.111912

>  <SCORE.SYSTEM>
0

>  <SCORE.SYSTEM.CONST>
0

>  <SCORE.SYSTEM.DIHEDRAL>
0

>  <SCORE.SYSTEM.SOLV>
0

>  <SCORE.SYSTEM.norm>
0

>  <SCORE.heavy>
26

>  <SCORE.norm>
-0.177113

>  <RMSD>
16.980

$$$$
ligand
 OpenBabel11021811473D
libRbt.so/2013.1/901 2013/11/27
 26 27  0  0  0  0  0  0  0  0999 V2000
   -2.0203   -3.3892    8.5950 C   0  0  0  0  0  0  0  0  0  0  0  0
   -6.1788   -4.5405    6.5897 C   0  0  0  0  0  0  0  0  0  0  0  0
   -5.8827   -4.8292    7.9177 C   0  0  0  0  0  0  0  0  0  0  0  0
   -4.4571   -5.0311    8.4368 C   0  0  0  0  0  0  0  0  0  0  0  0
   -3.0876   -3.4197    9.6930 C   0  0  1  0  0  0  0  0  0  0  0  0
   -9.9722   -4.2097    6.7734 C   0  0  0  0  0  0  0  0  0  0  0  0
   -8.5140   -4.4407    7.1728 C   0  0  0  0  0  0  0  0  0  0  0  0
   -6.9398   -4.9148    8.8180 C   0  0  0  0  0  0  0  0  0  0  0  0
   -5.0606   -4.0976   10.6045 C   0  0  0  0  0  0  0  0  0  0  0  0
   -2.9799   -2.6558   10.8490 C   0  0  2  0  0  0  0  0  0  0  0  0
   -1.8990   -1.6721   11.3044 C   0  0  0  0  0  0  0  0  0  0  0  0
   -1.8825   -1.4645   12.8206 C   0  0  0  0  0  0  0  0  0  0  0  0
   -7.5062   -4.3420    6.2044 N   0  0  0  0  0  0  0  0  0  0  0  0
   -4.1894   -4.1691    9.5971 N   0  0  0  0  0  0  0  0  0  0  0  0
   -8.1911   -4.7248    8.4428 N   0  0  0  0  0  0  0  0  0  0  0  0
   -5.2776   -4.4556    5.7552 O   0  0  0  0  0  0  0  0  0  0  0  0
   -2.5995   -2.3723   15.7557 O   0  5  0  0  0  0  0  0  0  0  0  0
    0.1094   -5.9857   17.0314 O   0  0  0  0  0  0  0  0  0  0  0  0
   -1.3773   -2.6135   13.5079 O   0  0  0  0  0  0  0  0  0  0  0  0
   -0.7488   -4.1072   15.5222 O   0  0  0  0  0  0  0  0  0  0  0  0
    0.3143   -3.5264   17.8071 O   0  5  0  0  0  0  0  0  0  0  0  0
   -0.1409   -1.6078   15.5271 O   0  0  0  0  0  0  0  0  0  0  0  0
   -1.9846   -4.6620   17.6900 O   0  0  0  0  0  0  0  0  0  0  0  0
   -4.3773   -3.0431   11.8136 S   0  0  0  0  0  0  0  0  0  0  0  0
   -1.1477   -2.6072   15.1018 P   0  0  2  0  0  0  0  0  0  0  0  0
   -0.5130   -4.5017   17.0624 P   0  0  2  0  0  0  0  0  0  0  0  0
  2 16  2  0  0  0  0
  2  3  1  0  0  0  0
  2 13  1  0  0  0  0
  3  8  2  0  0  0  0
  3  4  1  0  0  0  0
  4 14  1  0  0  0  0
  5  1  1  6  0  0  0
  5 14  1  0  0  0  0
  5 10  1  0  0  0  0
  6  7  1  0  0  0  0
  7 13  1  0  0  0  0
  7 15  2  0  0  0  0
  8 15  1  0  0  0  0
  9 14  1  0  0  0  0
  9 24  1  0  0  0  0
 10 24  1  0  0  0  0
 10 11  1  1  0  0  0
 11 12  1  0  0  0  0
 12 19  1  0  0  0  0
 17 25  1  0  0  0  0
 19 25  1  0  0  0  0
 20 26  1  0  0  0  0
 21 26  1  0  0  0  0
 22 25  2  0  0  0  0
 23 26  2  0  0  0  0
 25 20  1  1  0  0  0
 26 18  1  1  0  0  0
M  CHG  2  17  -1  21  -1
M  END
>  <CHROM.1>
127.34194610,-157.81482646,71.73633197,-131.86604877,175.06737702,-64.86269832
62.09387186,-170.34810751,-3.37322084,-3.68429503,11.99349876,-2.26036362
0.49078035,1.85857365

>  <Name>
ligand

>  <RI>
0

>  <Rbt.Current_Directory>
/home/itssahil/PROJECTS/Mol_Feturizer/New_Systems/rnas/3D2X

>  <Rbt.Executable>
rbdock ($Id: //depot/dev/client3/rdock/2013.1/src/exe/rbdock.cxx#4 $)

>  <Rbt.Library>
libRbt.so (2013.1, Build901 2013/11/27)

>  <Rbt.Parameter_File>
/export/apps/rDock/src/rDock_2013.1_src/data/scripts/dock_solv.prm

>  <Rbt.Receptor>
prm/blind_docking_20.prm

>  <SCORE>
-8.8212

>  <SCORE.INTER>
-11.3779

>  <SCORE.INTER.CONST>
1

>  <SCORE.INTER.POLAR>
0

>  <SCORE.INTER.ROT>
8

>  <SCORE.INTER.SOLV>
17.3389

>  <SCORE.INTER.VDW>
-22.2983

>  <SCORE.INTER.norm>
-0.437613

>  <SCORE.INTRA>
0.172688

>  <SCORE.INTRA.DIHEDRAL>
-2.04823

>  <SCORE.INTRA.DIHEDRAL.0>
7.88077

>  <SCORE.INTRA.POLAR>
0

>  <SCORE.INTRA.POLAR.0>
0

>  <SCORE.INTRA.REPUL>
0

>  <SCORE.INTRA.REPUL.0>
0

>  <SCORE.INTRA.SOLV>
0.513512

>  <SCORE.INTRA.SOLV.lig_0>
-63.2542

>  <SCORE.INTRA.VDW>
0.940049

>  <SCORE.INTRA.VDW.0>
-3.15072

>  <SCORE.INTRA.norm>
0.00664186

>  <SCORE.RESTR>
2.38404

>  <SCORE.RESTR.CAVITY>
2.38404

>  <SCORE.RESTR.norm>
0.0916938

>  <SCORE.SYSTEM>
0

>  <SCORE.SYSTEM.CONST>
0

>  <SCORE.SYSTEM.DIHEDRAL>
0

>  <SCORE.SYSTEM.SOLV>
0

>  <SCORE.SYSTEM.norm>
0

>  <SCORE.heavy>
26

>  <SCORE.norm>
-0.339277

>  <RMSD>
16.999

$$$$
ligand
 OpenBabel11021811473D
libRbt.so/2013.1/901 2013/11/27
 26 27  0  0  0  0  0  0  0  0999 V2000
   -0.6307   -2.1949   10.0135 C   0  0  0  0  0  0  0  0  0  0  0  0
   -2.8092   -2.2229   14.9618 C   0  0  0  0  0  0  0  0  0  0  0  0
   -1.7290   -2.3776   14.0992 C   0  0  0  0  0  0  0  0  0  0  0  0
   -1.6401   -1.6954   12.7320 C   0  0  0  0  0  0  0  0  0  0  0  0
   -2.0167   -2.6379   10.4914 C   0  0  1  0  0  0  0  0  0  0  0  0
   -1.6522   -4.3322   17.9190 C   0  0  0  0  0  0  0  0  0  0  0  0
   -1.6904   -3.6424   16.5545 C   0  0  0  0  0  0  0  0  0  0  0  0
   -0.6695   -3.1763   14.5174 C   0  0  0  0  0  0  0  0  0  0  0  0
   -3.6675   -2.8578   12.0438 C   0  0  0  0  0  0  0  0  0  0  0  0
   -2.8985   -3.3238    9.6648 C   0  0  2  0  0  0  0  0  0  0  0  0
   -2.7570   -3.7893    8.2134 C   0  0  0  0  0  0  0  0  0  0  0  0
   -4.1016   -4.1095    7.5562 C   0  0  0  0  0  0  0  0  0  0  0  0
   -2.7979   -2.8582   16.2052 N   0  0  0  0  0  0  0  0  0  0  0  0
   -2.4520   -2.4050   11.7328 N   0  0  0  0  0  0  0  0  0  0  0  0
   -0.6692   -3.7719   15.6955 N   0  0  0  0  0  0  0  0  0  0  0  0
   -3.7712   -1.5270   14.6362 O   0  0  0  0  0  0  0  0  0  0  0  0
   -6.8173   -3.5047    8.4246 O   0  5  0  0  0  0  0  0  0  0  0  0
   -9.4804   -5.1984    7.6438 O   0  0  0  0  0  0  0  0  0  0  0  0
   -4.8193   -5.1145    8.2791 O   0  0  0  0  0  0  0  0  0  0  0  0
   -7.0317   -5.6375    7.0482 O   0  0  0  0  0  0  0  0  0  0  0  0
   -8.2970   -3.6940    5.9035 O   0  5  0  0  0  0  0  0  0  0  0  0
   -6.9100   -5.7986    9.6126 O   0  0  0  0  0  0  0  0  0  0  0  0
   -8.8653   -6.1322    5.3371 O   0  0  0  0  0  0  0  0  0  0  0  0
   -4.3435   -3.5734   10.6045 S   0  0  0  0  0  0  0  0  0  0  0  0
   -6.4225   -5.0651    8.4219 P   0  0  2  0  0  0  0  0  0  0  0  0
   -8.4092   -5.0649    6.4498 P   0  0  2  0  0  0  0  0  0  0  0  0
  2 16  2  0  0  0  0
  2  3  1  0  0  0  0
  2 13  1  0  0  0  0
  3  8  2  0  0  0  0
  3  4  1  0  0  0  0
  4 14  1  0  0  0  0
  5  1  1  1  0  0  0
  5 14  1  0  0  0  0
  5 10  1  0  0  0  0
  6  7  1  0  0  0  0
  7 13  1  0  0  0  0
  7 15  2  0  0  0  0
  8 15  1  0  0  0  0
  9 14  1  0  0  0  0
  9 24  1  0  0  0  0
 10 24  1  0  0  0  0
 10 11  1  6  0  0  0
 11 12  1  0  0  0  0
 12 19  1  0  0  0  0
 17 25  1  0  0  0  0
 19 25  1  0  0  0  0
 20 26  1  0  0  0  0
 21 26  1  0  0  0  0
 22 25  2  0  0  0  0
 23 26  2  0  0  0  0
 25 20  1  6  0  0  0
 26 18  1  1  0  0  0
M  CHG  2  17  -1  21  -1
M  END
>  <CHROM.1>
-78.79535221,-161.80066963,-57.77589851,-137.24684320,143.49182027,-34.14911766
-31.34812709,-53.74286126,-4.56127434,-3.84619711,10.49529243,-0.89354724
-0.39025558,-1.53393253

>  <Name>
ligand

>  <RI>
0

>  <Rbt.Current_Directory>
/home/itssahil/PROJECTS/Mol_Feturizer/New_Systems/rnas/3D2X

>  <Rbt.Executable>
rbdock ($Id: //depot/dev/client3/rdock/2013.1/src/exe/rbdock.cxx#4 $)

>  <Rbt.Library>
libRbt.so (2013.1, Build901 2013/11/27)

>  <Rbt.Parameter_File>
/export/apps/rDock/src/rDock_2013.1_src/data/scripts/dock_solv.prm

>  <Rbt.Receptor>
prm/blind_docking_20.prm

>  <SCORE>
-5.85131

>  <SCORE.INTER>
-12.3137

>  <SCORE.INTER.CONST>
1

>  <SCORE.INTER.POLAR>
0

>  <SCORE.INTER.ROT>
8

>  <SCORE.INTER.SOLV>
18.2053

>  <SCORE.INTER.VDW>
-23.2109

>  <SCORE.INTER.norm>
-0.473602

>  <SCORE.INTRA>
2.10967

>  <SCORE.INTRA.DIHEDRAL>
3.96949

>  <SCORE.INTRA.DIHEDRAL.0>
7.88077

>  <SCORE.INTRA.POLAR>
0

>  <SCORE.INTRA.POLAR.0>
0

>  <SCORE.INTRA.REPUL>
0

>  <SCORE.INTRA.REPUL.0>
0

>  <SCORE.INTRA.SOLV>
-0.331526

>  <SCORE.INTRA.SOLV.lig_0>
-63.2542

>  <SCORE.INTRA.VDW>
0.290695

>  <SCORE.INTRA.VDW.0>
-3.15072

>  <SCORE.INTRA.norm>
0.0811413

>  <SCORE.RESTR>
4.35268

>  <SCORE.RESTR.CAVITY>
4.35268

>  <SCORE.RESTR.norm>
0.167411

>  <SCORE.SYSTEM>
0

>  <SCORE.SYSTEM.CONST>
0

>  <SCORE.SYSTEM.DIHEDRAL>
0

>  <SCORE.SYSTEM.SOLV>
0

>  <SCORE.SYSTEM.norm>
0

>  <SCORE.heavy>
26

>  <SCORE.norm>
-0.22505

>  <RMSD>
17.031

$$$$
ligand
 OpenBabel11021811473D
libRbt.so/2013.1/901 2013/11/27
 26 27  0  0  0  0  0  0  0  0999 V2000
   -1.8624   -3.1254    9.0986 C   0  0  0  0  0  0  0  0  0  0  0  0
   -5.8099   -4.8032    6.4364 C   0  0  0  0  0  0  0  0  0  0  0  0
   -5.5470   -4.8743    7.8004 C   0  0  0  0  0  0  0  0  0  0  0  0
   -4.1332   -4.8561    8.3865 C   0  0  0  0  0  0  0  0  0  0  0  0
   -3.0757   -3.3392   10.0085 C   0  0  1  0  0  0  0  0  0  0  0  0
   -9.6219   -4.8390    6.4546 C   0  0  0  0  0  0  0  0  0  0  0  0
   -8.1676   -4.8626    6.9275 C   0  0  0  0  0  0  0  0  0  0  0  0
   -6.6301   -4.9422    8.6709 C   0  0  0  0  0  0  0  0  0  0  0  0
   -5.1117   -4.2179   10.5243 C   0  0  0  0  0  0  0  0  0  0  0  0
   -3.1916   -2.7136   11.2440 C   0  0  2  0  0  0  0  0  0  0  0  0
   -2.2583   -1.7384   11.9662 C   0  0  0  0  0  0  0  0  0  0  0  0
   -1.4896   -2.3910   13.1176 C   0  0  0  0  0  0  0  0  0  0  0  0
   -7.1317   -4.7962    5.9862 N   0  0  0  0  0  0  0  0  0  0  0  0
   -4.0984   -4.1258    9.6618 N   0  0  0  0  0  0  0  0  0  0  0  0
   -7.8758   -4.9344    8.2342 N   0  0  0  0  0  0  0  0  0  0  0  0
   -4.8847   -4.7428    5.6264 O   0  0  0  0  0  0  0  0  0  0  0  0
   -1.6014   -4.2858   15.8053 O   0  5  0  0  0  0  0  0  0  0  0  0
    2.4816   -1.9077   16.3750 O   0  0  0  0  0  0  0  0  0  0  0  0
   -2.1706   -2.2341   14.3663 O   0  0  0  0  0  0  0  0  0  0  0  0
    0.0826   -2.3829   15.6250 O   0  0  0  0  0  0  0  0  0  0  0  0
    0.5174   -1.4271   17.9885 O   0  5  0  0  0  0  0  0  0  0  0  0
   -2.1040   -2.0125   16.9282 O   0  0  0  0  0  0  0  0  0  0  0  0
    1.1670   -3.8444   17.4202 O   0  0  0  0  0  0  0  0  0  0  0  0
   -4.6869   -3.2818   11.9328 S   0  0  0  0  0  0  0  0  0  0  0  0
   -1.4921   -2.6808   15.7567 P   0  0  2  0  0  0  0  0  0  0  0  0
    1.0264   -2.3213   16.9246 P   0  0  2  0  0  0  0  0  0  0  0  0
  2 16  2  0  0  0  0
  2  3  1  0  0  0  0
  2 13  1  0  0  0  0
  3  8  2  0  0  0  0
  3  4  1  0  0  0  0
  4 14  1  0  0  0  0
  5  1  1  6  0  0  0
  5 14  1  0  0  0  0
  5 10  1  0  0  0  0
  6  7  1  0  0  0  0
  7 13  1  0  0  0  0
  7 15  2  0  0  0  0
  8 15  1  0  0  0  0
  9 14  1  0  0  0  0
  9 24  1  0  0  0  0
 10 24  1  0  0  0  0
 10 11  1  1  0  0  0
 11 12  1  0  0  0  0
 12 19  1  0  0  0  0
 17 25  1  0  0  0  0
 19 25  1  0  0  0  0
 20 26  1  0  0  0  0
 21 26  1  0  0  0  0
 22 25  2  0  0  0  0
 23 26  2  0  0  0  0
 25 20  1  6  0  0  0
 26 18  1  6  0  0  0
M  CHG  2  17  -1  21  -1
M  END
>  <CHROM.1>
144.17500943,-104.97056426,-93.15042984,-141.98532840,-172.86849507,-84.65559370
-76.31881382,-176.30535557,-3.02321456,-3.38550203,12.12321143,-2.19706421
0.15574717,1.44496725

>  <Name>
ligand

>  <RI>
0

>  <Rbt.Current_Directory>
/home/itssahil/PROJECTS/Mol_Feturizer/New_Systems/rnas/3D2X

>  <Rbt.Executable>
rbdock ($Id: //depot/dev/client3/rdock/2013.1/src/exe/rbdock.cxx#4 $)

>  <Rbt.Library>
libRbt.so (2013.1, Build901 2013/11/27)

>  <Rbt.Parameter_File>
/export/apps/rDock/src/rDock_2013.1_src/data/scripts/dock_solv.prm

>  <Rbt.Receptor>
prm/blind_docking_20.prm

>  <SCORE>
-7.95848

>  <SCORE.INTER>
-14.4472

>  <SCORE.INTER.CONST>
1

>  <SCORE.INTER.POLAR>
0

>  <SCORE.INTER.ROT>
8

>  <SCORE.INTER.SOLV>
16.952

>  <SCORE.INTER.VDW>
-24.2154

>  <SCORE.INTER.norm>
-0.55566

>  <SCORE.INTRA>
4.13554

>  <SCORE.INTRA.DIHEDRAL>
2.10619

>  <SCORE.INTRA.DIHEDRAL.0>
7.88077

>  <SCORE.INTRA.POLAR>
0

>  <SCORE.INTRA.POLAR.0>
0

>  <SCORE.INTRA.REPUL>
0

>  <SCORE.INTRA.REPUL.0>
0

>  <SCORE.INTRA.SOLV>
0.0522403

>  <SCORE.INTRA.SOLV.lig_0>
-63.2542

>  <SCORE.INTRA.VDW>
3.05633

>  <SCORE.INTRA.VDW.0>
-3.15072

>  <SCORE.INTRA.norm>
0.159059

>  <SCORE.RESTR>
2.35314

>  <SCORE.RESTR.CAVITY>
2.35314

>  <SCORE.RESTR.norm>
0.0905053

>  <SCORE.SYSTEM>
0

>  <SCORE.SYSTEM.CONST>
0

>  <SCORE.SYSTEM.DIHEDRAL>
0

>  <SCORE.SYSTEM.SOLV>
0

>  <SCORE.SYSTEM.norm>
0

>  <SCORE.heavy>
26

>  <SCORE.norm>
-0.306095

>  <RMSD>
17.085

$$$$
ligand
 OpenBabel11021811473D
libRbt.so/2013.1/901 2013/11/27
 26 27  0  0  0  0  0  0  0  0999 V2000
   -1.6222    0.4088   11.5349 C   0  0  0  0  0  0  0  0  0  0  0  0
   -0.0986   -2.1108   16.0382 C   0  0  0  0  0  0  0  0  0  0  0  0
   -1.0767   -2.2569   15.0601 C   0  0  0  0  0  0  0  0  0  0  0  0
   -1.3461   -1.2095   13.9770 C   0  0  0  0  0  0  0  0  0  0  0  0
   -1.6033   -1.1226   11.5323 C   0  0  1  0  0  0  0  0  0  0  0  0
   -0.4774   -5.4121   17.9065 C   0  0  0  0  0  0  0  0  0  0  0  0
   -0.6939   -4.2794   16.9019 C   0  0  0  0  0  0  0  0  0  0  0  0
   -1.8287   -3.4274   15.0591 C   0  0  0  0  0  0  0  0  0  0  0  0
   -1.4444   -3.1644   12.5268 C   0  0  0  0  0  0  0  0  0  0  0  0
   -1.7066   -1.8605   10.3591 C   0  0  2  0  0  0  0  0  0  0  0  0
   -1.8437   -1.4132    8.9015 C   0  0  0  0  0  0  0  0  0  0  0  0
   -2.4248   -2.5018    7.9962 C   0  0  0  0  0  0  0  0  0  0  0  0
    0.1021   -3.1285   16.9730 N   0  0  0  0  0  0  0  0  0  0  0  0
   -1.4712   -1.8370   12.6535 N   0  0  0  0  0  0  0  0  0  0  0  0
   -1.6300   -4.3833   15.9476 N   0  0  0  0  0  0  0  0  0  0  0  0
    0.5917   -1.0923   16.0810 O   0  0  0  0  0  0  0  0  0  0  0  0
   -3.9821   -5.4320    9.3750 O   0  5  0  0  0  0  0  0  0  0  0  0
   -6.2442   -5.9483    5.9711 O   0  0  0  0  0  0  0  0  0  0  0  0
   -3.6462   -3.0317    8.5206 O   0  0  0  0  0  0  0  0  0  0  0  0
   -5.7811   -4.3617    7.9235 O   0  0  0  0  0  0  0  0  0  0  0  0
   -7.8920   -4.0173    6.4695 O   0  5  0  0  0  0  0  0  0  0  0  0
   -3.5236   -4.9993    6.8682 O   0  0  0  0  0  0  0  0  0  0  0  0
   -5.5598   -3.5194    5.5201 O   0  0  0  0  0  0  0  0  0  0  0  0
   -1.6872   -3.5343   10.8400 S   0  0  0  0  0  0  0  0  0  0  0  0
   -4.1865   -4.4860    8.0890 P   0  0  2  0  0  0  0  0  0  0  0  0
   -6.4727   -4.4366    6.4744 P   0  0  2  0  0  0  0  0  0  0  0  0
  2 16  2  0  0  0  0
  2  3  1  0  0  0  0
  2 13  1  0  0  0  0
  3  8  2  0  0  0  0
  3  4  1  0  0  0  0
  4 14  1  0  0  0  0
  5  1  1  6  0  0  0
  5 14  1  0  0  0  0
  5 10  1  0  0  0  0
  6  7  1  0  0  0  0
  7 13  1  0  0  0  0
  7 15  2  0  0  0  0
  8 15  1  0  0  0  0
  9 14  1  0  0  0  0
  9 24  1  0  0  0  0
 10 24  1  0  0  0  0
 10 11  1  1  0  0  0
 11 12  1  0  0  0  0
 12 19  1  0  0  0  0
 17 25  1  0  0  0  0
 19 25  1  0  0  0  0
 20 26  1  0  0  0  0
 21 26  1  0  0  0  0
 22 25  2  0  0  0  0
 23 26  2  0  0  0  0
 25 20  1  6  0  0  0
 26 18  1  6  0  0  0
M  CHG  2  17  -1  21  -1
M  END
>  <CHROM.1>
133.85018362,-159.11078896,52.12956300,-174.63612457,-158.06877746,-138.09445840
108.40323325,67.38591290,-2.89036540,-3.34324861,10.82950425,-0.63458591
-0.92976673,-0.91244565

>  <Name>
ligand

>  <RI>
0

>  <Rbt.Current_Directory>
/home/itssahil/PROJECTS/Mol_Feturizer/New_Systems/rnas/3D2X

>  <Rbt.Executable>
rbdock ($Id: //depot/dev/client3/rdock/2013.1/src/exe/rbdock.cxx#4 $)

>  <Rbt.Library>
libRbt.so (2013.1, Build901 2013/11/27)

>  <Rbt.Parameter_File>
/export/apps/rDock/src/rDock_2013.1_src/data/scripts/dock_solv.prm

>  <Rbt.Receptor>
prm/blind_docking_20.prm

>  <SCORE>
-6.9916

>  <SCORE.INTER>
-13.9229

>  <SCORE.INTER.CONST>
1

>  <SCORE.INTER.POLAR>
0

>  <SCORE.INTER.ROT>
8

>  <SCORE.INTER.SOLV>
18.8501

>  <SCORE.INTER.VDW>
-24.4987

>  <SCORE.INTER.norm>
-0.535498

>  <SCORE.INTRA>
4.08917

>  <SCORE.INTRA.DIHEDRAL>
3.59124

>  <SCORE.INTRA.DIHEDRAL.0>
7.88077

>  <SCORE.INTRA.POLAR>
0

>  <SCORE.INTRA.POLAR.0>
0

>  <SCORE.INTRA.REPUL>
0

>  <SCORE.INTRA.REPUL.0>
0

>  <SCORE.INTRA.SOLV>
-0.639891

>  <SCORE.INTRA.SOLV.lig_0>
-63.2542

>  <SCORE.INTRA.VDW>
2.6135

>  <SCORE.INTRA.VDW.0>
-3.15072

>  <SCORE.INTRA.norm>
0.157276

>  <SCORE.RESTR>
2.84217

>  <SCORE.RESTR.CAVITY>
2.84217

>  <SCORE.RESTR.norm>
0.109314

>  <SCORE.SYSTEM>
0

>  <SCORE.SYSTEM.CONST>
0

>  <SCORE.SYSTEM.DIHEDRAL>
0

>  <SCORE.SYSTEM.SOLV>
0

>  <SCORE.SYSTEM.norm>
0

>  <SCORE.heavy>
26

>  <SCORE.norm>
-0.268908

>  <RMSD>
17.194

$$$$
ligand
 OpenBabel11021811473D
libRbt.so/2013.1/901 2013/11/27
 26 27  0  0  0  0  0  0  0  0999 V2000
   -1.4731    0.5181   11.6358 C   0  0  0  0  0  0  0  0  0  0  0  0
   -0.0703   -2.1375   16.0743 C   0  0  0  0  0  0  0  0  0  0  0  0
   -1.0642   -2.2368   15.1063 C   0  0  0  0  0  0  0  0  0  0  0  0
   -1.3169   -1.1615   14.0469 C   0  0  0  0  0  0  0  0  0  0  0  0
   -1.5091   -1.0126   11.5992 C   0  0  1  0  0  0  0  0  0  0  0  0
   -0.5202   -5.4622   17.8845 C   0  0  0  0  0  0  0  0  0  0  0  0
   -0.7166   -4.3046   16.9044 C   0  0  0  0  0  0  0  0  0  0  0  0
   -1.8493   -3.3853   15.0929 C   0  0  0  0  0  0  0  0  0  0  0  0
   -1.4486   -3.0798   12.5510 C   0  0  0  0  0  0  0  0  0  0  0  0
   -1.6091   -1.7206   10.4075 C   0  0  2  0  0  0  0  0  0  0  0  0
   -1.6932   -1.2373    8.9574 C   0  0  0  0  0  0  0  0  0  0  0  0
   -2.3313   -2.2669    8.0220 C   0  0  0  0  0  0  0  0  0  0  0  0
    0.1128   -3.1783   16.9870 N   0  0  0  0  0  0  0  0  0  0  0  0
   -1.4310   -1.7553   12.7069 N   0  0  0  0  0  0  0  0  0  0  0  0
   -1.6670   -4.3634   15.9604 N   0  0  0  0  0  0  0  0  0  0  0  0
    0.6494   -1.1400   16.1275 O   0  0  0  0  0  0  0  0  0  0  0  0
   -4.9167   -4.9374    9.2142 O   0  5  0  0  0  0  0  0  0  0  0  0
   -7.4216   -4.1235    5.6860 O   0  0  0  0  0  0  0  0  0  0  0  0
   -3.4636   -2.9013    8.6248 O   0  0  0  0  0  0  0  0  0  0  0  0
   -5.2274   -3.7943    6.9589 O   0  0  0  0  0  0  0  0  0  0  0  0
   -5.3279   -5.4789    4.9992 O   0  5  0  0  0  0  0  0  0  0  0  0
   -3.0783   -5.1347    7.4078 O   0  0  0  0  0  0  0  0  0  0  0  0
   -6.5288   -5.9799    7.2116 O   0  0  0  0  0  0  0  0  0  0  0  0
   -1.6619   -3.4040   10.8510 S   0  0  0  0  0  0  0  0  0  0  0  0
   -4.0993   -4.2477    8.0114 P   0  0  2  0  0  0  0  0  0  0  0  0
   -6.0727   -4.8813    6.1299 P   0  0  2  0  0  0  0  0  0  0  0  0
  2 16  2  0  0  0  0
  2  3  1  0  0  0  0
  2 13  1  0  0  0  0
  3  8  2  0  0  0  0
  3  4  1  0  0  0  0
  4 14  1  0  0  0  0
  5  1  1  6  0  0  0
  5 14  1  0  0  0  0
  5 10  1  0  0  0  0
  6  7  1  0  0  0  0
  7 13  1  0  0  0  0
  7 15  2  0  0  0  0
  8 15  1  0  0  0  0
  9 14  1  0  0  0  0
  9 24  1  0  0  0  0
 10 24  1  0  0  0  0
 10 11  1  1  0  0  0
 11 12  1  0  0  0  0
 12 19  1  0  0  0  0
 17 25  1  0  0  0  0
 19 25  1  0  0  0  0
 20 26  1  0  0  0  0
 21 26  1  0  0  0  0
 22 25  2  0  0  0  0
 23 26  2  0  0  0  0
 25 20  1  6  0  0  0
 26 18  1  6  0  0  0
M  CHG  2  17  -1  21  -1
M  END
>  <CHROM.1>
131.92921600,-157.26191323,41.58129872,-172.66867993,-165.36884514,-68.60633062
158.58449837,157.75329499,-2.80635025,-3.36094781,10.79815340,-0.64958036
-0.95245292,-0.94741043

>  <Name>
ligand

>  <RI>
0

>  <Rbt.Current_Directory>
/home/itssahil/PROJECTS/Mol_Feturizer/New_Systems/rnas/3D2X

>  <Rbt.Executable>
rbdock ($Id: //depot/dev/client3/rdock/2013.1/src/exe/rbdock.cxx#4 $)

>  <Rbt.Library>
libRbt.so (2013.1, Build901 2013/11/27)

>  <Rbt.Parameter_File>
/export/apps/rDock/src/rDock_2013.1_src/data/scripts/dock_solv.prm

>  <Rbt.Receptor>
prm/blind_docking_20.prm

>  <SCORE>
-8.12006

>  <SCORE.INTER>
-14.6556

>  <SCORE.INTER.CONST>
1

>  <SCORE.INTER.POLAR>
0

>  <SCORE.INTER.ROT>
8

>  <SCORE.INTER.SOLV>
27.0622

>  <SCORE.INTER.VDW>
-27.7245

>  <SCORE.INTER.norm>
-0.563678

>  <SCORE.INTRA>
3.17686

>  <SCORE.INTRA.DIHEDRAL>
0.642954

>  <SCORE.INTRA.DIHEDRAL.0>
7.88077

>  <SCORE.INTRA.POLAR>
0

>  <SCORE.INTRA.POLAR.0>
0

>  <SCORE.INTRA.REPUL>
0

>  <SCORE.INTRA.REPUL.0>
0

>  <SCORE.INTRA.SOLV>
0.435836

>  <SCORE.INTRA.SOLV.lig_0>
-63.2542

>  <SCORE.INTRA.VDW>
2.63746

>  <SCORE.INTRA.VDW.0>
-3.15072

>  <SCORE.INTRA.norm>
0.122187

>  <SCORE.RESTR>
3.3587

>  <SCORE.RESTR.CAVITY>
3.3587

>  <SCORE.RESTR.norm>
0.129181

>  <SCORE.SYSTEM>
0

>  <SCORE.SYSTEM.CONST>
0

>  <SCORE.SYSTEM.DIHEDRAL>
0

>  <SCORE.SYSTEM.SOLV>
0

>  <SCORE.SYSTEM.norm>
0

>  <SCORE.heavy>
26

>  <SCORE.norm>
-0.31231

>  <RMSD>
17.227

$$$$
ligand
 OpenBabel11021811473D
libRbt.so/2013.1/901 2013/11/27
 26 27  0  0  0  0  0  0  0  0999 V2000
   -1.7053   -3.8653   10.6738 C   0  0  0  0  0  0  0  0  0  0  0  0
   -5.1764   -4.1853    7.8915 C   0  0  0  0  0  0  0  0  0  0  0  0
   -3.9489   -4.4621    8.4841 C   0  0  0  0  0  0  0  0  0  0  0  0
   -2.6082   -4.0394    7.8786 C   0  0  0  0  0  0  0  0  0  0  0  0
   -1.7355   -2.6653    9.7226 C   0  0  1  0  0  0  0  0  0  0  0  0
   -7.5526   -5.6811   10.4700 C   0  0  0  0  0  0  0  0  0  0  0  0
   -6.2715   -5.2542    9.7520 C   0  0  0  0  0  0  0  0  0  0  0  0
   -3.9491   -5.1379    9.7002 C   0  0  0  0  0  0  0  0  0  0  0  0
   -2.1052   -1.6614    7.7130 C   0  0  0  0  0  0  0  0  0  0  0  0
   -1.3232   -1.3986   10.1186 C   0  0  2  0  0  0  0  0  0  0  0  0
   -0.7758   -0.8943   11.4563 C   0  0  0  0  0  0  0  0  0  0  0  0
   -1.6961   -1.2154   12.6362 C   0  0  0  0  0  0  0  0  0  0  0  0
   -6.3557   -4.5816    8.5257 N   0  0  0  0  0  0  0  0  0  0  0  0
   -2.1444   -2.7691    8.4550 N   0  0  0  0  0  0  0  0  0  0  0  0
   -5.0702   -5.5075   10.2911 N   0  0  0  0  0  0  0  0  0  0  0  0
   -5.2278   -3.5906    6.8147 O   0  0  0  0  0  0  0  0  0  0  0  0
   -1.9281   -4.3260   14.9294 O   0  5  0  0  0  0  0  0  0  0  0  0
    1.0212   -3.9482   17.3158 O   0  0  0  0  0  0  0  0  0  0  0  0
   -1.3885   -2.4859   13.2184 O   0  0  0  0  0  0  0  0  0  0  0  0
   -0.1388   -2.5980   15.4787 O   0  0  0  0  0  0  0  0  0  0  0  0
    0.5105   -1.4413   17.6988 O   0  5  0  0  0  0  0  0  0  0  0  0
   -2.6066   -1.8767   15.4006 O   0  0  0  0  0  0  0  0  0  0  0  0
   -1.3967   -3.1578   17.6325 O   0  0  0  0  0  0  0  0  0  0  0  0
   -1.5749   -0.3590    8.7441 S   0  0  0  0  0  0  0  0  0  0  0  0
   -1.5844   -2.7595   14.7932 P   0  0  2  0  0  0  0  0  0  0  0  0
    0.0385   -2.6967   17.0731 P   0  0  2  0  0  0  0  0  0  0  0  0
  2 16  2  0  0  0  0
  2  3  1  0  0  0  0
  2 13  1  0  0  0  0
  3  8  2  0  0  0  0
  3  4  1  0  0  0  0
  4 14  1  0  0  0  0
  5  1  1  6  0  0  0
  5 14  1  0  0  0  0
  5 10  1  0  0  0  0
  6  7  1  0  0  0  0
  7 13  1  0  0  0  0
  7 15  2  0  0  0  0
  8 15  1  0  0  0  0
  9 14  1  0  0  0  0
  9 24  1  0  0  0  0
 10 24  1  0  0  0  0
 10 11  1  1  0  0  0
 11 12  1  0  0  0  0
 12 19  1  0  0  0  0
 17 25  1  0  0  0  0
 19 25  1  0  0  0  0
 20 26  1  0  0  0  0
 21 26  1  0  0  0  0
 22 25  2  0  0  0  0
 23 26  2  0  0  0  0
 25 20  1  1  0  0  0
 26 18  1  1  0  0  0
M  CHG  2  17  -1  21  -1
M  END
>  <CHROM.1>
95.58102029,-54.36964192,89.70059557,69.28228235,147.65648987,-72.36634780
149.90141429,118.83937323,-2.31231035,-3.00444609,12.07075392,-2.17511959
0.70140689,1.85835330

>  <Name>
ligand

>  <RI>
0

>  <Rbt.Current_Directory>
/home/itssahil/PROJECTS/Mol_Feturizer/New_Systems/rnas/3D2X

>  <Rbt.Executable>
rbdock ($Id: //depot/dev/client3/rdock/2013.1/src/exe/rbdock.cxx#4 $)

>  <Rbt.Library>
libRbt.so (2013.1, Build901 2013/11/27)

>  <Rbt.Parameter_File>
/export/apps/rDock/src/rDock_2013.1_src/data/scripts/dock_solv.prm

>  <Rbt.Receptor>
prm/blind_docking_20.prm

>  <SCORE>
3.62223

>  <SCORE.INTER>
-6.12112

>  <SCORE.INTER.CONST>
1

>  <SCORE.INTER.POLAR>
0

>  <SCORE.INTER.ROT>
8

>  <SCORE.INTER.SOLV>
16.24

>  <SCORE.INTER.VDW>
-18.4274

>  <SCORE.INTER.norm>
-0.235428

>  <SCORE.INTRA>
6.85777

>  <SCORE.INTRA.DIHEDRAL>
7.39583

>  <SCORE.INTRA.DIHEDRAL.0>
7.88077

>  <SCORE.INTRA.POLAR>
0

>  <SCORE.INTRA.POLAR.0>
0

>  <SCORE.INTRA.REPUL>
0

>  <SCORE.INTRA.REPUL.0>
0

>  <SCORE.INTRA.SOLV>
0.555604

>  <SCORE.INTRA.SOLV.lig_0>
-63.2542

>  <SCORE.INTRA.VDW>
2.88205

>  <SCORE.INTRA.VDW.0>
-3.15072

>  <SCORE.INTRA.norm>
0.26376

>  <SCORE.RESTR>
2.88558

>  <SCORE.RESTR.CAVITY>
2.88558

>  <SCORE.RESTR.norm>
0.110984

>  <SCORE.SYSTEM>
0

>  <SCORE.SYSTEM.CONST>
0

>  <SCORE.SYSTEM.DIHEDRAL>
0

>  <SCORE.SYSTEM.SOLV>
0

>  <SCORE.SYSTEM.norm>
0

>  <SCORE.heavy>
26

>  <SCORE.norm>
0.139316

>  <RMSD>
17.251

$$$$
ligand
 OpenBabel11021811473D
libRbt.so/2013.1/901 2013/11/27
 26 27  0  0  0  0  0  0  0  0999 V2000
   -1.7008   -3.8768   10.5431 C   0  0  0  0  0  0  0  0  0  0  0  0
   -5.1835   -4.3327    7.7014 C   0  0  0  0  0  0  0  0  0  0  0  0
   -3.9637   -4.4504    8.3593 C   0  0  0  0  0  0  0  0  0  0  0  0
   -2.6345   -3.9913    7.7549 C   0  0  0  0  0  0  0  0  0  0  0  0
   -1.7635   -2.6523    9.6254 C   0  0  1  0  0  0  0  0  0  0  0  0
   -7.5449   -5.7287   10.3486 C   0  0  0  0  0  0  0  0  0  0  0  0
   -6.2708   -5.2820    9.6301 C   0  0  0  0  0  0  0  0  0  0  0  0
   -3.9631   -4.9930    9.6403 C   0  0  0  0  0  0  0  0  0  0  0  0
   -2.1752   -1.6012    7.6483 C   0  0  0  0  0  0  0  0  0  0  0  0
   -1.3687   -1.3896   10.0509 C   0  0  2  0  0  0  0  0  0  0  0  0
   -0.8139   -0.9119   11.3953 C   0  0  0  0  0  0  0  0  0  0  0  0
   -1.5608   -1.5043   12.5927 C   0  0  0  0  0  0  0  0  0  0  0  0
   -6.3550   -4.7501    8.3365 N   0  0  0  0  0  0  0  0  0  0  0  0
   -2.1859   -2.7290    8.3603 N   0  0  0  0  0  0  0  0  0  0  0  0
   -5.0768   -5.3839   10.2314 N   0  0  0  0  0  0  0  0  0  0  0  0
   -5.2353   -3.8599    6.5658 O   0  0  0  0  0  0  0  0  0  0  0  0
   -1.5202   -4.0624   14.5040 O   0  5  0  0  0  0  0  0  0  0  0  0
   -0.5687   -2.3890   18.4044 O   0  0  0  0  0  0  0  0  0  0  0  0
   -0.6789   -1.7759   13.6863 O   0  0  0  0  0  0  0  0  0  0  0  0
    0.0959   -2.7351   15.9586 O   0  0  0  0  0  0  0  0  0  0  0  0
   -0.8534   -4.7196   17.3184 O   0  5  0  0  0  0  0  0  0  0  0  0
   -2.3177   -1.8953   15.6655 O   0  0  0  0  0  0  0  0  0  0  0  0
    1.4900   -3.7994   17.8183 O   0  0  0  0  0  0  0  0  0  0  0  0
   -1.6552   -0.3179    8.7082 S   0  0  0  0  0  0  0  0  0  0  0  0
   -1.1810   -2.5678   14.9955 P   0  0  2  0  0  0  0  0  0  0  0  0
   -0.0238   -3.4951   17.3698 P   0  0  2  0  0  0  0  0  0  0  0  0
  2 16  2  0  0  0  0
  2  3  1  0  0  0  0
  2 13  1  0  0  0  0
  3  8  2  0  0  0  0
  3  4  1  0  0  0  0
  4 14  1  0  0  0  0
  5  1  1  6  0  0  0
  5 14  1  0  0  0  0
  5 10  1  0  0  0  0
  6  7  1  0  0  0  0
  7 13  1  0  0  0  0
  7 15  2  0  0  0  0
  8 15  1  0  0  0  0
  9 14  1  0  0  0  0
  9 24  1  0  0  0  0
 10 24  1  0  0  0  0
 10 11  1  1  0  0  0
 11 12  1  0  0  0  0
 12 19  1  0  0  0  0
 17 25  1  0  0  0  0
 19 25  1  0  0  0  0
 20 26  1  0  0  0  0
 21 26  1  0  0  0  0
 22 25  2  0  0  0  0
 23 26  2  0  0  0  0
 25 20  1  1  0  0  0
 26 18  1  1  0  0  0
M  CHG  2  17  -1  21  -1
M  END
>  <CHROM.1>
104.25548723,-43.33159513,143.87603757,69.57525462,-172.35542140,-67.47003741
66.25092460,-83.61489992,-2.23754488,-3.12410127,12.11048009,-2.17196925
0.72041067,1.92428711

>  <Name>
ligand

>  <RI>
0

>  <Rbt.Current_Directory>
/home/itssahil/PROJECTS/Mol_Feturizer/New_Systems/rnas/3D2X

>  <Rbt.Executable>
rbdock ($Id: //depot/dev/client3/rdock/2013.1/src/exe/rbdock.cxx#4 $)

>  <Rbt.Library>
libRbt.so (2013.1, Build901 2013/11/27)

>  <Rbt.Parameter_File>
/export/apps/rDock/src/rDock_2013.1_src/data/scripts/dock_solv.prm

>  <Rbt.Receptor>
prm/blind_docking_20.prm

>  <SCORE>
1.13283

>  <SCORE.INTER>
-6.62256

>  <SCORE.INTER.CONST>
1

>  <SCORE.INTER.POLAR>
0

>  <SCORE.INTER.ROT>
8

>  <SCORE.INTER.SOLV>
20.5644

>  <SCORE.INTER.VDW>
-20.2032

>  <SCORE.INTER.norm>
-0.254714

>  <SCORE.INTRA>
4.47495

>  <SCORE.INTRA.DIHEDRAL>
1.34348

>  <SCORE.INTRA.DIHEDRAL.0>
7.88077

>  <SCORE.INTRA.POLAR>
0

>  <SCORE.INTRA.POLAR.0>
0

>  <SCORE.INTRA.REPUL>
0

>  <SCORE.INTRA.REPUL.0>
0

>  <SCORE.INTRA.SOLV>
-0.420984

>  <SCORE.INTRA.SOLV.lig_0>
-63.2542

>  <SCORE.INTRA.VDW>
4.0137

>  <SCORE.INTRA.VDW.0>
-3.15072

>  <SCORE.INTRA.norm>
0.172114

>  <SCORE.RESTR>
3.28044

>  <SCORE.RESTR.CAVITY>
3.28044

>  <SCORE.RESTR.norm>
0.126171

>  <SCORE.SYSTEM>
0

>  <SCORE.SYSTEM.CONST>
0

>  <SCORE.SYSTEM.DIHEDRAL>
0

>  <SCORE.SYSTEM.SOLV>
0

>  <SCORE.SYSTEM.norm>
0

>  <SCORE.heavy>
26

>  <SCORE.norm>
0.0435705

>  <RMSD>
17.270

$$$$
ligand
 OpenBabel11021811473D
libRbt.so/2013.1/901 2013/11/27
 26 27  0  0  0  0  0  0  0  0999 V2000
   -2.0897   -0.9437    8.4312 C   0  0  0  0  0  0  0  0  0  0  0  0
   -4.8238   -5.0171    8.7047 C   0  0  0  0  0  0  0  0  0  0  0  0
   -4.2153   -4.0894    7.8657 C   0  0  0  0  0  0  0  0  0  0  0  0
   -2.7189   -3.7705    7.9094 C   0  0  0  0  0  0  0  0  0  0  0  0
   -2.0190   -2.0338    9.5046 C   0  0  1  0  0  0  0  0  0  0  0  0
   -8.4168   -4.8535    7.4412 C   0  0  0  0  0  0  0  0  0  0  0  0
   -6.9215   -4.5772    7.6049 C   0  0  0  0  0  0  0  0  0  0  0  0
   -5.0097   -3.4394    6.9267 C   0  0  0  0  0  0  0  0  0  0  0  0
   -2.2406   -4.1683   10.2648 C   0  0  0  0  0  0  0  0  0  0  0  0
   -1.6576   -1.7553   10.8173 C   0  0  2  0  0  0  0  0  0  0  0  0
   -1.2792   -0.4360   11.4953 C   0  0  0  0  0  0  0  0  0  0  0  0
   -1.4685   -0.4704   13.0136 C   0  0  0  0  0  0  0  0  0  0  0  0
   -6.1913   -5.2703    8.5795 N   0  0  0  0  0  0  0  0  0  0  0  0
   -2.3148   -3.3107    9.2460 N   0  0  0  0  0  0  0  0  0  0  0  0
   -6.3017   -3.6871    6.8168 N   0  0  0  0  0  0  0  0  0  0  0  0
   -4.1630   -5.6170    9.5527 O   0  0  0  0  0  0  0  0  0  0  0  0
   -2.5071   -1.8518   15.5447 O   0  5  0  0  0  0  0  0  0  0  0  0
   -2.4507   -4.4208   16.7775 O   0  0  0  0  0  0  0  0  0  0  0  0
   -0.8433   -1.6161   13.6003 O   0  0  0  0  0  0  0  0  0  0  0  0
   -0.5299   -3.4510   15.3943 O   0  0  0  0  0  0  0  0  0  0  0  0
   -0.0913   -5.4669   16.9539 O   0  5  0  0  0  0  0  0  0  0  0  0
   -0.1128   -0.9822   15.9840 O   0  0  0  0  0  0  0  0  0  0  0  0
   -0.5542   -3.1391   17.9313 O   0  0  0  0  0  0  0  0  0  0  0  0
   -1.6687   -3.2828   11.6539 S   0  0  0  0  0  0  0  0  0  0  0  0
   -0.9405   -1.9110   15.1804 P   0  0  2  0  0  0  0  0  0  0  0  0
   -0.8548   -4.2121   16.7722 P   0  0  2  0  0  0  0  0  0  0  0  0
  2 16  2  0  0  0  0
  2  3  1  0  0  0  0
  2 13  1  0  0  0  0
  3  8  2  0  0  0  0
  3  4  1  0  0  0  0
  4 14  1  0  0  0  0
  5  1  1  1  0  0  0
  5 14  1  0  0  0  0
  5 10  1  0  0  0  0
  6  7  1  0  0  0  0
  7 13  1  0  0  0  0
  7 15  2  0  0  0  0
  8 15  1  0  0  0  0
  9 14  1  0  0  0  0
  9 24  1  0  0  0  0
 10 24  1  0  0  0  0
 10 11  1  6  0  0  0
 11 12  1  0  0  0  0
 12 19  1  0  0  0  0
 17 25  1  0  0  0  0
 19 25  1  0  0  0  0
 20 26  1  0  0  0  0
 21 26  1  0  0  0  0
 22 25  2  0  0  0  0
 23 26  2  0  0  0  0
 25 20  1  1  0  0  0
 26 18  1  1  0  0  0
M  CHG  2  17  -1  21  -1
M  END
>  <CHROM.1>
-57.63237332,158.03811222,50.43819618,-106.84905960,-177.88156591,-52.52322885
51.97192375,71.28817834,-2.50832772,-3.20153807,12.11312171,-2.32364427,0.82771569
2.04976502

>  <Name>
ligand

>  <RI>
0

>  <Rbt.Current_Directory>
/home/itssahil/PROJECTS/Mol_Feturizer/New_Systems/rnas/3D2X

>  <Rbt.Executable>
rbdock ($Id: //depot/dev/client3/rdock/2013.1/src/exe/rbdock.cxx#4 $)

>  <Rbt.Library>
libRbt.so (2013.1, Build901 2013/11/27)

>  <Rbt.Parameter_File>
/export/apps/rDock/src/rDock_2013.1_src/data/scripts/dock_solv.prm

>  <Rbt.Receptor>
prm/blind_docking_20.prm

>  <SCORE>
-5.61063

>  <SCORE.INTER>
-9.7797

>  <SCORE.INTER.CONST>
1

>  <SCORE.INTER.POLAR>
0

>  <SCORE.INTER.ROT>
8

>  <SCORE.INTER.SOLV>
17.6866

>  <SCORE.INTER.VDW>
-21.3486

>  <SCORE.INTER.norm>
-0.376142

>  <SCORE.INTRA>
0.84464

>  <SCORE.INTRA.DIHEDRAL>
-1.97053

>  <SCORE.INTRA.DIHEDRAL.0>
7.88077

>  <SCORE.INTRA.POLAR>
0

>  <SCORE.INTRA.POLAR.0>
0

>  <SCORE.INTRA.REPUL>
0

>  <SCORE.INTRA.REPUL.0>
0

>  <SCORE.INTRA.SOLV>
-0.0572729

>  <SCORE.INTRA.SOLV.lig_0>
-63.2542

>  <SCORE.INTRA.VDW>
1.85854

>  <SCORE.INTRA.VDW.0>
-3.15072

>  <SCORE.INTRA.norm>
0.0324861

>  <SCORE.RESTR>
3.32442

>  <SCORE.RESTR.CAVITY>
3.32442

>  <SCORE.RESTR.norm>
0.127862

>  <SCORE.SYSTEM>
0

>  <SCORE.SYSTEM.CONST>
0

>  <SCORE.SYSTEM.DIHEDRAL>
0

>  <SCORE.SYSTEM.SOLV>
0

>  <SCORE.SYSTEM.norm>
0

>  <SCORE.heavy>
26

>  <SCORE.norm>
-0.215794

>  <RMSD>
17.316

$$$$
ligand
 OpenBabel11021811473D
libRbt.so/2013.1/901 2013/11/27
 26 27  0  0  0  0  0  0  0  0999 V2000
   -0.6118   -2.2041    9.7252 C   0  0  0  0  0  0  0  0  0  0  0  0
   -1.4327   -1.6129   15.1347 C   0  0  0  0  0  0  0  0  0  0  0  0
   -1.4486   -2.4850   14.0512 C   0  0  0  0  0  0  0  0  0  0  0  0
   -1.1139   -2.0553   12.6208 C   0  0  0  0  0  0  0  0  0  0  0  0
   -1.9615   -2.5444   10.3641 C   0  0  1  0  0  0  0  0  0  0  0  0
   -2.3292   -3.9999   17.9687 C   0  0  0  0  0  0  0  0  0  0  0  0
   -2.0257   -3.4518   16.5734 C   0  0  0  0  0  0  0  0  0  0  0  0
   -1.7634   -3.8186   14.2917 C   0  0  0  0  0  0  0  0  0  0  0  0
   -3.3746   -2.8177   12.1280 C   0  0  0  0  0  0  0  0  0  0  0  0
   -3.0514   -2.9616    9.6096 C   0  0  2  0  0  0  0  0  0  0  0  0
   -3.2018   -3.1853    8.1027 C   0  0  0  0  0  0  0  0  0  0  0  0
   -3.4917   -4.6443    7.7426 C   0  0  0  0  0  0  0  0  0  0  0  0
   -1.7227   -2.0932   16.4134 N   0  0  0  0  0  0  0  0  0  0  0  0
   -2.1650   -2.4750   11.6827 N   0  0  0  0  0  0  0  0  0  0  0  0
   -2.0354   -4.2618   15.5050 N   0  0  0  0  0  0  0  0  0  0  0  0
   -1.1612   -0.4231   14.9722 O   0  0  0  0  0  0  0  0  0  0  0  0
   -6.4549   -3.1275    7.6088 O   0  5  0  0  0  0  0  0  0  0  0  0
   -9.1437   -5.3730    7.7220 O   0  0  0  0  0  0  0  0  0  0  0  0
   -4.6156   -4.7607    6.8645 O   0  0  0  0  0  0  0  0  0  0  0  0
   -7.0854   -5.1660    6.2172 O   0  0  0  0  0  0  0  0  0  0  0  0
   -9.0381   -3.4915    5.9497 O   0  5  0  0  0  0  0  0  0  0  0  0
   -6.3173   -5.4890    8.6508 O   0  0  0  0  0  0  0  0  0  0  0  0
   -9.3119   -5.9393    5.2275 O   0  0  0  0  0  0  0  0  0  0  0  0
   -4.3600   -3.1848   10.7370 S   0  0  0  0  0  0  0  0  0  0  0  0
   -6.1263   -4.6915    7.4176 P   0  0  2  0  0  0  0  0  0  0  0  0
   -8.6682   -4.8901    6.2620 P   0  0  2  0  0  0  0  0  0  0  0  0
  2 16  2  0  0  0  0
  2  3  1  0  0  0  0
  2 13  1  0  0  0  0
  3  8  2  0  0  0  0
  3  4  1  0  0  0  0
  4 14  1  0  0  0  0
  5  1  1  1  0  0  0
  5 14  1  0  0  0  0
  5 10  1  0  0  0  0
  6  7  1  0  0  0  0
  7 13  1  0  0  0  0
  7 15  2  0  0  0  0
  8 15  1  0  0  0  0
  9 14  1  0  0  0  0
  9 24  1  0  0  0  0
 10 24  1  0  0  0  0
 10 11  1  6  0  0  0
 11 12  1  0  0  0  0
 12 19  1  0  0  0  0
 17 25  1  0  0  0  0
 19 25  1  0  0  0  0
 20 26  1  0  0  0  0
 21 26  1  0  0  0  0
 22 25  2  0  0  0  0
 23 26  2  0  0  0  0
 25 20  1  6  0  0  0
 26 18  1  1  0  0  0
M  CHG  2  17  -1  21  -1
M  END
>  <CHROM.1>
-128.61697819,116.21162325,129.90162465,-161.77535294,-79.97809422,-52.71393385
80.53489496,-48.36184749,-4.43927416,-3.64380959,10.26177257,-0.89223354
-0.42720588,-1.50905578

>  <Name>
ligand

>  <RI>
0

>  <Rbt.Current_Directory>
/home/itssahil/PROJECTS/Mol_Feturizer/New_Systems/rnas/3D2X

>  <Rbt.Executable>
rbdock ($Id: //depot/dev/client3/rdock/2013.1/src/exe/rbdock.cxx#4 $)

>  <Rbt.Library>
libRbt.so (2013.1, Build901 2013/11/27)

>  <Rbt.Parameter_File>
/export/apps/rDock/src/rDock_2013.1_src/data/scripts/dock_solv.prm

>  <Rbt.Receptor>
prm/blind_docking_20.prm

>  <SCORE>
-9.35279

>  <SCORE.INTER>
-15.9635

>  <SCORE.INTER.CONST>
1

>  <SCORE.INTER.POLAR>
0

>  <SCORE.INTER.ROT>
8

>  <SCORE.INTER.SOLV>
16.2449

>  <SCORE.INTER.VDW>
-24.9906

>  <SCORE.INTER.norm>
-0.61398

>  <SCORE.INTRA>
2.70183

>  <SCORE.INTRA.DIHEDRAL>
5.28647

>  <SCORE.INTRA.DIHEDRAL.0>
7.88077

>  <SCORE.INTRA.POLAR>
0

>  <SCORE.INTRA.POLAR.0>
0

>  <SCORE.INTRA.REPUL>
0

>  <SCORE.INTRA.REPUL.0>
0

>  <SCORE.INTRA.SOLV>
-0.0859306

>  <SCORE.INTRA.SOLV.lig_0>
-63.2542

>  <SCORE.INTRA.VDW>
0.101559

>  <SCORE.INTRA.VDW.0>
-3.15072

>  <SCORE.INTRA.norm>
0.103917

>  <SCORE.RESTR>
3.90885

>  <SCORE.RESTR.CAVITY>
3.90885

>  <SCORE.RESTR.norm>
0.15034

>  <SCORE.SYSTEM>
0

>  <SCORE.SYSTEM.CONST>
0

>  <SCORE.SYSTEM.DIHEDRAL>
0

>  <SCORE.SYSTEM.SOLV>
0

>  <SCORE.SYSTEM.norm>
0

>  <SCORE.heavy>
26

>  <SCORE.norm>
-0.359723

>  <RMSD>
17.316

$$$$
ligand
 OpenBabel11021811473D
libRbt.so/2013.1/901 2013/11/27
 26 27  0  0  0  0  0  0  0  0999 V2000
   -1.7937   -3.8826   10.5947 C   0  0  0  0  0  0  0  0  0  0  0  0
   -5.1437   -3.9005    7.8962 C   0  0  0  0  0  0  0  0  0  0  0  0
   -3.9045   -4.3434    8.3466 C   0  0  0  0  0  0  0  0  0  0  0  0
   -2.5753   -3.8644    7.7579 C   0  0  0  0  0  0  0  0  0  0  0  0
   -1.7536   -2.6271    9.7185 C   0  0  1  0  0  0  0  0  0  0  0  0
   -7.4638   -5.7843   10.2629 C   0  0  0  0  0  0  0  0  0  0  0  0
   -6.1994   -5.2760    9.5686 C   0  0  0  0  0  0  0  0  0  0  0  0
   -3.8797   -5.2505    9.4011 C   0  0  0  0  0  0  0  0  0  0  0  0
   -2.0101   -1.4948    7.7602 C   0  0  0  0  0  0  0  0  0  0  0  0
   -1.3299   -1.3977   10.2088 C   0  0  2  0  0  0  0  0  0  0  0  0
   -0.8309   -0.9893   11.5972 C   0  0  0  0  0  0  0  0  0  0  0  0
   -1.1807   -2.0117   12.6809 C   0  0  0  0  0  0  0  0  0  0  0  0
   -6.3090   -4.3663    8.5085 N   0  0  0  0  0  0  0  0  0  0  0  0
   -2.1080   -2.6437    8.4305 N   0  0  0  0  0  0  0  0  0  0  0  0
   -4.9878   -5.6838    9.9729 N   0  0  0  0  0  0  0  0  0  0  0  0
   -5.2173   -3.0988    6.9648 O   0  0  0  0  0  0  0  0  0  0  0  0
   -1.3399   -3.8940   14.7746 O   0  5  0  0  0  0  0  0  0  0  0  0
    2.3891   -2.7143   17.5239 O   0  0  0  0  0  0  0  0  0  0  0  0
   -1.0289   -1.4651   13.9946 O   0  0  0  0  0  0  0  0  0  0  0  0
    0.4750   -2.4629   15.8456 O   0  0  0  0  0  0  0  0  0  0  0  0
    0.0227   -2.0942   18.3652 O   0  5  0  0  0  0  0  0  0  0  0  0
   -1.9958   -1.9374   16.3312 O   0  0  0  0  0  0  0  0  0  0  0  0
    0.5011   -4.4469   17.4573 O   0  0  0  0  0  0  0  0  0  0  0  0
   -1.4959   -0.2711    8.8910 S   0  0  0  0  0  0  0  0  0  0  0  0
   -1.0375   -2.4041   15.3029 P   0  0  2  0  0  0  0  0  0  0  0  0
    0.7946   -2.8686   17.3677 P   0  0  2  0  0  0  0  0  0  0  0  0
  2 16  2  0  0  0  0
  2  3  1  0  0  0  0
  2 13  1  0  0  0  0
  3  8  2  0  0  0  0
  3  4  1  0  0  0  0
  4 14  1  0  0  0  0
  5  1  1  6  0  0  0
  5 14  1  0  0  0  0
  5 10  1  0  0  0  0
  6  7  1  0  0  0  0
  7 13  1  0  0  0  0
  7 15  2  0  0  0  0
  8 15  1  0  0  0  0
  9 14  1  0  0  0  0
  9 24  1  0  0  0  0
 10 24  1  0  0  0  0
 10 11  1  1  0  0  0
 11 12  1  0  0  0  0
 12 19  1  0  0  0  0
 17 25  1  0  0  0  0
 19 25  1  0  0  0  0
 20 26  1  0  0  0  0
 21 26  1  0  0  0  0
 22 25  2  0  0  0  0
 23 26  2  0  0  0  0
 25 20  1  1  0  0  0
 26 18  1  1  0  0  0
M  CHG  2  17  -1  21  -1
M  END
>  <CHROM.1>
87.73255157,-16.75644312,-164.61461397,65.28324123,-167.25051105,-88.87189153
-3.83603898,-176.44974970,-1.99114413,-2.94347343,12.21278993,-2.25080856
0.70145070,1.93427229

>  <Name>
ligand

>  <RI>
0

>  <Rbt.Current_Directory>
/home/itssahil/PROJECTS/Mol_Feturizer/New_Systems/rnas/3D2X

>  <Rbt.Executable>
rbdock ($Id: //depot/dev/client3/rdock/2013.1/src/exe/rbdock.cxx#4 $)

>  <Rbt.Library>
libRbt.so (2013.1, Build901 2013/11/27)

>  <Rbt.Parameter_File>
/export/apps/rDock/src/rDock_2013.1_src/data/scripts/dock_solv.prm

>  <Rbt.Receptor>
prm/blind_docking_20.prm

>  <SCORE>
1.4492

>  <SCORE.INTER>
-9.07105

>  <SCORE.INTER.CONST>
1

>  <SCORE.INTER.POLAR>
0

>  <SCORE.INTER.ROT>
8

>  <SCORE.INTER.SOLV>
16.399

>  <SCORE.INTER.VDW>
-20.447

>  <SCORE.INTER.norm>
-0.348886

>  <SCORE.INTRA>
6.95455

>  <SCORE.INTRA.DIHEDRAL>
2.08346

>  <SCORE.INTRA.DIHEDRAL.0>
7.88077

>  <SCORE.INTRA.POLAR>
0

>  <SCORE.INTRA.POLAR.0>
0

>  <SCORE.INTRA.REPUL>
0

>  <SCORE.INTRA.REPUL.0>
0

>  <SCORE.INTRA.SOLV>
0.598572

>  <SCORE.INTRA.SOLV.lig_0>
-63.2542

>  <SCORE.INTRA.VDW>
5.61354

>  <SCORE.INTRA.VDW.0>
-3.15072

>  <SCORE.INTRA.norm>
0.267483

>  <SCORE.RESTR>
3.56569

>  <SCORE.RESTR.CAVITY>
3.56569

>  <SCORE.RESTR.norm>
0.137142

>  <SCORE.SYSTEM>
0

>  <SCORE.SYSTEM.CONST>
0

>  <SCORE.SYSTEM.DIHEDRAL>
0

>  <SCORE.SYSTEM.SOLV>
0

>  <SCORE.SYSTEM.norm>
0

>  <SCORE.heavy>
26

>  <SCORE.norm>
0.0557383

>  <RMSD>
17.340

$$$$
ligand
 OpenBabel11021811473D
libRbt.so/2013.1/901 2013/11/27
 26 27  0  0  0  0  0  0  0  0999 V2000
   -0.9785   -2.1188    9.3567 C   0  0  0  0  0  0  0  0  0  0  0  0
   -4.7725   -4.7285    6.5928 C   0  0  0  0  0  0  0  0  0  0  0  0
   -4.7069   -3.6386    7.4545 C   0  0  0  0  0  0  0  0  0  0  0  0
   -3.3899   -3.0227    7.9329 C   0  0  0  0  0  0  0  0  0  0  0  0
   -2.2905   -2.4724   10.0633 C   0  0  1  0  0  0  0  0  0  0  0  0
   -8.5476   -5.0844    6.1991 C   0  0  0  0  0  0  0  0  0  0  0  0
   -7.1763   -4.5808    6.6519 C   0  0  0  0  0  0  0  0  0  0  0  0
   -5.9035   -3.0709    7.8806 C   0  0  0  0  0  0  0  0  0  0  0  0
   -4.4685   -3.1334   10.1145 C   0  0  0  0  0  0  0  0  0  0  0  0
   -2.4350   -2.3790   11.4423 C   0  0  2  0  0  0  0  0  0  0  0  0
   -1.4480   -1.9399   12.5270 C   0  0  0  0  0  0  0  0  0  0  0  0
   -1.8164   -2.4655   13.9163 C   0  0  0  0  0  0  0  0  0  0  0  0
   -6.0166   -5.2111    6.1815 N   0  0  0  0  0  0  0  0  0  0  0  0
   -3.3751   -2.8755    9.3955 N   0  0  0  0  0  0  0  0  0  0  0  0
   -7.0741   -3.5352    7.4849 N   0  0  0  0  0  0  0  0  0  0  0  0
   -3.7410   -5.2659    6.1892 O   0  0  0  0  0  0  0  0  0  0  0  0
   -2.3987   -3.0719   16.6088 O   0  5  0  0  0  0  0  0  0  0  0  0
    1.1803   -5.9337   18.0289 O   0  0  0  0  0  0  0  0  0  0  0  0
   -0.6776   -2.5226   14.7810 O   0  0  0  0  0  0  0  0  0  0  0  0
   -0.1121   -4.1930   16.6713 O   0  0  0  0  0  0  0  0  0  0  0  0
    2.1028   -3.5253   17.8275 O   0  5  0  0  0  0  0  0  0  0  0  0
   -0.2981   -1.6786   17.1812 O   0  0  0  0  0  0  0  0  0  0  0  0
   -0.0031   -3.9953   19.2176 O   0  0  0  0  0  0  0  0  0  0  0  0
   -4.0532   -2.9180   11.7943 S   0  0  0  0  0  0  0  0  0  0  0  0
   -0.8336   -2.7897   16.3614 P   0  0  2  0  0  0  0  0  0  0  0  0
    0.8815   -4.3556   17.9242 P   0  0  2  0  0  0  0  0  0  0  0  0
  2 16  2  0  0  0  0
  2  3  1  0  0  0  0
  2 13  1  0  0  0  0
  3  8  2  0  0  0  0
  3  4  1  0  0  0  0
  4 14  1  0  0  0  0
  5  1  1  6  0  0  0
  5 14  1  0  0  0  0
  5 10  1  0  0  0  0
  6  7  1  0  0  0  0
  7 13  1  0  0  0  0
  7 15  2  0  0  0  0
  8 15  1  0  0  0  0
  9 14  1  0  0  0  0
  9 24  1  0  0  0  0
 10 24  1  0  0  0  0
 10 11  1  1  0  0  0
 11 12  1  0  0  0  0
 12 19  1  0  0  0  0
 17 25  1  0  0  0  0
 19 25  1  0  0  0  0
 20 26  1  0  0  0  0
 21 26  1  0  0  0  0
 22 25  2  0  0  0  0
 23 26  2  0  0  0  0
 25 20  1  1  0  0  0
 26 18  1  1  0  0  0
M  CHG  2  17  -1  21  -1
M  END
>  <CHROM.1>
-129.66158894,-158.55369613,156.65786692,173.93280313,169.06110597,-113.67586276
4.67982662,170.55923610,-2.47518636,-3.47748303,12.43606866,-2.13219513,0.37954707
1.76054664

>  <Name>
ligand

>  <RI>
0

>  <Rbt.Current_Directory>
/home/itssahil/PROJECTS/Mol_Feturizer/New_Systems/rnas/3D2X

>  <Rbt.Executable>
rbdock ($Id: //depot/dev/client3/rdock/2013.1/src/exe/rbdock.cxx#4 $)

>  <Rbt.Library>
libRbt.so (2013.1, Build901 2013/11/27)

>  <Rbt.Parameter_File>
/export/apps/rDock/src/rDock_2013.1_src/data/scripts/dock_solv.prm

>  <Rbt.Receptor>
prm/blind_docking_20.prm

>  <SCORE>
-1.31316

>  <SCORE.INTER>
-9.99167

>  <SCORE.INTER.CONST>
1

>  <SCORE.INTER.POLAR>
0

>  <SCORE.INTER.ROT>
8

>  <SCORE.INTER.SOLV>
15.5217

>  <SCORE.INTER.VDW>
-20.7683

>  <SCORE.INTER.norm>
-0.384295

>  <SCORE.INTRA>
4.9681

>  <SCORE.INTRA.DIHEDRAL>
3.92085

>  <SCORE.INTRA.DIHEDRAL.0>
7.88077

>  <SCORE.INTRA.POLAR>
0

>  <SCORE.INTRA.POLAR.0>
0

>  <SCORE.INTRA.REPUL>
0

>  <SCORE.INTRA.REPUL.0>
0

>  <SCORE.INTRA.SOLV>
0.0674449

>  <SCORE.INTRA.SOLV.lig_0>
-63.2542

>  <SCORE.INTRA.VDW>
2.97396

>  <SCORE.INTRA.VDW.0>
-3.15072

>  <SCORE.INTRA.norm>
0.191081

>  <SCORE.RESTR>
3.7104

>  <SCORE.RESTR.CAVITY>
3.7104

>  <SCORE.RESTR.norm>
0.142708

>  <SCORE.SYSTEM>
0

>  <SCORE.SYSTEM.CONST>
0

>  <SCORE.SYSTEM.DIHEDRAL>
0

>  <SCORE.SYSTEM.SOLV>
0

>  <SCORE.SYSTEM.norm>
0

>  <SCORE.heavy>
26

>  <SCORE.norm>
-0.0505063

>  <RMSD>
17.382

$$$$
ligand
 OpenBabel11021811473D
libRbt.so/2013.1/901 2013/11/27
 26 27  0  0  0  0  0  0  0  0999 V2000
   -0.6044   -2.2996    9.9450 C   0  0  0  0  0  0  0  0  0  0  0  0
   -0.9919   -1.6603   15.3746 C   0  0  0  0  0  0  0  0  0  0  0  0
   -1.2368   -2.4138   14.2313 C   0  0  0  0  0  0  0  0  0  0  0  0
   -1.0985   -1.8578   12.8120 C   0  0  0  0  0  0  0  0  0  0  0  0
   -1.9444   -2.5978   10.6241 C   0  0  1  0  0  0  0  0  0  0  0  0
   -1.6040   -4.2742   18.0811 C   0  0  0  0  0  0  0  0  0  0  0  0
   -1.4826   -3.6026   16.7124 C   0  0  0  0  0  0  0  0  0  0  0  0
   -1.6036   -3.7458   14.3942 C   0  0  0  0  0  0  0  0  0  0  0  0
   -3.3450   -2.7126   12.4153 C   0  0  0  0  0  0  0  0  0  0  0  0
   -3.0284   -3.1136    9.9239 C   0  0  2  0  0  0  0  0  0  0  0  0
   -3.1799   -3.4971    8.4497 C   0  0  0  0  0  0  0  0  0  0  0  0
   -4.6416   -3.6057    8.0092 C   0  0  0  0  0  0  0  0  0  0  0  0
   -1.1132   -2.2533   16.6329 N   0  0  0  0  0  0  0  0  0  0  0  0
   -2.1443   -2.3945   11.9293 N   0  0  0  0  0  0  0  0  0  0  0  0
   -1.7148   -4.2963   15.5888 N   0  0  0  0  0  0  0  0  0  0  0  0
   -0.6658   -0.4767   15.2820 O   0  0  0  0  0  0  0  0  0  0  0  0
   -6.5024   -5.9492    7.7838 O   0  5  0  0  0  0  0  0  0  0  0  0
   -8.9545   -5.8692    5.4698 O   0  0  0  0  0  0  0  0  0  0  0  0
   -4.7736   -4.3321    6.7834 O   0  0  0  0  0  0  0  0  0  0  0  0
   -7.2879   -4.0857    6.2347 O   0  0  0  0  0  0  0  0  0  0  0  0
   -9.3206   -4.6596    7.7271 O   0  5  0  0  0  0  0  0  0  0  0  0
   -5.9392   -6.0488    5.2630 O   0  0  0  0  0  0  0  0  0  0  0  0
   -9.6427   -3.4003    5.5138 O   0  0  0  0  0  0  0  0  0  0  0  0
   -4.3279   -3.2433   11.0762 S   0  0  0  0  0  0  0  0  0  0  0  0
   -6.1097   -5.1614    6.4364 P   0  0  2  0  0  0  0  0  0  0  0  0
   -8.8324   -4.5187    6.3370 P   0  0  2  0  0  0  0  0  0  0  0  0
  2 16  2  0  0  0  0
  2  3  1  0  0  0  0
  2 13  1  0  0  0  0
  3  8  2  0  0  0  0
  3  4  1  0  0  0  0
  4 14  1  0  0  0  0
  5  1  1  1  0  0  0
  5 14  1  0  0  0  0
  5 10  1  0  0  0  0
  6  7  1  0  0  0  0
  7 13  1  0  0  0  0
  7 15  2  0  0  0  0
  8 15  1  0  0  0  0
  9 14  1  0  0  0  0
  9 24  1  0  0  0  0
 10 24  1  0  0  0  0
 10 11  1  6  0  0  0
 11 12  1  0  0  0  0
 12 19  1  0  0  0  0
 17 25  1  0  0  0  0
 19 25  1  0  0  0  0
 20 26  1  0  0  0  0
 21 26  1  0  0  0  0
 22 25  2  0  0  0  0
 23 26  2  0  0  0  0
 25 20  1  6  0  0  0
 26 18  1  6  0  0  0
M  CHG  2  17  -1  21  -1
M  END
>  <CHROM.1>
-142.54768272,-161.84337350,-162.73458808,-148.45259267,151.70220576,-48.37211762
-44.04678374,-45.93169463,-4.38462679,-3.68617764,10.20134856,-0.90691379
-0.37713508,-1.53054354

>  <Name>
ligand

>  <RI>
0

>  <Rbt.Current_Directory>
/home/itssahil/PROJECTS/Mol_Feturizer/New_Systems/rnas/3D2X

>  <Rbt.Executable>
rbdock ($Id: //depot/dev/client3/rdock/2013.1/src/exe/rbdock.cxx#4 $)

>  <Rbt.Library>
libRbt.so (2013.1, Build901 2013/11/27)

>  <Rbt.Parameter_File>
/export/apps/rDock/src/rDock_2013.1_src/data/scripts/dock_solv.prm

>  <Rbt.Receptor>
prm/blind_docking_20.prm

>  <SCORE>
-7.49199

>  <SCORE.INTER>
-12.5858

>  <SCORE.INTER.CONST>
1

>  <SCORE.INTER.POLAR>
0

>  <SCORE.INTER.ROT>
8

>  <SCORE.INTER.SOLV>
23.4594

>  <SCORE.INTER.VDW>
-25.1436

>  <SCORE.INTER.norm>
-0.484067

>  <SCORE.INTRA>
1.7504

>  <SCORE.INTRA.DIHEDRAL>
2.31405

>  <SCORE.INTRA.DIHEDRAL.0>
7.88077

>  <SCORE.INTRA.POLAR>
0

>  <SCORE.INTRA.POLAR.0>
0

>  <SCORE.INTRA.REPUL>
0

>  <SCORE.INTRA.REPUL.0>
0

>  <SCORE.INTRA.SOLV>
-1.485

>  <SCORE.INTRA.SOLV.lig_0>
-63.2542

>  <SCORE.INTRA.VDW>
1.33587

>  <SCORE.INTRA.VDW.0>
-3.15072

>  <SCORE.INTRA.norm>
0.0673229

>  <SCORE.RESTR>
3.34337

>  <SCORE.RESTR.CAVITY>
3.34337

>  <SCORE.RESTR.norm>
0.128591

>  <SCORE.SYSTEM>
0

>  <SCORE.SYSTEM.CONST>
0

>  <SCORE.SYSTEM.DIHEDRAL>
0

>  <SCORE.SYSTEM.SOLV>
0

>  <SCORE.SYSTEM.norm>
0

>  <SCORE.heavy>
26

>  <SCORE.norm>
-0.288154

>  <RMSD>
17.387

$$$$
ligand
 OpenBabel11021811473D
libRbt.so/2013.1/901 2013/11/27
 26 27  0  0  0  0  0  0  0  0999 V2000
   -2.8703   -4.6150   10.7752 C   0  0  0  0  0  0  0  0  0  0  0  0
   -5.1381   -4.7575    6.6431 C   0  0  0  0  0  0  0  0  0  0  0  0
   -4.4355   -4.3570    7.7748 C   0  0  0  0  0  0  0  0  0  0  0  0
   -2.9070   -4.3225    7.8474 C   0  0  0  0  0  0  0  0  0  0  0  0
   -2.4231   -3.3419   10.0507 C   0  0  1  0  0  0  0  0  0  0  0  0
   -8.7253   -4.2492    7.8288 C   0  0  0  0  0  0  0  0  0  0  0  0
   -7.1969   -4.3006    7.8074 C   0  0  0  0  0  0  0  0  0  0  0  0
   -5.1664   -3.9468    8.8851 C   0  0  0  0  0  0  0  0  0  0  0  0
   -2.0083   -2.0855    8.1980 C   0  0  0  0  0  0  0  0  0  0  0  0
   -1.9542   -2.2279   10.7366 C   0  0  2  0  0  0  0  0  0  0  0  0
   -1.7616   -1.9799   12.2348 C   0  0  0  0  0  0  0  0  0  0  0  0
   -2.9457   -2.4624   13.0759 C   0  0  0  0  0  0  0  0  0  0  0  0
   -6.5342   -4.7317    6.6505 N   0  0  0  0  0  0  0  0  0  0  0  0
   -2.4432   -3.2336    8.7192 N   0  0  0  0  0  0  0  0  0  0  0  0
   -6.4863   -3.9259    8.8809 N   0  0  0  0  0  0  0  0  0  0  0  0
   -4.5358   -5.1302    5.6360 O   0  0  0  0  0  0  0  0  0  0  0  0
   -0.2548   -1.7056   14.9047 O   0  5  0  0  0  0  0  0  0  0  0  0
   -1.1594   -2.5489   19.3037 O   0  0  0  0  0  0  0  0  0  0  0  0
   -2.7324   -2.2340   14.4724 O   0  0  0  0  0  0  0  0  0  0  0  0
   -1.6821   -2.6310   16.8010 O   0  0  0  0  0  0  0  0  0  0  0  0
    0.1816   -4.1412   17.7679 O   0  5  0  0  0  0  0  0  0  0  0  0
   -1.0638   -4.1594   14.8266 O   0  0  0  0  0  0  0  0  0  0  0  0
    0.5137   -1.6010   17.6086 O   0  0  0  0  0  0  0  0  0  0  0  0
   -1.6135   -1.0246    9.5244 S   0  0  0  0  0  0  0  0  0  0  0  0
   -1.4143   -2.7759   15.2220 P   0  0  2  0  0  0  0  0  0  0  0  0
   -0.4936   -2.8277   17.8651 P   0  0  2  0  0  0  0  0  0  0  0  0
  2 16  2  0  0  0  0
  2  3  1  0  0  0  0
  2 13  1  0  0  0  0
  3  8  2  0  0  0  0
  3  4  1  0  0  0  0
  4 14  1  0  0  0  0
  5  1  1  6  0  0  0
  5 14  1  0  0  0  0
  5 10  1  0  0  0  0
  6  7  1  0  0  0  0
  7 13  1  0  0  0  0
  7 15  2  0  0  0  0
  8 15  1  0  0  0  0
  9 14  1  0  0  0  0
  9 24  1  0  0  0  0
 10 24  1  0  0  0  0
 10 11  1  1  0  0  0
 11 12  1  0  0  0  0
 12 19  1  0  0  0  0
 17 25  1  0  0  0  0
 19 25  1  0  0  0  0
 20 26  1  0  0  0  0
 21 26  1  0  0  0  0
 22 25  2  0  0  0  0
 23 26  2  0  0  0  0
 25 20  1  1  0  0  0
 26 18  1  1  0  0  0
M  CHG  2  17  -1  21  -1
M  END
>  <CHROM.1>
147.49948604,-44.31127652,179.26671646,80.32527741,-54.03174488,-56.97497961
81.43454177,177.97763142,-2.66617392,-3.13164174,12.08222117,2.06296758,-0.46813105
-1.47840512

>  <Name>
ligand

>  <RI>
0

>  <Rbt.Current_Directory>
/home/itssahil/PROJECTS/Mol_Feturizer/New_Systems/rnas/3D2X

>  <Rbt.Executable>
rbdock ($Id: //depot/dev/client3/rdock/2013.1/src/exe/rbdock.cxx#4 $)

>  <Rbt.Library>
libRbt.so (2013.1, Build901 2013/11/27)

>  <Rbt.Parameter_File>
/export/apps/rDock/src/rDock_2013.1_src/data/scripts/dock_solv.prm

>  <Rbt.Receptor>
prm/blind_docking_20.prm

>  <SCORE>
28.1537

>  <SCORE.INTER>
24.7836

>  <SCORE.INTER.CONST>
1

>  <SCORE.INTER.POLAR>
0

>  <SCORE.INTER.ROT>
8

>  <SCORE.INTER.SOLV>
19.2516

>  <SCORE.INTER.VDW>
1.17187

>  <SCORE.INTER.norm>
0.953215

>  <SCORE.INTRA>
1.3188

>  <SCORE.INTRA.DIHEDRAL>
-2.35631

>  <SCORE.INTRA.DIHEDRAL.0>
7.88077

>  <SCORE.INTRA.POLAR>
0

>  <SCORE.INTRA.POLAR.0>
0

>  <SCORE.INTRA.REPUL>
0

>  <SCORE.INTRA.REPUL.0>
0

>  <SCORE.INTRA.SOLV>
2.11841

>  <SCORE.INTRA.SOLV.lig_0>
-63.2542

>  <SCORE.INTRA.VDW>
1.43775

>  <SCORE.INTRA.VDW.0>
-3.15072

>  <SCORE.INTRA.norm>
0.0507232

>  <SCORE.RESTR>
2.05128

>  <SCORE.RESTR.CAVITY>
2.05128

>  <SCORE.RESTR.norm>
0.0788956

>  <SCORE.SYSTEM>
0

>  <SCORE.SYSTEM.CONST>
0

>  <SCORE.SYSTEM.DIHEDRAL>
0

>  <SCORE.SYSTEM.SOLV>
0

>  <SCORE.SYSTEM.norm>
0

>  <SCORE.heavy>
26

>  <SCORE.norm>
1.08283

>  <RMSD>
17.388

$$$$
ligand
 OpenBabel11021811473D
libRbt.so/2013.1/901 2013/11/27
 26 27  0  0  0  0  0  0  0  0999 V2000
   -1.9567   -0.1721    9.7764 C   0  0  0  0  0  0  0  0  0  0  0  0
   -3.9361   -4.5393    8.7804 C   0  0  0  0  0  0  0  0  0  0  0  0
   -3.3834   -3.3789    8.2486 C   0  0  0  0  0  0  0  0  0  0  0  0
   -1.9843   -2.8726    8.6078 C   0  0  0  0  0  0  0  0  0  0  0  0
   -1.8311   -1.4512   10.6094 C   0  0  1  0  0  0  0  0  0  0  0  0
   -7.2920   -4.6091    6.9732 C   0  0  0  0  0  0  0  0  0  0  0  0
   -5.9034   -4.1697    7.4401 C   0  0  0  0  0  0  0  0  0  0  0  0
   -4.1378   -2.6600    7.3270 C   0  0  0  0  0  0  0  0  0  0  0  0
   -1.7581   -3.7100   10.8843 C   0  0  0  0  0  0  0  0  0  0  0  0
   -1.7040   -1.4219   11.9930 C   0  0  2  0  0  0  0  0  0  0  0  0
   -1.6662   -0.2459   12.9723 C   0  0  0  0  0  0  0  0  0  0  0  0
   -1.7115   -0.6880   14.4368 C   0  0  0  0  0  0  0  0  0  0  0  0
   -5.2093   -4.9468    8.3770 N   0  0  0  0  0  0  0  0  0  0  0  0
   -1.8518   -2.6677   10.0574 N   0  0  0  0  0  0  0  0  0  0  0  0
   -5.3404   -3.0549    6.9523 N   0  0  0  0  0  0  0  0  0  0  0  0
   -3.3078   -5.2089    9.6005 O   0  0  0  0  0  0  0  0  0  0  0  0
   -0.8942   -3.9121   15.4947 O   0  5  0  0  0  0  0  0  0  0  0  0
    0.2297   -2.9965   19.0105 O   0  0  0  0  0  0  0  0  0  0  0  0
   -0.5620   -1.4623   14.7929 O   0  0  0  0  0  0  0  0  0  0  0  0
    0.9448   -2.5372   16.5978 O   0  0  0  0  0  0  0  0  0  0  0  0
    1.3858   -4.8621   17.6412 O   0  5  0  0  0  0  0  0  0  0  0  0
   -1.5161   -2.0011   17.1203 O   0  0  0  0  0  0  0  0  0  0  0  0
    2.7171   -2.8103   18.4196 O   0  0  0  0  0  0  0  0  0  0  0  0
   -1.5468   -3.0815   12.4971 S   0  0  0  0  0  0  0  0  0  0  0  0
   -0.5711   -2.4439   16.0695 P   0  0  2  0  0  0  0  0  0  0  0  0
    1.3179   -3.4061   17.8975 P   0  0  2  0  0  0  0  0  0  0  0  0
  2 16  2  0  0  0  0
  2  3  1  0  0  0  0
  2 13  1  0  0  0  0
  3  8  2  0  0  0  0
  3  4  1  0  0  0  0
  4 14  1  0  0  0  0
  5  1  1  1  0  0  0
  5 14  1  0  0  0  0
  5 10  1  0  0  0  0
  6  7  1  0  0  0  0
  7 13  1  0  0  0  0
  7 15  2  0  0  0  0
  8 15  1  0  0  0  0
  9 14  1  0  0  0  0
  9 24  1  0  0  0  0
 10 24  1  0  0  0  0
 10 11  1  6  0  0  0
 11 12  1  0  0  0  0
 12 19  1  0  0  0  0
 17 25  1  0  0  0  0
 19 25  1  0  0  0  0
 20 26  1  0  0  0  0
 21 26  1  0  0  0  0
 22 25  2  0  0  0  0
 23 26  2  0  0  0  0
 25 20  1  1  0  0  0
 26 18  1  1  0  0  0
M  CHG  2  17  -1  21  -1
M  END
>  <CHROM.1>
-57.16474015,171.83996623,63.55264859,-106.17868869,-159.37569877,-69.61799433
97.02149438,-47.18708750,-1.67176431,-2.91148418,12.86910442,-2.75182871
1.02196746,2.62282778

>  <Name>
ligand

>  <RI>
0

>  <Rbt.Current_Directory>
/home/itssahil/PROJECTS/Mol_Feturizer/New_Systems/rnas/3D2X

>  <Rbt.Executable>
rbdock ($Id: //depot/dev/client3/rdock/2013.1/src/exe/rbdock.cxx#4 $)

>  <Rbt.Library>
libRbt.so (2013.1, Build901 2013/11/27)

>  <Rbt.Parameter_File>
/export/apps/rDock/src/rDock_2013.1_src/data/scripts/dock_solv.prm

>  <Rbt.Receptor>
prm/blind_docking_20.prm

>  <SCORE>
-0.699332

>  <SCORE.INTER>
-6.54082

>  <SCORE.INTER.CONST>
1

>  <SCORE.INTER.POLAR>
0

>  <SCORE.INTER.ROT>
8

>  <SCORE.INTER.SOLV>
18.7726

>  <SCORE.INTER.VDW>
-19.5514

>  <SCORE.INTER.norm>
-0.25157

>  <SCORE.INTRA>
0.8246

>  <SCORE.INTRA.DIHEDRAL>
0.513615

>  <SCORE.INTRA.DIHEDRAL.0>
7.88077

>  <SCORE.INTRA.POLAR>
0

>  <SCORE.INTRA.POLAR.0>
0

>  <SCORE.INTRA.REPUL>
0

>  <SCORE.INTRA.REPUL.0>
0

>  <SCORE.INTRA.SOLV>
-0.742146

>  <SCORE.INTRA.SOLV.lig_0>
-63.2542

>  <SCORE.INTRA.VDW>
0.938866

>  <SCORE.INTRA.VDW.0>
-3.15072

>  <SCORE.INTRA.norm>
0.0317154

>  <SCORE.RESTR>
5.01689

>  <SCORE.RESTR.CAVITY>
5.01689

>  <SCORE.RESTR.norm>
0.192957

>  <SCORE.SYSTEM>
0

>  <SCORE.SYSTEM.CONST>
0

>  <SCORE.SYSTEM.DIHEDRAL>
0

>  <SCORE.SYSTEM.SOLV>
0

>  <SCORE.SYSTEM.norm>
0

>  <SCORE.heavy>
26

>  <SCORE.norm>
-0.0268974

>  <RMSD>
17.422

$$$$
ligand
 OpenBabel11021811473D
libRbt.so/2013.1/901 2013/11/27
 26 27  0  0  0  0  0  0  0  0999 V2000
   -5.2262   -3.8872   10.8617 C   0  0  0  0  0  0  0  0  0  0  0  0
   -7.2836   -5.4065    6.3410 C   0  0  0  0  0  0  0  0  0  0  0  0
   -7.2471   -5.1133    7.7002 C   0  0  0  0  0  0  0  0  0  0  0  0
   -6.1275   -5.5830    8.6322 C   0  0  0  0  0  0  0  0  0  0  0  0
   -4.5170   -3.9417    9.5054 C   0  0  1  0  0  0  0  0  0  0  0  0
  -10.4615   -3.5692    5.3126 C   0  0  0  0  0  0  0  0  0  0  0  0
   -9.3196   -4.1317    6.1604 C   0  0  0  0  0  0  0  0  0  0  0  0
   -8.2721   -4.3340    8.2271 C   0  0  0  0  0  0  0  0  0  0  0  0
   -4.2302   -4.7067    7.3803 C   0  0  0  0  0  0  0  0  0  0  0  0
   -3.3786   -3.1912    9.2366 C   0  0  2  0  0  0  0  0  0  0  0  0
   -2.5902   -2.2153   10.1138 C   0  0  0  0  0  0  0  0  0  0  0  0
   -1.2700   -2.8015   10.6195 C   0  0  0  0  0  0  0  0  0  0  0  0
   -8.3273   -4.9140    5.5549 N   0  0  0  0  0  0  0  0  0  0  0  0
   -4.9411   -4.7239    8.5088 N   0  0  0  0  0  0  0  0  0  0  0  0
   -9.2537   -3.8732    7.4744 N   0  0  0  0  0  0  0  0  0  0  0  0
   -6.3998   -6.0936    5.8285 O   0  0  0  0  0  0  0  0  0  0  0  0
   -3.0673   -2.5947   13.7134 O   0  5  0  0  0  0  0  0  0  0  0  0
   -2.2192   -4.4506   16.0594 O   0  0  0  0  0  0  0  0  0  0  0  0
   -1.4135   -3.3919   11.9151 O   0  0  0  0  0  0  0  0  0  0  0  0
   -0.6994   -3.2407   14.3952 O   0  0  0  0  0  0  0  0  0  0  0  0
   -0.0882   -3.2544   16.9081 O   0  5  0  0  0  0  0  0  0  0  0  0
   -1.0766   -1.0961   13.0257 O   0  0  0  0  0  0  0  0  0  0  0  0
   -2.0908   -1.8904   16.0611 O   0  0  0  0  0  0  0  0  0  0  0  0
   -2.9566   -3.5328    7.5818 S   0  0  0  0  0  0  0  0  0  0  0  0
   -1.5318   -2.4886   13.2430 P   0  0  2  0  0  0  0  0  0  0  0  0
   -1.1935   -3.2176   15.9245 P   0  0  2  0  0  0  0  0  0  0  0  0
  2 16  2  0  0  0  0
  2  3  1  0  0  0  0
  2 13  1  0  0  0  0
  3  8  2  0  0  0  0
  3  4  1  0  0  0  0
  4 14  1  0  0  0  0
  5  1  1  1  0  0  0
  5 14  1  0  0  0  0
  5 10  1  0  0  0  0
  6  7  1  0  0  0  0
  7 13  1  0  0  0  0
  7 15  2  0  0  0  0
  8 15  1  0  0  0  0
  9 14  1  0  0  0  0
  9 24  1  0  0  0  0
 10 24  1  0  0  0  0
 10 11  1  6  0  0  0
 11 12  1  0  0  0  0
 12 19  1  0  0  0  0
 17 25  1  0  0  0  0
 19 25  1  0  0  0  0
 20 26  1  0  0  0  0
 21 26  1  0  0  0  0
 22 25  2  0  0  0  0
 23 26  2  0  0  0  0
 25 20  1  1  0  0  0
 26 18  1  1  0  0  0
M  CHG  2  17  -1  21  -1
M  END
>  <CHROM.1>
79.99177217,105.04245121,-94.00707089,113.48716836,-75.41387125,-32.19662758
107.32898519,86.66703906,-3.98558155,-3.63226261,10.67203954,2.22926238,-0.18802010
-1.63303135

>  <Name>
ligand

>  <RI>
0

>  <Rbt.Current_Directory>
/home/itssahil/PROJECTS/Mol_Feturizer/New_Systems/rnas/3D2X

>  <Rbt.Executable>
rbdock ($Id: //depot/dev/client3/rdock/2013.1/src/exe/rbdock.cxx#4 $)

>  <Rbt.Library>
libRbt.so (2013.1, Build901 2013/11/27)

>  <Rbt.Parameter_File>
/export/apps/rDock/src/rDock_2013.1_src/data/scripts/dock_solv.prm

>  <Rbt.Receptor>
prm/blind_docking_20.prm

>  <SCORE>
-8.91039

>  <SCORE.INTER>
-14.3264

>  <SCORE.INTER.CONST>
1

>  <SCORE.INTER.POLAR>
0

>  <SCORE.INTER.ROT>
8

>  <SCORE.INTER.SOLV>
18.3631

>  <SCORE.INTER.VDW>
-24.6053

>  <SCORE.INTER.norm>
-0.551016

>  <SCORE.INTRA>
3.59625

>  <SCORE.INTRA.DIHEDRAL>
6.16254

>  <SCORE.INTRA.DIHEDRAL.0>
7.88077

>  <SCORE.INTRA.POLAR>
0

>  <SCORE.INTRA.POLAR.0>
0

>  <SCORE.INTRA.REPUL>
0

>  <SCORE.INTRA.REPUL.0>
0

>  <SCORE.INTRA.SOLV>
1.67325

>  <SCORE.INTRA.SOLV.lig_0>
-63.2542

>  <SCORE.INTRA.VDW>
-0.321643

>  <SCORE.INTRA.VDW.0>
-3.15072

>  <SCORE.INTRA.norm>
0.138317

>  <SCORE.RESTR>
1.81977

>  <SCORE.RESTR.CAVITY>
1.81977

>  <SCORE.RESTR.norm>
0.0699913

>  <SCORE.SYSTEM>
0

>  <SCORE.SYSTEM.CONST>
0

>  <SCORE.SYSTEM.DIHEDRAL>
0

>  <SCORE.SYSTEM.SOLV>
0

>  <SCORE.SYSTEM.norm>
0

>  <SCORE.heavy>
26

>  <SCORE.norm>
-0.342707

>  <RMSD>
17.429

$$$$
ligand
 OpenBabel11021811473D
libRbt.so/2013.1/901 2013/11/27
 26 27  0  0  0  0  0  0  0  0999 V2000
   -4.4698   -1.3098   11.5281 C   0  0  0  0  0  0  0  0  0  0  0  0
   -0.7921   -1.6558   15.4877 C   0  0  0  0  0  0  0  0  0  0  0  0
   -1.5925   -2.1564   14.4662 C   0  0  0  0  0  0  0  0  0  0  0  0
   -2.1423   -1.2927   13.3285 C   0  0  0  0  0  0  0  0  0  0  0  0
   -3.1629   -2.0470   11.2214 C   0  0  1  0  0  0  0  0  0  0  0  0
   -0.1081   -4.8412   17.4671 C   0  0  0  0  0  0  0  0  0  0  0  0
   -0.6434   -3.8775   16.4070 C   0  0  0  0  0  0  0  0  0  0  0  0
   -1.8850   -3.5166   14.4737 C   0  0  0  0  0  0  0  0  0  0  0  0
   -1.0224   -2.6806   11.6688 C   0  0  0  0  0  0  0  0  0  0  0  0
   -2.9828   -2.7751   10.0515 C   0  0  2  0  0  0  0  0  0  0  0  0
   -3.9205   -3.0169    8.8659 C   0  0  0  0  0  0  0  0  0  0  0  0
   -4.7400   -4.3018    9.0064 C   0  0  0  0  0  0  0  0  0  0  0  0
   -0.3074   -2.5188   16.4727 N   0  0  0  0  0  0  0  0  0  0  0  0
   -2.1165   -2.0207   12.0516 N   0  0  0  0  0  0  0  0  0  0  0  0
   -1.4209   -4.3234   15.4097 N   0  0  0  0  0  0  0  0  0  0  0  0
   -0.5067   -0.4588   15.5250 O   0  0  0  0  0  0  0  0  0  0  0  0
   -5.2113   -5.2840    5.2540 O   0  5  0  0  0  0  0  0  0  0  0  0
   -9.1587   -6.3122    5.5208 O   0  0  0  0  0  0  0  0  0  0  0  0
   -4.7948   -5.0330    7.7775 O   0  0  0  0  0  0  0  0  0  0  0  0
   -7.1859   -5.3862    6.8602 O   0  0  0  0  0  0  0  0  0  0  0  0
   -9.4769   -4.1910    6.9670 O   0  5  0  0  0  0  0  0  0  0  0  0
   -5.9769   -3.1463    6.4890 O   0  0  0  0  0  0  0  0  0  0  0  0
   -8.0589   -4.1024    4.8293 O   0  0  0  0  0  0  0  0  0  0  0  0
   -1.3879   -3.4669   10.1559 S   0  0  0  0  0  0  0  0  0  0  0  0
   -5.8014   -4.6132    6.5927 P   0  0  2  0  0  0  0  0  0  0  0  0
   -8.5382   -4.9487    6.1096 P   0  0  2  0  0  0  0  0  0  0  0  0
  2 16  2  0  0  0  0
  2  3  1  0  0  0  0
  2 13  1  0  0  0  0
  3  8  2  0  0  0  0
  3  4  1  0  0  0  0
  4 14  1  0  0  0  0
  5  1  1  6  0  0  0
  5 14  1  0  0  0  0
  5 10  1  0  0  0  0
  6  7  1  0  0  0  0
  7 13  1  0  0  0  0
  7 15  2  0  0  0  0
  8 15  1  0  0  0  0
  9 14  1  0  0  0  0
  9 24  1  0  0  0  0
 10 24  1  0  0  0  0
 10 11  1  1  0  0  0
 11 12  1  0  0  0  0
 12 19  1  0  0  0  0
 17 25  1  0  0  0  0
 19 25  1  0  0  0  0
 20 26  1  0  0  0  0
 21 26  1  0  0  0  0
 22 25  2  0  0  0  0
 23 26  2  0  0  0  0
 25 20  1  1  0  0  0
 26 18  1  6  0  0  0
M  CHG  2  17  -1  21  -1
M  END
>  <CHROM.1>
141.28332441,-93.12651031,-136.92900327,133.19896795,-79.41608861,-83.25506954
159.89140998,130.97930386,-4.07819337,-3.59796687,10.18883643,-0.79007343
-0.60528099,-1.29320799

>  <Name>
ligand

>  <RI>
0

>  <Rbt.Current_Directory>
/home/itssahil/PROJECTS/Mol_Feturizer/New_Systems/rnas/3D2X

>  <Rbt.Executable>
rbdock ($Id: //depot/dev/client3/rdock/2013.1/src/exe/rbdock.cxx#4 $)

>  <Rbt.Library>
libRbt.so (2013.1, Build901 2013/11/27)

>  <Rbt.Parameter_File>
/export/apps/rDock/src/rDock_2013.1_src/data/scripts/dock_solv.prm

>  <Rbt.Receptor>
prm/blind_docking_20.prm

>  <SCORE>
-4.11435

>  <SCORE.INTER>
-13.8642

>  <SCORE.INTER.CONST>
1

>  <SCORE.INTER.POLAR>
0

>  <SCORE.INTER.ROT>
8

>  <SCORE.INTER.SOLV>
16.5715

>  <SCORE.INTER.VDW>
-23.7

>  <SCORE.INTER.norm>
-0.53324

>  <SCORE.INTRA>
4.22557

>  <SCORE.INTRA.DIHEDRAL>
6.66422

>  <SCORE.INTRA.DIHEDRAL.0>
7.88077

>  <SCORE.INTRA.POLAR>
0

>  <SCORE.INTRA.POLAR.0>
0

>  <SCORE.INTRA.REPUL>
0

>  <SCORE.INTRA.REPUL.0>
0

>  <SCORE.INTRA.SOLV>
1.00679

>  <SCORE.INTRA.SOLV.lig_0>
-63.2542

>  <SCORE.INTRA.VDW>
0.390063

>  <SCORE.INTRA.VDW.0>
-3.15072

>  <SCORE.INTRA.norm>
0.162522

>  <SCORE.RESTR>
5.52431

>  <SCORE.RESTR.CAVITY>
5.52431

>  <SCORE.RESTR.norm>
0.212474

>  <SCORE.SYSTEM>
0

>  <SCORE.SYSTEM.CONST>
0

>  <SCORE.SYSTEM.DIHEDRAL>
0

>  <SCORE.SYSTEM.SOLV>
0

>  <SCORE.SYSTEM.norm>
0

>  <SCORE.heavy>
26

>  <SCORE.norm>
-0.158244

>  <RMSD>
17.435

$$$$
ligand
 OpenBabel11021811473D
libRbt.so/2013.1/901 2013/11/27
 26 27  0  0  0  0  0  0  0  0999 V2000
   -3.1216   -3.5435   10.6987 C   0  0  0  0  0  0  0  0  0  0  0  0
   -4.9738   -5.0761    8.7015 C   0  0  0  0  0  0  0  0  0  0  0  0
   -4.2929   -4.2307    7.8319 C   0  0  0  0  0  0  0  0  0  0  0  0
   -2.7699   -4.0790    7.8267 C   0  0  0  0  0  0  0  0  0  0  0  0
   -2.5191   -2.5302    9.7210 C   0  0  1  0  0  0  0  0  0  0  0  0
   -8.5642   -4.5291    7.5428 C   0  0  0  0  0  0  0  0  0  0  0  0
   -7.0432   -4.4185    7.6582 C   0  0  0  0  0  0  0  0  0  0  0  0
   -5.0394   -3.5068    6.9077 C   0  0  0  0  0  0  0  0  0  0  0  0
   -1.8059   -1.8472    7.6697 C   0  0  0  0  0  0  0  0  0  0  0  0
   -2.0830   -1.2764   10.1324 C   0  0  2  0  0  0  0  0  0  0  0  0
   -2.0698   -0.6232   11.5168 C   0  0  0  0  0  0  0  0  0  0  0  0
   -2.5359   -1.5686   12.6265 C   0  0  0  0  0  0  0  0  0  0  0  0
   -6.3641   -5.1777    8.6204 N   0  0  0  0  0  0  0  0  0  0  0  0
   -2.3638   -2.7974    8.4213 N   0  0  0  0  0  0  0  0  0  0  0  0
   -6.3536   -3.6110    6.8395 N   0  0  0  0  0  0  0  0  0  0  0  0
   -4.3573   -5.7365    9.5379 O   0  0  0  0  0  0  0  0  0  0  0  0
   -0.1240   -1.7748   15.1266 O   0  5  0  0  0  0  0  0  0  0  0  0
   -2.9370   -4.0604   17.2476 O   0  0  0  0  0  0  0  0  0  0  0  0
   -1.4871   -2.4436   13.0532 O   0  0  0  0  0  0  0  0  0  0  0  0
   -2.5945   -2.3388   15.3869 O   0  0  0  0  0  0  0  0  0  0  0  0
   -1.5667   -1.9182   17.7226 O   0  5  0  0  0  0  0  0  0  0  0  0
   -0.9245   -4.2149   14.8317 O   0  0  0  0  0  0  0  0  0  0  0  0
   -4.1058   -1.7824   17.3720 O   0  0  0  0  0  0  0  0  0  0  0  0
   -1.5275   -0.4646    8.6952 S   0  0  0  0  0  0  0  0  0  0  0  0
   -1.2610   -2.7898   14.6095 P   0  0  2  0  0  0  0  0  0  0  0  0
   -2.7147   -2.4884   16.9827 P   0  0  2  0  0  0  0  0  0  0  0  0
  2 16  2  0  0  0  0
  2  3  1  0  0  0  0
  2 13  1  0  0  0  0
  3  8  2  0  0  0  0
  3  4  1  0  0  0  0
  4 14  1  0  0  0  0
  5  1  1  1  0  0  0
  5 14  1  0  0  0  0
  5 10  1  0  0  0  0
  6  7  1  0  0  0  0
  7 13  1  0  0  0  0
  7 15  2  0  0  0  0
  8 15  1  0  0  0  0
  9 14  1  0  0  0  0
  9 24  1  0  0  0  0
 10 24  1  0  0  0  0
 10 11  1  6  0  0  0
 11 12  1  0  0  0  0
 12 19  1  0  0  0  0
 17 25  1  0  0  0  0
 19 25  1  0  0  0  0
 20 26  1  0  0  0  0
 21 26  1  0  0  0  0
 22 25  2  0  0  0  0
 23 26  2  0  0  0  0
 25 20  1  1  0  0  0
 26 18  1  1  0  0  0
M  CHG  2  17  -1  21  -1
M  END
>  <CHROM.1>
-105.97175404,4.55343139,81.30483900,68.24426052,138.93839086,-65.90752359
-95.93336232,-74.81627734,-3.05875223,-2.88679994,11.76205332,1.96707810
-0.60146880,-1.48171797

>  <Name>
ligand

>  <RI>
0

>  <Rbt.Current_Directory>
/home/itssahil/PROJECTS/Mol_Feturizer/New_Systems/rnas/3D2X

>  <Rbt.Executable>
rbdock ($Id: //depot/dev/client3/rdock/2013.1/src/exe/rbdock.cxx#4 $)

>  <Rbt.Library>
libRbt.so (2013.1, Build901 2013/11/27)

>  <Rbt.Parameter_File>
/export/apps/rDock/src/rDock_2013.1_src/data/scripts/dock_solv.prm

>  <Rbt.Receptor>
prm/blind_docking_20.prm

>  <SCORE>
13.2723

>  <SCORE.INTER>
-0.0583507

>  <SCORE.INTER.CONST>
1

>  <SCORE.INTER.POLAR>
0

>  <SCORE.INTER.ROT>
8

>  <SCORE.INTER.SOLV>
20.0593

>  <SCORE.INTER.VDW>
-15.6587

>  <SCORE.INTER.norm>
-0.00224426

>  <SCORE.INTRA>
7.88329

>  <SCORE.INTRA.DIHEDRAL>
6.43635

>  <SCORE.INTRA.DIHEDRAL.0>
7.88077

>  <SCORE.INTRA.POLAR>
0

>  <SCORE.INTRA.POLAR.0>
0

>  <SCORE.INTRA.REPUL>
0

>  <SCORE.INTRA.REPUL.0>
0

>  <SCORE.INTRA.SOLV>
-0.686775

>  <SCORE.INTRA.SOLV.lig_0>
-63.2542

>  <SCORE.INTRA.VDW>
5.0085

>  <SCORE.INTRA.VDW.0>
-3.15072

>  <SCORE.INTRA.norm>
0.303203

>  <SCORE.RESTR>
5.4474

>  <SCORE.RESTR.CAVITY>
5.4474

>  <SCORE.RESTR.norm>
0.209515

>  <SCORE.SYSTEM>
0

>  <SCORE.SYSTEM.CONST>
0

>  <SCORE.SYSTEM.DIHEDRAL>
0

>  <SCORE.SYSTEM.SOLV>
0

>  <SCORE.SYSTEM.norm>
0

>  <SCORE.heavy>
26

>  <SCORE.norm>
0.510474

>  <RMSD>
17.504

$$$$
ligand
 OpenBabel11021811473D
libRbt.so/2013.1/901 2013/11/27
 26 27  0  0  0  0  0  0  0  0999 V2000
   -1.9082   -3.9985   10.4871 C   0  0  0  0  0  0  0  0  0  0  0  0
   -4.7081   -4.9207    8.5863 C   0  0  0  0  0  0  0  0  0  0  0  0
   -4.1664   -3.9980    7.6975 C   0  0  0  0  0  0  0  0  0  0  0  0
   -2.6821   -3.6255    7.6727 C   0  0  0  0  0  0  0  0  0  0  0  0
   -2.0628   -2.6229    9.8318 C   0  0  1  0  0  0  0  0  0  0  0  0
   -8.3507   -4.9218    7.4619 C   0  0  0  0  0  0  0  0  0  0  0  0
   -6.8612   -4.5883    7.5582 C   0  0  0  0  0  0  0  0  0  0  0  0
   -5.0195   -3.4050    6.7723 C   0  0  0  0  0  0  0  0  0  0  0  0
   -2.4911   -1.2314    8.0814 C   0  0  0  0  0  0  0  0  0  0  0  0
   -1.8350   -1.4427   10.5294 C   0  0  2  0  0  0  0  0  0  0  0  0
   -1.4059   -1.2010   11.9789 C   0  0  0  0  0  0  0  0  0  0  0  0
   -1.0447   -2.4922   12.7168 C   0  0  0  0  0  0  0  0  0  0  0  0
   -6.0693   -5.2255    8.5227 N   0  0  0  0  0  0  0  0  0  0  0  0
   -2.4099   -2.4776    8.5499 N   0  0  0  0  0  0  0  0  0  0  0  0
   -6.3049   -3.7011    6.7208 N   0  0  0  0  0  0  0  0  0  0  0  0
   -3.9937   -5.4712    9.4244 O   0  0  0  0  0  0  0  0  0  0  0  0
   -2.5692   -2.1111   16.2924 O   0  5  0  0  0  0  0  0  0  0  0  0
   -0.6067   -2.8789   18.3684 O   0  0  0  0  0  0  0  0  0  0  0  0
   -1.8403   -2.6716   13.8926 O   0  0  0  0  0  0  0  0  0  0  0  0
   -0.5548   -3.6258   15.9224 O   0  0  0  0  0  0  0  0  0  0  0  0
    0.8582   -4.8959   17.6771 O   0  5  0  0  0  0  0  0  0  0  0  0
   -0.3776   -1.1269   15.3387 O   0  0  0  0  0  0  0  0  0  0  0  0
    1.5031   -2.5179   16.9579 O   0  0  0  0  0  0  0  0  0  0  0  0
   -2.1732   -0.1502    9.4121 S   0  0  0  0  0  0  0  0  0  0  0  0
   -1.2752   -2.3048   15.3552 P   0  0  2  0  0  0  0  0  0  0  0  0
    0.3317   -3.5764   17.2623 P   0  0  2  0  0  0  0  0  0  0  0  0
  2 16  2  0  0  0  0
  2  3  1  0  0  0  0
  2 13  1  0  0  0  0
  3  8  2  0  0  0  0
  3  4  1  0  0  0  0
  4 14  1  0  0  0  0
  5  1  1  6  0  0  0
  5 14  1  0  0  0  0
  5 10  1  0  0  0  0
  6  7  1  0  0  0  0
  7 13  1  0  0  0  0
  7 15  2  0  0  0  0
  8 15  1  0  0  0  0
  9 14  1  0  0  0  0
  9 24  1  0  0  0  0
 10 24  1  0  0  0  0
 10 11  1  1  0  0  0
 11 12  1  0  0  0  0
 12 19  1  0  0  0  0
 17 25  1  0  0  0  0
 19 25  1  0  0  0  0
 20 26  1  0  0  0  0
 21 26  1  0  0  0  0
 22 25  2  0  0  0  0
 23 26  2  0  0  0  0
 25 20  1  1  0  0  0
 26 18  1  1  0  0  0
M  CHG  2  17  -1  21  -1
M  END
>  <CHROM.1>
-90.80647936,6.68569578,-122.36561509,91.24439202,-99.80703600,-77.70268771
159.33521257,51.76176729,-2.33080668,-2.98636483,12.04150732,2.32662108,-0.80484045
-1.05922541

>  <Name>
ligand

>  <RI>
0

>  <Rbt.Current_Directory>
/home/itssahil/PROJECTS/Mol_Feturizer/New_Systems/rnas/3D2X

>  <Rbt.Executable>
rbdock ($Id: //depot/dev/client3/rdock/2013.1/src/exe/rbdock.cxx#4 $)

>  <Rbt.Library>
libRbt.so (2013.1, Build901 2013/11/27)

>  <Rbt.Parameter_File>
/export/apps/rDock/src/rDock_2013.1_src/data/scripts/dock_solv.prm

>  <Rbt.Receptor>
prm/blind_docking_20.prm

>  <SCORE>
8.26507

>  <SCORE.INTER>
-3.20435

>  <SCORE.INTER.CONST>
1

>  <SCORE.INTER.POLAR>
0

>  <SCORE.INTER.ROT>
8

>  <SCORE.INTER.SOLV>
17.1844

>  <SCORE.INTER.VDW>
-16.7977

>  <SCORE.INTER.norm>
-0.123244

>  <SCORE.INTRA>
8.82991

>  <SCORE.INTRA.DIHEDRAL>
9.43412

>  <SCORE.INTRA.DIHEDRAL.0>
7.88077

>  <SCORE.INTRA.POLAR>
0

>  <SCORE.INTRA.POLAR.0>
0

>  <SCORE.INTRA.REPUL>
0

>  <SCORE.INTRA.REPUL.0>
0

>  <SCORE.INTRA.SOLV>
-0.309309

>  <SCORE.INTRA.SOLV.lig_0>
-63.2542

>  <SCORE.INTRA.VDW>
4.2675

>  <SCORE.INTRA.VDW.0>
-3.15072

>  <SCORE.INTRA.norm>
0.339612

>  <SCORE.RESTR>
2.63951

>  <SCORE.RESTR.CAVITY>
2.63951

>  <SCORE.RESTR.norm>
0.10152

>  <SCORE.SYSTEM>
0

>  <SCORE.SYSTEM.CONST>
0

>  <SCORE.SYSTEM.DIHEDRAL>
0

>  <SCORE.SYSTEM.SOLV>
0

>  <SCORE.SYSTEM.norm>
0

>  <SCORE.heavy>
26

>  <SCORE.norm>
0.317887

>  <RMSD>
17.511

$$$$
ligand
 OpenBabel11021811473D
libRbt.so/2013.1/901 2013/11/27
 26 27  0  0  0  0  0  0  0  0999 V2000
   -2.8189   -2.2875    7.6575 C   0  0  0  0  0  0  0  0  0  0  0  0
   -6.7029   -5.3707    5.6910 C   0  0  0  0  0  0  0  0  0  0  0  0
   -6.6556   -4.1739    6.3983 C   0  0  0  0  0  0  0  0  0  0  0  0
   -5.3563   -3.4184    6.6871 C   0  0  0  0  0  0  0  0  0  0  0  0
   -3.5527   -3.4339    8.3596 C   0  0  1  0  0  0  0  0  0  0  0  0
  -10.4604   -6.0122    5.6491 C   0  0  0  0  0  0  0  0  0  0  0  0
   -9.1007   -5.3678    5.9227 C   0  0  0  0  0  0  0  0  0  0  0  0
   -7.8570   -3.6310    6.8426 C   0  0  0  0  0  0  0  0  0  0  0  0
   -5.2672   -4.9105    8.6108 C   0  0  0  0  0  0  0  0  0  0  0  0
   -3.0676   -4.0181    9.5236 C   0  0  2  0  0  0  0  0  0  0  0  0
   -1.8147   -3.7174   10.3502 C   0  0  0  0  0  0  0  0  0  0  0  0
   -2.0942   -2.8028   11.5450 C   0  0  0  0  0  0  0  0  0  0  0  0
   -7.9346   -5.9809    5.4455 N   0  0  0  0  0  0  0  0  0  0  0  0
   -4.7072   -3.9280    7.9037 N   0  0  0  0  0  0  0  0  0  0  0  0
   -9.0159   -4.2163    6.6044 N   0  0  0  0  0  0  0  0  0  0  0  0
   -5.6663   -5.8911    5.2782 O   0  0  0  0  0  0  0  0  0  0  0  0
   -3.0292   -2.4091   14.2103 O   0  5  0  0  0  0  0  0  0  0  0  0
   -0.4585   -5.0801   17.1611 O   0  0  0  0  0  0  0  0  0  0  0  0
   -1.1226   -2.9727   12.5818 O   0  0  0  0  0  0  0  0  0  0  0  0
   -1.0546   -3.7927   15.0325 O   0  0  0  0  0  0  0  0  0  0  0  0
    0.0196   -2.5414   17.0247 O   0  5  0  0  0  0  0  0  0  0  0  0
   -0.7110   -1.3012   14.4933 O   0  0  0  0  0  0  0  0  0  0  0  0
   -2.3946   -3.4002   17.1738 O   0  0  0  0  0  0  0  0  0  0  0  0
   -4.1879   -5.2890    9.9271 S   0  0  0  0  0  0  0  0  0  0  0  0
   -1.4284   -2.5361   14.1014 P   0  0  2  0  0  0  0  0  0  0  0  0
   -0.9010   -3.6288   16.6241 P   0  0  2  0  0  0  0  0  0  0  0  0
  2 16  2  0  0  0  0
  2  3  1  0  0  0  0
  2 13  1  0  0  0  0
  3  8  2  0  0  0  0
  3  4  1  0  0  0  0
  4 14  1  0  0  0  0
  5  1  1  1  0  0  0
  5 14  1  0  0  0  0
  5 10  1  0  0  0  0
  6  7  1  0  0  0  0
  7 13  1  0  0  0  0
  7 15  2  0  0  0  0
  8 15  1  0  0  0  0
  9 14  1  0  0  0  0
  9 24  1  0  0  0  0
 10 24  1  0  0  0  0
 10 11  1  6  0  0  0
 11 12  1  0  0  0  0
 12 19  1  0  0  0  0
 17 25  1  0  0  0  0
 19 25  1  0  0  0  0
 20 26  1  0  0  0  0
 21 26  1  0  0  0  0
 22 25  2  0  0  0  0
 23 26  2  0  0  0  0
 25 20  1  1  0  0  0
 26 18  1  1  0  0  0
M  CHG  2  17  -1  21  -1
M  END
>  <CHROM.1>
-85.56997940,96.91233335,155.63266960,179.58048967,-159.08321936,-82.31122975
18.21432789,-177.32704259,-3.75241455,-3.88331903,10.88493987,-2.22922069
0.46795443,1.72110849

>  <Name>
ligand

>  <RI>
0

>  <Rbt.Current_Directory>
/home/itssahil/PROJECTS/Mol_Feturizer/New_Systems/rnas/3D2X

>  <Rbt.Executable>
rbdock ($Id: //depot/dev/client3/rdock/2013.1/src/exe/rbdock.cxx#4 $)

>  <Rbt.Library>
libRbt.so (2013.1, Build901 2013/11/27)

>  <Rbt.Parameter_File>
/export/apps/rDock/src/rDock_2013.1_src/data/scripts/dock_solv.prm

>  <Rbt.Receptor>
prm/blind_docking_20.prm

>  <SCORE>
-10.8427

>  <SCORE.INTER>
-15.5084

>  <SCORE.INTER.CONST>
1

>  <SCORE.INTER.POLAR>
0

>  <SCORE.INTER.ROT>
8

>  <SCORE.INTER.SOLV>
19.4696

>  <SCORE.INTER.VDW>
-25.7621

>  <SCORE.INTER.norm>
-0.596476

>  <SCORE.INTRA>
2.8527

>  <SCORE.INTRA.DIHEDRAL>
3.81522

>  <SCORE.INTRA.DIHEDRAL.0>
7.88077

>  <SCORE.INTRA.POLAR>
0

>  <SCORE.INTRA.POLAR.0>
0

>  <SCORE.INTRA.REPUL>
0

>  <SCORE.INTRA.REPUL.0>
0

>  <SCORE.INTRA.SOLV>
0.591006

>  <SCORE.INTRA.SOLV.lig_0>
-63.2542

>  <SCORE.INTRA.VDW>
0.649587

>  <SCORE.INTRA.VDW.0>
-3.15072

>  <SCORE.INTRA.norm>
0.109719

>  <SCORE.RESTR>
1.81297

>  <SCORE.RESTR.CAVITY>
1.81297

>  <SCORE.RESTR.norm>
0.0697297

>  <SCORE.SYSTEM>
0

>  <SCORE.SYSTEM.CONST>
0

>  <SCORE.SYSTEM.DIHEDRAL>
0

>  <SCORE.SYSTEM.SOLV>
0

>  <SCORE.SYSTEM.norm>
0

>  <SCORE.heavy>
26

>  <SCORE.norm>
-0.417027

>  <RMSD>
17.578

$$$$
ligand
 OpenBabel11021811473D
libRbt.so/2013.1/901 2013/11/27
 26 27  0  0  0  0  0  0  0  0999 V2000
   -2.8455   -2.2454    7.6920 C   0  0  0  0  0  0  0  0  0  0  0  0
   -6.7012   -5.3727    5.6880 C   0  0  0  0  0  0  0  0  0  0  0  0
   -6.6456   -4.1621    6.3706 C   0  0  0  0  0  0  0  0  0  0  0  0
   -5.3390   -3.4197    6.6612 C   0  0  0  0  0  0  0  0  0  0  0  0
   -3.5667   -3.4160    8.3668 C   0  0  1  0  0  0  0  0  0  0  0  0
  -10.4671   -5.9600    5.6085 C   0  0  0  0  0  0  0  0  0  0  0  0
   -9.1016   -5.3298    5.8870 C   0  0  0  0  0  0  0  0  0  0  0  0
   -7.8445   -3.5923    6.7871 C   0  0  0  0  0  0  0  0  0  0  0  0
   -5.2525   -4.9326    8.5688 C   0  0  0  0  0  0  0  0  0  0  0  0
   -3.0904   -4.0033    9.5328 C   0  0  2  0  0  0  0  0  0  0  0  0
   -1.8599   -3.6853   10.3862 C   0  0  0  0  0  0  0  0  0  0  0  0
   -2.1862   -2.8137   11.6011 C   0  0  0  0  0  0  0  0  0  0  0  0
   -7.9386   -5.9700    5.4387 N   0  0  0  0  0  0  0  0  0  0  0  0
   -4.7014   -3.9296    7.8837 N   0  0  0  0  0  0  0  0  0  0  0  0
   -9.0088   -4.1656    6.5455 N   0  0  0  0  0  0  0  0  0  0  0  0
   -5.6671   -5.9169    5.3004 O   0  0  0  0  0  0  0  0  0  0  0  0
   -3.0089   -2.4265   14.2799 O   0  5  0  0  0  0  0  0  0  0  0  0
    0.2472   -2.6280   16.9052 O   0  0  0  0  0  0  0  0  0  0  0  0
   -1.1346   -2.8409   12.5712 O   0  0  0  0  0  0  0  0  0  0  0  0
   -0.9671   -3.7831   14.9728 O   0  0  0  0  0  0  0  0  0  0  0  0
   -2.1812   -3.4571   17.2329 O   0  5  0  0  0  0  0  0  0  0  0  0
   -0.7202   -1.2570   14.5553 O   0  0  0  0  0  0  0  0  0  0  0  0
   -0.2543   -5.1393   17.0191 O   0  0  0  0  0  0  0  0  0  0  0  0
   -4.1896   -5.3033    9.9005 S   0  0  0  0  0  0  0  0  0  0  0  0
   -1.4088   -2.4936   14.1196 P   0  0  2  0  0  0  0  0  0  0  0  0
   -0.8822   -3.7267   16.5769 P   0  0  2  0  0  0  0  0  0  0  0  0
  2 16  2  0  0  0  0
  2  3  1  0  0  0  0
  2 13  1  0  0  0  0
  3  8  2  0  0  0  0
  3  4  1  0  0  0  0
  4 14  1  0  0  0  0
  5  1  1  1  0  0  0
  5 14  1  0  0  0  0
  5 10  1  0  0  0  0
  6  7  1  0  0  0  0
  7 13  1  0  0  0  0
  7 15  2  0  0  0  0
  8 15  1  0  0  0  0
  9 14  1  0  0  0  0
  9 24  1  0  0  0  0
 10 24  1  0  0  0  0
 10 11  1  6  0  0  0
 11 12  1  0  0  0  0
 12 19  1  0  0  0  0
 17 25  1  0  0  0  0
 19 25  1  0  0  0  0
 20 26  1  0  0  0  0
 21 26  1  0  0  0  0
 22 25  2  0  0  0  0
 23 26  2  0  0  0  0
 25 20  1  1  0  0  0
 26 18  1  1  0  0  0
M  CHG  2  17  -1  21  -1
M  END
>  <CHROM.1>
-84.53710667,98.01711085,163.52353931,-178.11705639,-156.95996731,-77.50878989
10.16122656,-62.38647295,-3.72674444,-3.88196722,10.87117457,-2.24991700
0.49735450,1.75723778

>  <Name>
ligand

>  <RI>
0

>  <Rbt.Current_Directory>
/home/itssahil/PROJECTS/Mol_Feturizer/New_Systems/rnas/3D2X

>  <Rbt.Executable>
rbdock ($Id: //depot/dev/client3/rdock/2013.1/src/exe/rbdock.cxx#4 $)

>  <Rbt.Library>
libRbt.so (2013.1, Build901 2013/11/27)

>  <Rbt.Parameter_File>
/export/apps/rDock/src/rDock_2013.1_src/data/scripts/dock_solv.prm

>  <Rbt.Receptor>
prm/blind_docking_20.prm

>  <SCORE>
-11.1723

>  <SCORE.INTER>
-14.7065

>  <SCORE.INTER.CONST>
1

>  <SCORE.INTER.POLAR>
0

>  <SCORE.INTER.ROT>
8

>  <SCORE.INTER.SOLV>
22.4486

>  <SCORE.INTER.VDW>
-26.2205

>  <SCORE.INTER.norm>
-0.565635

>  <SCORE.INTRA>
1.69334

>  <SCORE.INTRA.DIHEDRAL>
3.14859

>  <SCORE.INTRA.DIHEDRAL.0>
7.88077

>  <SCORE.INTRA.POLAR>
0

>  <SCORE.INTRA.POLAR.0>
0

>  <SCORE.INTRA.REPUL>
0

>  <SCORE.INTRA.REPUL.0>
0

>  <SCORE.INTRA.SOLV>
-1.14735

>  <SCORE.INTRA.SOLV.lig_0>
-63.2542

>  <SCORE.INTRA.VDW>
0.692721

>  <SCORE.INTRA.VDW.0>
-3.15072

>  <SCORE.INTRA.norm>
0.0651283

>  <SCORE.RESTR>
1.84089

>  <SCORE.RESTR.CAVITY>
1.84089

>  <SCORE.RESTR.norm>
0.0708036

>  <SCORE.SYSTEM>
0

>  <SCORE.SYSTEM.CONST>
0

>  <SCORE.SYSTEM.DIHEDRAL>
0

>  <SCORE.SYSTEM.SOLV>
0

>  <SCORE.SYSTEM.norm>
0

>  <SCORE.heavy>
26

>  <SCORE.norm>
-0.429703

>  <RMSD>
17.587

$$$$
ligand
 OpenBabel11021811473D
libRbt.so/2013.1/901 2013/11/27
 26 27  0  0  0  0  0  0  0  0999 V2000
   -1.7474   -4.0713   10.4734 C   0  0  0  0  0  0  0  0  0  0  0  0
   -4.8959   -4.6776    6.8347 C   0  0  0  0  0  0  0  0  0  0  0  0
   -4.2671   -3.9143    7.8127 C   0  0  0  0  0  0  0  0  0  0  0  0
   -2.7815   -3.5488    7.7685 C   0  0  0  0  0  0  0  0  0  0  0  0
   -2.0143   -2.6639    9.9315 C   0  0  1  0  0  0  0  0  0  0  0  0
   -8.4744   -4.6910    8.1489 C   0  0  0  0  0  0  0  0  0  0  0  0
   -6.9726   -4.4271    8.0296 C   0  0  0  0  0  0  0  0  0  0  0  0
   -5.0396   -3.4437    8.8698 C   0  0  0  0  0  0  0  0  0  0  0  0
   -2.6510   -1.1808    8.3258 C   0  0  0  0  0  0  0  0  0  0  0  0
   -1.7731   -1.5233   10.6879 C   0  0  2  0  0  0  0  0  0  0  0  0
   -1.2274   -1.3586   12.1087 C   0  0  0  0  0  0  0  0  0  0  0  0
   -1.7826   -2.3985   13.0847 C   0  0  0  0  0  0  0  0  0  0  0  0
   -6.2634   -4.9414    6.9360 N   0  0  0  0  0  0  0  0  0  0  0  0
   -2.4790   -2.4503    8.6973 N   0  0  0  0  0  0  0  0  0  0  0  0
   -6.3320   -3.6988    8.9552 N   0  0  0  0  0  0  0  0  0  0  0  0
   -4.2544   -5.1176    5.8804 O   0  0  0  0  0  0  0  0  0  0  0  0
   -1.3968   -0.2200   14.9215 O   0  5  0  0  0  0  0  0  0  0  0  0
   -0.4753   -3.9650   17.5153 O   0  0  0  0  0  0  0  0  0  0  0  0
   -0.8903   -2.6278   14.1797 O   0  0  0  0  0  0  0  0  0  0  0  0
   -1.9563   -2.1509   16.4861 O   0  0  0  0  0  0  0  0  0  0  0  0
   -3.0141   -3.9513   18.0119 O   0  5  0  0  0  0  0  0  0  0  0  0
    0.5076   -1.5526   16.0524 O   0  0  0  0  0  0  0  0  0  0  0  0
   -2.1535   -4.5664   15.6732 O   0  0  0  0  0  0  0  0  0  0  0  0
   -2.2601   -0.1766    9.6968 S   0  0  0  0  0  0  0  0  0  0  0  0
   -0.8417   -1.6362   15.4475 P   0  0  2  0  0  0  0  0  0  0  0  0
   -1.9717   -3.6742   16.9984 P   0  0  2  0  0  0  0  0  0  0  0  0
  2 16  2  0  0  0  0
  2  3  1  0  0  0  0
  2 13  1  0  0  0  0
  3  8  2  0  0  0  0
  3  4  1  0  0  0  0
  4 14  1  0  0  0  0
  5  1  1  6  0  0  0
  5 14  1  0  0  0  0
  5 10  1  0  0  0  0
  6  7  1  0  0  0  0
  7 13  1  0  0  0  0
  7 15  2  0  0  0  0
  8 15  1  0  0  0  0
  9 14  1  0  0  0  0
  9 24  1  0  0  0  0
 10 24  1  0  0  0  0
 10 11  1  1  0  0  0
 11 12  1  0  0  0  0
 12 19  1  0  0  0  0
 17 25  1  0  0  0  0
 19 25  1  0  0  0  0
 20 26  1  0  0  0  0
 21 26  1  0  0  0  0
 22 25  2  0  0  0  0
 23 26  2  0  0  0  0
 25 20  1  1  0  0  0
 26 18  1  1  0  0  0
M  CHG  2  17  -1  21  -1
M  END
>  <CHROM.1>
164.09439153,-40.52801483,154.29979279,95.81841597,81.21143060,165.98316356
-23.94007064,51.37192271,-2.74943054,-2.87525857,11.96579501,-2.12311815
0.73391487,1.83286337

>  <Name>
ligand

>  <RI>
0

>  <Rbt.Current_Directory>
/home/itssahil/PROJECTS/Mol_Feturizer/New_Systems/rnas/3D2X

>  <Rbt.Executable>
rbdock ($Id: //depot/dev/client3/rdock/2013.1/src/exe/rbdock.cxx#4 $)

>  <Rbt.Library>
libRbt.so (2013.1, Build901 2013/11/27)

>  <Rbt.Parameter_File>
/export/apps/rDock/src/rDock_2013.1_src/data/scripts/dock_solv.prm

>  <Rbt.Receptor>
prm/blind_docking_20.prm

>  <SCORE>
8.82564

>  <SCORE.INTER>
2.56983

>  <SCORE.INTER.CONST>
1

>  <SCORE.INTER.POLAR>
0

>  <SCORE.INTER.ROT>
8

>  <SCORE.INTER.SOLV>
22.812

>  <SCORE.INTER.VDW>
-14.8241

>  <SCORE.INTER.norm>
0.0988396

>  <SCORE.INTRA>
1.88264

>  <SCORE.INTRA.DIHEDRAL>
2.599

>  <SCORE.INTRA.DIHEDRAL.0>
7.88077

>  <SCORE.INTRA.POLAR>
0

>  <SCORE.INTRA.POLAR.0>
0

>  <SCORE.INTRA.REPUL>
0

>  <SCORE.INTRA.REPUL.0>
0

>  <SCORE.INTRA.SOLV>
-0.603196

>  <SCORE.INTRA.SOLV.lig_0>
-63.2542

>  <SCORE.INTRA.VDW>
0.884739

>  <SCORE.INTRA.VDW.0>
-3.15072

>  <SCORE.INTRA.norm>
0.0724092

>  <SCORE.RESTR>
4.37317

>  <SCORE.RESTR.CAVITY>
4.37317

>  <SCORE.RESTR.norm>
0.168199

>  <SCORE.SYSTEM>
0

>  <SCORE.SYSTEM.CONST>
0

>  <SCORE.SYSTEM.DIHEDRAL>
0

>  <SCORE.SYSTEM.SOLV>
0

>  <SCORE.SYSTEM.norm>
0

>  <SCORE.heavy>
26

>  <SCORE.norm>
0.339448

>  <RMSD>
17.596

$$$$
ligand
 OpenBabel11021811473D
libRbt.so/2013.1/901 2013/11/27
 26 27  0  0  0  0  0  0  0  0999 V2000
   -4.4947   -2.1383   10.2379 C   0  0  0  0  0  0  0  0  0  0  0  0
   -3.3479   -3.8971    7.6620 C   0  0  0  0  0  0  0  0  0  0  0  0
   -3.7081   -2.5702    7.4515 C   0  0  0  0  0  0  0  0  0  0  0  0
   -2.8569   -1.3845    7.9123 C   0  0  0  0  0  0  0  0  0  0  0  0
   -2.9717   -1.9865   10.2945 C   0  0  1  0  0  0  0  0  0  0  0  0
   -6.2452   -5.6894    5.9514 C   0  0  0  0  0  0  0  0  0  0  0  0
   -5.3428   -4.5823    6.4982 C   0  0  0  0  0  0  0  0  0  0  0  0
   -4.8922   -2.3164    6.7667 C   0  0  0  0  0  0  0  0  0  0  0  0
   -0.9262   -1.5691    9.3864 C   0  0  0  0  0  0  0  0  0  0  0  0
   -2.2504   -2.2075   11.4616 C   0  0  2  0  0  0  0  0  0  0  0  0
   -2.7096   -2.6256   12.8608 C   0  0  0  0  0  0  0  0  0  0  0  0
   -1.6538   -2.3646   13.9375 C   0  0  0  0  0  0  0  0  0  0  0  0
   -4.1681   -4.9207    7.1830 N   0  0  0  0  0  0  0  0  0  0  0  0
   -2.2476   -1.6486    9.2238 N   0  0  0  0  0  0  0  0  0  0  0  0
   -5.6598   -3.2920    6.3179 N   0  0  0  0  0  0  0  0  0  0  0  0
   -2.3099   -4.1724    8.2640 O   0  0  0  0  0  0  0  0  0  0  0  0
   -1.6172   -2.9047   17.4944 O   0  5  0  0  0  0  0  0  0  0  0  0
    2.0789   -5.4796   17.4328 O   0  0  0  0  0  0  0  0  0  0  0  0
   -1.6878   -3.3590   14.9660 O   0  0  0  0  0  0  0  0  0  0  0  0
   -0.2151   -4.7993   16.5280 O   0  0  0  0  0  0  0  0  0  0  0  0
    0.4588   -4.1333   18.9345 O   0  5  0  0  0  0  0  0  0  0  0  0
    0.4364   -2.3630   16.0210 O   0  0  0  0  0  0  0  0  0  0  0  0
   -0.0449   -6.5819   18.3522 O   0  0  0  0  0  0  0  0  0  0  0  0
   -0.5864   -1.8756   11.0691 S   0  0  0  0  0  0  0  0  0  0  0  0
   -0.6962   -3.2935   16.2331 P   0  0  2  0  0  0  0  0  0  0  0  0
    0.5650   -5.1700   17.8836 P   0  0  2  0  0  0  0  0  0  0  0  0
  2 16  2  0  0  0  0
  2  3  1  0  0  0  0
  2 13  1  0  0  0  0
  3  8  2  0  0  0  0
  3  4  1  0  0  0  0
  4 14  1  0  0  0  0
  5  1  1  6  0  0  0
  5 14  1  0  0  0  0
  5 10  1  0  0  0  0
  6  7  1  0  0  0  0
  7 13  1  0  0  0  0
  7 15  2  0  0  0  0
  8 15  1  0  0  0  0
  9 14  1  0  0  0  0
  9 24  1  0  0  0  0
 10 24  1  0  0  0  0
 10 11  1  1  0  0  0
 11 12  1  0  0  0  0
 12 19  1  0  0  0  0
 17 25  1  0  0  0  0
 19 25  1  0  0  0  0
 20 26  1  0  0  0  0
 21 26  1  0  0  0  0
 22 25  2  0  0  0  0
 23 26  2  0  0  0  0
 25 20  1  1  0  0  0
 26 18  1  6  0  0  0
M  CHG  2  17  -1  21  -1
M  END
>  <CHROM.1>
-38.33700581,-163.36302779,-146.03538654,-55.25966711,-178.67335061,-56.41751687
108.91302657,-109.34146846,-1.86243669,-3.42164119,12.42809153,-2.39628354
1.00623533,2.42210924

>  <Name>
ligand

>  <RI>
0

>  <Rbt.Current_Directory>
/home/itssahil/PROJECTS/Mol_Feturizer/New_Systems/rnas/3D2X

>  <Rbt.Executable>
rbdock ($Id: //depot/dev/client3/rdock/2013.1/src/exe/rbdock.cxx#4 $)

>  <Rbt.Library>
libRbt.so (2013.1, Build901 2013/11/27)

>  <Rbt.Parameter_File>
/export/apps/rDock/src/rDock_2013.1_src/data/scripts/dock_solv.prm

>  <Rbt.Receptor>
prm/blind_docking_20.prm

>  <SCORE>
-6.03838

>  <SCORE.INTER>
-15.0175

>  <SCORE.INTER.CONST>
1

>  <SCORE.INTER.POLAR>
0

>  <SCORE.INTER.ROT>
8

>  <SCORE.INTER.SOLV>
17.2515

>  <SCORE.INTER.VDW>
-24.6955

>  <SCORE.INTER.norm>
-0.577597

>  <SCORE.INTRA>
3.30436

>  <SCORE.INTRA.DIHEDRAL>
4.26887

>  <SCORE.INTRA.DIHEDRAL.0>
7.88077

>  <SCORE.INTRA.POLAR>
0

>  <SCORE.INTRA.POLAR.0>
0

>  <SCORE.INTRA.REPUL>
0

>  <SCORE.INTRA.REPUL.0>
0

>  <SCORE.INTRA.SOLV>
0.0818189

>  <SCORE.INTRA.SOLV.lig_0>
-63.2542

>  <SCORE.INTRA.VDW>
1.12902

>  <SCORE.INTRA.VDW.0>
-3.15072

>  <SCORE.INTRA.norm>
0.127091

>  <SCORE.RESTR>
5.67478

>  <SCORE.RESTR.CAVITY>
5.67478

>  <SCORE.RESTR.norm>
0.218261

>  <SCORE.SYSTEM>
0

>  <SCORE.SYSTEM.CONST>
0

>  <SCORE.SYSTEM.DIHEDRAL>
0

>  <SCORE.SYSTEM.SOLV>
0

>  <SCORE.SYSTEM.norm>
0

>  <SCORE.heavy>
26

>  <SCORE.norm>
-0.232245

>  <RMSD>
17.628

$$$$
ligand
 OpenBabel11021811473D
libRbt.so/2013.1/901 2013/11/27
 26 27  0  0  0  0  0  0  0  0999 V2000
   -3.9970   -3.2569   11.1937 C   0  0  0  0  0  0  0  0  0  0  0  0
   -1.2873   -3.0563   14.5999 C   0  0  0  0  0  0  0  0  0  0  0  0
   -1.5998   -1.7662   14.1845 C   0  0  0  0  0  0  0  0  0  0  0  0
   -2.5521   -1.4634   13.0252 C   0  0  0  0  0  0  0  0  0  0  0  0
   -2.6043   -2.6936   10.8958 C   0  0  1  0  0  0  0  0  0  0  0  0
    1.0232   -2.3064   17.5379 C   0  0  0  0  0  0  0  0  0  0  0  0
    0.0969   -2.1204   16.3352 C   0  0  0  0  0  0  0  0  0  0  0  0
   -1.0315   -0.7021   14.8776 C   0  0  0  0  0  0  0  0  0  0  0  0
   -0.7702   -1.4288   11.3643 C   0  0  0  0  0  0  0  0  0  0  0  0
   -1.9248   -2.9877    9.7198 C   0  0  2  0  0  0  0  0  0  0  0  0
   -2.3241   -3.8491    8.5190 C   0  0  0  0  0  0  0  0  0  0  0  0
   -3.7756   -3.6309    8.0853 C   0  0  0  0  0  0  0  0  0  0  0  0
   -0.4309   -3.2447   15.6866 N   0  0  0  0  0  0  0  0  0  0  0  0
   -1.9693   -1.8759   11.7402 N   0  0  0  0  0  0  0  0  0  0  0  0
   -0.2234   -0.8919   15.9040 N   0  0  0  0  0  0  0  0  0  0  0  0
   -1.7643   -4.0305   14.0175 O   0  0  0  0  0  0  0  0  0  0  0  0
   -6.2335   -5.9751    6.2947 O   0  5  0  0  0  0  0  0  0  0  0  0
   -8.6064   -5.2393    7.2470 O   0  0  0  0  0  0  0  0  0  0  0  0
   -4.2189   -4.6505    7.1844 O   0  0  0  0  0  0  0  0  0  0  0  0
   -6.6015   -3.6508    7.2700 O   0  0  0  0  0  0  0  0  0  0  0  0
   -7.0409   -5.1843    9.3057 O   0  5  0  0  0  0  0  0  0  0  0  0
   -5.3824   -3.8947    5.0182 O   0  0  0  0  0  0  0  0  0  0  0  0
   -8.5958   -3.2042    8.8057 O   0  0  0  0  0  0  0  0  0  0  0  0
   -0.3870   -2.1787    9.8373 S   0  0  0  0  0  0  0  0  0  0  0  0
   -5.5902   -4.5009    6.3534 P   0  0  2  0  0  0  0  0  0  0  0  0
   -7.6639   -4.3812    8.2299 P   0  0  2  0  0  0  0  0  0  0  0  0
  2 16  2  0  0  0  0
  2  3  1  0  0  0  0
  2 13  1  0  0  0  0
  3  8  2  0  0  0  0
  3  4  1  0  0  0  0
  4 14  1  0  0  0  0
  5  1  1  6  0  0  0
  5 14  1  0  0  0  0
  5 10  1  0  0  0  0
  6  7  1  0  0  0  0
  7 13  1  0  0  0  0
  7 15  2  0  0  0  0
  8 15  1  0  0  0  0
  9 14  1  0  0  0  0
  9 24  1  0  0  0  0
 10 24  1  0  0  0  0
 10 11  1  1  0  0  0
 11 12  1  0  0  0  0
 12 19  1  0  0  0  0
 17 25  1  0  0  0  0
 19 25  1  0  0  0  0
 20 26  1  0  0  0  0
 21 26  1  0  0  0  0
 22 25  2  0  0  0  0
 23 26  2  0  0  0  0
 25 20  1  1  0  0  0
 26 18  1  6  0  0  0
M  CHG  2  17  -1  21  -1
M  END
>  <CHROM.1>
-68.47456585,42.92949417,-166.33791750,125.77566433,-167.57145200,17.68819183
-143.15166289,-61.18576858,-3.59401946,-3.30457966,10.39515403,0.89487901
0.26673759,1.47160655

>  <Name>
ligand

>  <RI>
0

>  <Rbt.Current_Directory>
/home/itssahil/PROJECTS/Mol_Feturizer/New_Systems/rnas/3D2X

>  <Rbt.Executable>
rbdock ($Id: //depot/dev/client3/rdock/2013.1/src/exe/rbdock.cxx#4 $)

>  <Rbt.Library>
libRbt.so (2013.1, Build901 2013/11/27)

>  <Rbt.Parameter_File>
/export/apps/rDock/src/rDock_2013.1_src/data/scripts/dock_solv.prm

>  <Rbt.Receptor>
prm/blind_docking_20.prm

>  <SCORE>
-5.42738

>  <SCORE.INTER>
-11.0441

>  <SCORE.INTER.CONST>
1

>  <SCORE.INTER.POLAR>
0

>  <SCORE.INTER.ROT>
8

>  <SCORE.INTER.SOLV>
20.0679

>  <SCORE.INTER.VDW>
-22.9853

>  <SCORE.INTER.norm>
-0.424772

>  <SCORE.INTRA>
0.69372

>  <SCORE.INTRA.DIHEDRAL>
1.26163

>  <SCORE.INTRA.DIHEDRAL.0>
7.88077

>  <SCORE.INTRA.POLAR>
0

>  <SCORE.INTRA.POLAR.0>
0

>  <SCORE.INTRA.REPUL>
0

>  <SCORE.INTRA.REPUL.0>
0

>  <SCORE.INTRA.SOLV>
-0.524841

>  <SCORE.INTRA.SOLV.lig_0>
-63.2542

>  <SCORE.INTRA.VDW>
0.325327

>  <SCORE.INTRA.VDW.0>
-3.15072

>  <SCORE.INTRA.norm>
0.0266815

>  <SCORE.RESTR>
4.92296

>  <SCORE.RESTR.CAVITY>
4.92296

>  <SCORE.RESTR.norm>
0.189345

>  <SCORE.SYSTEM>
0

>  <SCORE.SYSTEM.CONST>
0

>  <SCORE.SYSTEM.DIHEDRAL>
0

>  <SCORE.SYSTEM.SOLV>
0

>  <SCORE.SYSTEM.norm>
0

>  <SCORE.heavy>
26

>  <SCORE.norm>
-0.208745

>  <RMSD>
17.646

$$$$
ligand
 OpenBabel11021811473D
libRbt.so/2013.1/901 2013/11/27
 26 27  0  0  0  0  0  0  0  0999 V2000
   -2.8879   -2.4275    7.6476 C   0  0  0  0  0  0  0  0  0  0  0  0
   -6.8500   -5.5081    5.6632 C   0  0  0  0  0  0  0  0  0  0  0  0
   -6.7054   -4.2822    6.3044 C   0  0  0  0  0  0  0  0  0  0  0  0
   -5.3483   -3.6237    6.5640 C   0  0  0  0  0  0  0  0  0  0  0  0
   -3.6603   -3.5473    8.3514 C   0  0  1  0  0  0  0  0  0  0  0  0
  -10.6481   -5.8328    5.6202 C   0  0  0  0  0  0  0  0  0  0  0  0
   -9.2401   -5.2908    5.8713 C   0  0  0  0  0  0  0  0  0  0  0  0
   -7.8588   -3.6164    6.7067 C   0  0  0  0  0  0  0  0  0  0  0  0
   -5.3791   -5.0261    8.5558 C   0  0  0  0  0  0  0  0  0  0  0  0
   -3.2506   -4.0736    9.5706 C   0  0  2  0  0  0  0  0  0  0  0  0
   -2.0574   -3.7247   10.4639 C   0  0  0  0  0  0  0  0  0  0  0  0
   -2.4285   -2.7866   11.6147 C   0  0  0  0  0  0  0  0  0  0  0  0
   -8.1277   -6.0252    5.4397 N   0  0  0  0  0  0  0  0  0  0  0  0
   -4.7789   -4.0718    7.8431 N   0  0  0  0  0  0  0  0  0  0  0  0
   -9.0619   -4.1145    6.4897 N   0  0  0  0  0  0  0  0  0  0  0  0
   -5.8590   -6.1358    5.2896 O   0  0  0  0  0  0  0  0  0  0  0  0
   -1.7439   -4.2242   14.6479 O   0  5  0  0  0  0  0  0  0  0  0  0
    0.1599   -3.5629   16.8801 O   0  0  0  0  0  0  0  0  0  0  0  0
   -1.3906   -2.7160   12.5973 O   0  0  0  0  0  0  0  0  0  0  0  0
   -0.4442   -2.0489   14.9087 O   0  0  0  0  0  0  0  0  0  0  0  0
    0.5743   -1.0150   17.0494 O   0  5  0  0  0  0  0  0  0  0  0  0
   -2.9780   -1.9596   14.4749 O   0  0  0  0  0  0  0  0  0  0  0  0
   -1.8187   -1.9433   17.0614 O   0  0  0  0  0  0  0  0  0  0  0  0
   -4.3879   -5.3348    9.9568 S   0  0  0  0  0  0  0  0  0  0  0  0
   -1.7237   -2.6867   14.1726 P   0  0  2  0  0  0  0  0  0  0  0  0
   -0.3134   -2.0695   16.5106 P   0  0  2  0  0  0  0  0  0  0  0  0
  2 16  2  0  0  0  0
  2  3  1  0  0  0  0
  2 13  1  0  0  0  0
  3  8  2  0  0  0  0
  3  4  1  0  0  0  0
  4 14  1  0  0  0  0
  5  1  1  1  0  0  0
  5 14  1  0  0  0  0
  5 10  1  0  0  0  0
  6  7  1  0  0  0  0
  7 13  1  0  0  0  0
  7 15  2  0  0  0  0
  8 15  1  0  0  0  0
  9 14  1  0  0  0  0
  9 24  1  0  0  0  0
 10 24  1  0  0  0  0
 10 11  1  6  0  0  0
 11 12  1  0  0  0  0
 12 19  1  0  0  0  0
 17 25  1  0  0  0  0
 19 25  1  0  0  0  0
 20 26  1  0  0  0  0
 21 26  1  0  0  0  0
 22 25  2  0  0  0  0
 23 26  2  0  0  0  0
 25 20  1  1  0  0  0
 26 18  1  1  0  0  0
M  CHG  2  17  -1  21  -1
M  END
>  <CHROM.1>
-88.15896939,98.33539141,166.82042166,-173.69146340,-139.62105307,-58.21827884
90.23368146,78.45218723,-3.77091886,-3.65952518,10.86762094,-2.18065217,0.22587377
1.45264315

>  <Name>
ligand

>  <RI>
0

>  <Rbt.Current_Directory>
/home/itssahil/PROJECTS/Mol_Feturizer/New_Systems/rnas/3D2X

>  <Rbt.Executable>
rbdock ($Id: //depot/dev/client3/rdock/2013.1/src/exe/rbdock.cxx#4 $)

>  <Rbt.Library>
libRbt.so (2013.1, Build901 2013/11/27)

>  <Rbt.Parameter_File>
/export/apps/rDock/src/rDock_2013.1_src/data/scripts/dock_solv.prm

>  <Rbt.Receptor>
prm/blind_docking_20.prm

>  <SCORE>
-7.71175

>  <SCORE.INTER>
-12.1774

>  <SCORE.INTER.CONST>
1

>  <SCORE.INTER.POLAR>
0

>  <SCORE.INTER.ROT>
8

>  <SCORE.INTER.SOLV>
19.6437

>  <SCORE.INTER.VDW>
-23.5995

>  <SCORE.INTER.norm>
-0.46836

>  <SCORE.INTRA>
3.00897

>  <SCORE.INTRA.DIHEDRAL>
5.10126

>  <SCORE.INTRA.DIHEDRAL.0>
7.88077

>  <SCORE.INTRA.POLAR>
0

>  <SCORE.INTRA.POLAR.0>
0

>  <SCORE.INTRA.REPUL>
0

>  <SCORE.INTRA.REPUL.0>
0

>  <SCORE.INTRA.SOLV>
0.0655615

>  <SCORE.INTRA.SOLV.lig_0>
-63.2542

>  <SCORE.INTRA.VDW>
0.425556

>  <SCORE.INTRA.VDW.0>
-3.15072

>  <SCORE.INTRA.norm>
0.11573

>  <SCORE.RESTR>
1.45664

>  <SCORE.RESTR.CAVITY>
1.45664

>  <SCORE.RESTR.norm>
0.0560248

>  <SCORE.SYSTEM>
0

>  <SCORE.SYSTEM.CONST>
0

>  <SCORE.SYSTEM.DIHEDRAL>
0

>  <SCORE.SYSTEM.SOLV>
0

>  <SCORE.SYSTEM.norm>
0

>  <SCORE.heavy>
26

>  <SCORE.norm>
-0.296606

>  <RMSD>
17.649

$$$$
ligand
 OpenBabel11021811473D
libRbt.so/2013.1/901 2013/11/27
 26 27  0  0  0  0  0  0  0  0999 V2000
   -2.9069   -0.2482    9.5458 C   0  0  0  0  0  0  0  0  0  0  0  0
   -4.6298   -4.4561    6.9650 C   0  0  0  0  0  0  0  0  0  0  0  0
   -4.6496   -3.0868    7.2086 C   0  0  0  0  0  0  0  0  0  0  0  0
   -3.3862   -2.2572    7.4498 C   0  0  0  0  0  0  0  0  0  0  0  0
   -2.5186   -1.7228    9.6885 C   0  0  1  0  0  0  0  0  0  0  0  0
   -8.3476   -5.1320    6.4614 C   0  0  0  0  0  0  0  0  0  0  0  0
   -7.0277   -4.4107    6.7382 C   0  0  0  0  0  0  0  0  0  0  0  0
   -5.8823   -2.4420    7.2088 C   0  0  0  0  0  0  0  0  0  0  0  0
   -2.3910   -3.8795    8.9705 C   0  0  0  0  0  0  0  0  0  0  0  0
   -1.9147   -2.2196   10.8374 C   0  0  2  0  0  0  0  0  0  0  0  0
   -1.5172   -1.5249   12.1424 C   0  0  0  0  0  0  0  0  0  0  0  0
   -1.5392   -2.4659   13.3492 C   0  0  0  0  0  0  0  0  0  0  0  0
   -5.8273   -5.1334    6.7257 N   0  0  0  0  0  0  0  0  0  0  0  0
   -2.7512   -2.6189    8.7253 N   0  0  0  0  0  0  0  0  0  0  0  0
   -7.0083   -3.0922    6.9808 N   0  0  0  0  0  0  0  0  0  0  0  0
   -3.5635   -5.0714    6.9559 O   0  0  0  0  0  0  0  0  0  0  0  0
   -1.5342   -4.0830   15.6575 O   0  5  0  0  0  0  0  0  0  0  0  0
    2.4155   -2.8719   17.9820 O   0  0  0  0  0  0  0  0  0  0  0  0
   -1.1865   -1.7863   14.5581 O   0  0  0  0  0  0  0  0  0  0  0  0
    0.4177   -2.6260   16.4034 O   0  0  0  0  0  0  0  0  0  0  0  0
    0.0211   -2.7642   18.9553 O   0  5  0  0  0  0  0  0  0  0  0  0
   -1.9828   -1.9205   17.0005 O   0  0  0  0  0  0  0  0  0  0  0  0
    0.7957   -4.8296   17.6428 O   0  0  0  0  0  0  0  0  0  0  0  0
   -1.6182   -3.9086   10.5334 S   0  0  0  0  0  0  0  0  0  0  0  0
   -1.1296   -2.5571   15.9709 P   0  0  2  0  0  0  0  0  0  0  0  0
    0.8548   -3.2333   17.8260 P   0  0  2  0  0  0  0  0  0  0  0  0
  2 16  2  0  0  0  0
  2  3  1  0  0  0  0
  2 13  1  0  0  0  0
  3  8  2  0  0  0  0
  3  4  1  0  0  0  0
  4 14  1  0  0  0  0
  5  1  1  1  0  0  0
  5 14  1  0  0  0  0
  5 10  1  0  0  0  0
  6  7  1  0  0  0  0
  7 13  1  0  0  0  0
  7 15  2  0  0  0  0
  8 15  1  0  0  0  0
  9 14  1  0  0  0  0
  9 24  1  0  0  0  0
 10 24  1  0  0  0  0
 10 11  1  6  0  0  0
 11 12  1  0  0  0  0
 12 19  1  0  0  0  0
 17 25  1  0  0  0  0
 19 25  1  0  0  0  0
 20 26  1  0  0  0  0
 21 26  1  0  0  0  0
 22 25  2  0  0  0  0
 23 26  2  0  0  0  0
 25 20  1  1  0  0  0
 26 18  1  1  0  0  0
M  CHG  2  17  -1  21  -1
M  END
>  <CHROM.1>
-67.82617562,151.29055100,-178.99118406,-122.91213693,-179.74902181,-72.56186196
-0.24187730,-169.74200168,-2.28586497,-3.11046283,12.12587885,-2.27554101
0.74056387,2.01744413

>  <Name>
ligand

>  <RI>
0

>  <Rbt.Current_Directory>
/home/itssahil/PROJECTS/Mol_Feturizer/New_Systems/rnas/3D2X

>  <Rbt.Executable>
rbdock ($Id: //depot/dev/client3/rdock/2013.1/src/exe/rbdock.cxx#4 $)

>  <Rbt.Library>
libRbt.so (2013.1, Build901 2013/11/27)

>  <Rbt.Parameter_File>
/export/apps/rDock/src/rDock_2013.1_src/data/scripts/dock_solv.prm

>  <Rbt.Receptor>
prm/blind_docking_20.prm

>  <SCORE>
-2.30587

>  <SCORE.INTER>
-8.78514

>  <SCORE.INTER.CONST>
1

>  <SCORE.INTER.POLAR>
0

>  <SCORE.INTER.ROT>
8

>  <SCORE.INTER.SOLV>
14.8738

>  <SCORE.INTER.VDW>
-19.748

>  <SCORE.INTER.norm>
-0.33789

>  <SCORE.INTRA>
1.48746

>  <SCORE.INTRA.DIHEDRAL>
-0.236982

>  <SCORE.INTRA.DIHEDRAL.0>
7.88077

>  <SCORE.INTRA.POLAR>
0

>  <SCORE.INTRA.POLAR.0>
0

>  <SCORE.INTRA.REPUL>
0

>  <SCORE.INTRA.REPUL.0>
0

>  <SCORE.INTRA.SOLV>
0.655272

>  <SCORE.INTRA.SOLV.lig_0>
-63.2542

>  <SCORE.INTRA.VDW>
1.27831

>  <SCORE.INTRA.VDW.0>
-3.15072

>  <SCORE.INTRA.norm>
0.05721

>  <SCORE.RESTR>
4.99181

>  <SCORE.RESTR.CAVITY>
4.99181

>  <SCORE.RESTR.norm>
0.191993

>  <SCORE.SYSTEM>
0

>  <SCORE.SYSTEM.CONST>
0

>  <SCORE.SYSTEM.DIHEDRAL>
0

>  <SCORE.SYSTEM.SOLV>
0

>  <SCORE.SYSTEM.norm>
0

>  <SCORE.heavy>
26

>  <SCORE.norm>
-0.0886875

>  <RMSD>
17.716

$$$$
ligand
 OpenBabel11021811473D
libRbt.so/2013.1/901 2013/11/27
 26 27  0  0  0  0  0  0  0  0999 V2000
   -4.7623   -5.7613   10.4614 C   0  0  0  0  0  0  0  0  0  0  0  0
   -7.7627   -5.4611    5.8576 C   0  0  0  0  0  0  0  0  0  0  0  0
   -7.5138   -5.0661    7.1678 C   0  0  0  0  0  0  0  0  0  0  0  0
   -6.4667   -5.7333    8.0628 C   0  0  0  0  0  0  0  0  0  0  0  0
   -4.4580   -4.9141    9.2224 C   0  0  1  0  0  0  0  0  0  0  0  0
  -10.4401   -2.9369    4.8613 C   0  0  0  0  0  0  0  0  0  0  0  0
   -9.4042   -3.7067    5.6819 C   0  0  0  0  0  0  0  0  0  0  0  0
   -8.2418   -3.9949    7.6757 C   0  0  0  0  0  0  0  0  0  0  0  0
   -4.8662   -4.1613    7.1129 C   0  0  0  0  0  0  0  0  0  0  0  0
   -3.3357   -4.0983    9.1430 C   0  0  2  0  0  0  0  0  0  0  0  0
   -2.2066   -3.8451   10.1452 C   0  0  0  0  0  0  0  0  0  0  0  0
   -2.5355   -2.7345   11.1456 C   0  0  0  0  0  0  0  0  0  0  0  0
   -8.7163   -4.7792    5.0989 N   0  0  0  0  0  0  0  0  0  0  0  0
   -5.2436   -4.9215    8.1418 N   0  0  0  0  0  0  0  0  0  0  0  0
   -9.1407   -3.3571    6.9492 N   0  0  0  0  0  0  0  0  0  0  0  0
   -7.1449   -6.4046    5.3638 O   0  0  0  0  0  0  0  0  0  0  0  0
   -2.9783   -1.1343   13.6522 O   0  5  0  0  0  0  0  0  0  0  0  0
    0.0195   -3.2648   16.3755 O   0  0  0  0  0  0  0  0  0  0  0  0
   -1.5010   -2.5760   12.1214 O   0  0  0  0  0  0  0  0  0  0  0  0
   -0.6284   -1.7573   14.4131 O   0  0  0  0  0  0  0  0  0  0  0  0
   -2.3638   -2.2652   16.2622 O   0  5  0  0  0  0  0  0  0  0  0  0
   -0.9263   -0.0936   12.4741 O   0  0  0  0  0  0  0  0  0  0  0  0
   -1.6449   -4.0944   14.6113 O   0  0  0  0  0  0  0  0  0  0  0  0
   -3.4270   -3.3034    7.5961 S   0  0  0  0  0  0  0  0  0  0  0  0
   -1.4705   -1.3113   13.1178 P   0  0  2  0  0  0  0  0  0  0  0  0
   -1.2317   -2.8025   15.4747 P   0  0  2  0  0  0  0  0  0  0  0  0
  2 16  2  0  0  0  0
  2  3  1  0  0  0  0
  2 13  1  0  0  0  0
  3  8  2  0  0  0  0
  3  4  1  0  0  0  0
  4 14  1  0  0  0  0
  5  1  1  6  0  0  0
  5 14  1  0  0  0  0
  5 10  1  0  0  0  0
  6  7  1  0  0  0  0
  7 13  1  0  0  0  0
  7 15  2  0  0  0  0
  8 15  1  0  0  0  0
  9 14  1  0  0  0  0
  9 24  1  0  0  0  0
 10 24  1  0  0  0  0
 10 11  1  1  0  0  0
 11 12  1  0  0  0  0
 12 19  1  0  0  0  0
 17 25  1  0  0  0  0
 19 25  1  0  0  0  0
 20 26  1  0  0  0  0
 21 26  1  0  0  0  0
 22 25  2  0  0  0  0
 23 26  2  0  0  0  0
 25 20  1  1  0  0  0
 26 18  1  1  0  0  0
M  CHG  2  17  -1  21  -1
M  END
>  <CHROM.1>
101.73502718,-86.68803584,176.31654879,149.67874662,168.72051854,40.48511320
44.78356861,165.83983821,-4.10490202,-3.43204975,10.37783225,-2.47281950
-0.68214242,0.63048380

>  <Name>
ligand

>  <RI>
0

>  <Rbt.Current_Directory>
/home/itssahil/PROJECTS/Mol_Feturizer/New_Systems/rnas/3D2X

>  <Rbt.Executable>
rbdock ($Id: //depot/dev/client3/rdock/2013.1/src/exe/rbdock.cxx#4 $)

>  <Rbt.Library>
libRbt.so (2013.1, Build901 2013/11/27)

>  <Rbt.Parameter_File>
/export/apps/rDock/src/rDock_2013.1_src/data/scripts/dock_solv.prm

>  <Rbt.Receptor>
prm/blind_docking_20.prm

>  <SCORE>
-1.25784

>  <SCORE.INTER>
-5.3068

>  <SCORE.INTER.CONST>
1

>  <SCORE.INTER.POLAR>
0

>  <SCORE.INTER.ROT>
8

>  <SCORE.INTER.SOLV>
21.5752

>  <SCORE.INTER.VDW>
-19.6629

>  <SCORE.INTER.norm>
-0.204108

>  <SCORE.INTRA>
-0.449203

>  <SCORE.INTRA.DIHEDRAL>
-1.38204

>  <SCORE.INTRA.DIHEDRAL.0>
7.88077

>  <SCORE.INTRA.POLAR>
0

>  <SCORE.INTRA.POLAR.0>
0

>  <SCORE.INTRA.REPUL>
0

>  <SCORE.INTRA.REPUL.0>
0

>  <SCORE.INTRA.SOLV>
0.535582

>  <SCORE.INTRA.SOLV.lig_0>
-63.2542

>  <SCORE.INTRA.VDW>
-0.0259765

>  <SCORE.INTRA.VDW.0>
-3.15072

>  <SCORE.INTRA.norm>
-0.017277

>  <SCORE.RESTR>
4.49817

>  <SCORE.RESTR.CAVITY>
4.49817

>  <SCORE.RESTR.norm>
0.173006

>  <SCORE.SYSTEM>
0

>  <SCORE.SYSTEM.CONST>
0

>  <SCORE.SYSTEM.DIHEDRAL>
0

>  <SCORE.SYSTEM.SOLV>
0

>  <SCORE.SYSTEM.norm>
0

>  <SCORE.heavy>
26

>  <SCORE.norm>
-0.0483783

>  <RMSD>
17.736

$$$$
ligand
 OpenBabel11021811473D
libRbt.so/2013.1/901 2013/11/27
 26 27  0  0  0  0  0  0  0  0999 V2000
   -3.9789   -5.1266    9.7861 C   0  0  0  0  0  0  0  0  0  0  0  0
   -7.7140   -5.5944    6.0181 C   0  0  0  0  0  0  0  0  0  0  0  0
   -7.7002   -5.1416    7.3332 C   0  0  0  0  0  0  0  0  0  0  0  0
   -6.4890   -5.2822    8.2585 C   0  0  0  0  0  0  0  0  0  0  0  0
   -4.3739   -4.1108    8.7101 C   0  0  1  0  0  0  0  0  0  0  0  0
  -11.2074   -4.5132    4.9413 C   0  0  0  0  0  0  0  0  0  0  0  0
   -9.9588   -4.7502    5.7922 C   0  0  0  0  0  0  0  0  0  0  0  0
   -8.8410   -4.5097    7.8176 C   0  0  0  0  0  0  0  0  0  0  0  0
   -5.7441   -3.2755    7.0953 C   0  0  0  0  0  0  0  0  0  0  0  0
   -3.5572   -3.0384    8.3716 C   0  0  2  0  0  0  0  0  0  0  0  0
   -2.1858   -2.6147    8.9036 C   0  0  0  0  0  0  0  0  0  0  0  0
   -1.6527   -3.5512    9.9904 C   0  0  0  0  0  0  0  0  0  0  0  0
   -8.8513   -5.4003    5.2317 N   0  0  0  0  0  0  0  0  0  0  0  0
   -5.5168   -4.2046    8.0248 N   0  0  0  0  0  0  0  0  0  0  0  0
   -9.9107   -4.3311    7.0649 N   0  0  0  0  0  0  0  0  0  0  0  0
   -6.7288   -6.1610    5.5445 O   0  0  0  0  0  0  0  0  0  0  0  0
   -2.7324   -1.0158   12.0714 O   0  5  0  0  0  0  0  0  0  0  0  0
   -0.6625   -1.5236   14.8335 O   0  0  0  0  0  0  0  0  0  0  0  0
   -2.3814   -3.4129   11.2141 O   0  0  0  0  0  0  0  0  0  0  0  0
   -2.5107   -2.9203   13.7487 O   0  0  0  0  0  0  0  0  0  0  0  0
   -2.5929   -2.4436   16.2892 O   0  5  0  0  0  0  0  0  0  0  0  0
   -0.4510   -2.1878   12.3930 O   0  0  0  0  0  0  0  0  0  0  0  0
   -0.8290   -4.0353   15.3180 O   0  0  0  0  0  0  0  0  0  0  0  0
   -4.4218   -2.1403    7.1554 S   0  0  0  0  0  0  0  0  0  0  0  0
   -1.9196   -2.3755   12.3559 P   0  0  2  0  0  0  0  0  0  0  0  0
   -1.7138   -2.7063   15.1280 P   0  0  2  0  0  0  0  0  0  0  0  0
  2 16  2  0  0  0  0
  2  3  1  0  0  0  0
  2 13  1  0  0  0  0
  3  8  2  0  0  0  0
  3  4  1  0  0  0  0
  4 14  1  0  0  0  0
  5  1  1  6  0  0  0
  5 14  1  0  0  0  0
  5 10  1  0  0  0  0
  6  7  1  0  0  0  0
  7 13  1  0  0  0  0
  7 15  2  0  0  0  0
  8 15  1  0  0  0  0
  9 14  1  0  0  0  0
  9 24  1  0  0  0  0
 10 24  1  0  0  0  0
 10 11  1  1  0  0  0
 11 12  1  0  0  0  0
 12 19  1  0  0  0  0
 17 25  1  0  0  0  0
 19 25  1  0  0  0  0
 20 26  1  0  0  0  0
 21 26  1  0  0  0  0
 22 25  2  0  0  0  0
 23 26  2  0  0  0  0
 25 20  1  1  0  0  0
 26 18  1  6  0  0  0
M  CHG  2  17  -1  21  -1
M  END
>  <CHROM.1>
82.41796084,0.00630410,-71.12998416,-179.92735864,-91.12088724,-101.04618794
93.10520267,18.37233290,-4.39013230,-3.50101979,10.00446296,2.32215478,-0.35362869
-1.53297184

>  <Name>
ligand

>  <RI>
0

>  <Rbt.Current_Directory>
/home/itssahil/PROJECTS/Mol_Feturizer/New_Systems/rnas/3D2X

>  <Rbt.Executable>
rbdock ($Id: //depot/dev/client3/rdock/2013.1/src/exe/rbdock.cxx#4 $)

>  <Rbt.Library>
libRbt.so (2013.1, Build901 2013/11/27)

>  <Rbt.Parameter_File>
/export/apps/rDock/src/rDock_2013.1_src/data/scripts/dock_solv.prm

>  <Rbt.Receptor>
prm/blind_docking_20.prm

>  <SCORE>
0.0984

>  <SCORE.INTER>
-11.0599

>  <SCORE.INTER.CONST>
1

>  <SCORE.INTER.POLAR>
0

>  <SCORE.INTER.ROT>
8

>  <SCORE.INTER.SOLV>
22.7545

>  <SCORE.INTER.VDW>
-23.8915

>  <SCORE.INTER.norm>
-0.425382

>  <SCORE.INTRA>
8.56628

>  <SCORE.INTRA.DIHEDRAL>
5.87817

>  <SCORE.INTRA.DIHEDRAL.0>
7.88077

>  <SCORE.INTRA.POLAR>
0

>  <SCORE.INTRA.POLAR.0>
0

>  <SCORE.INTRA.REPUL>
0

>  <SCORE.INTRA.REPUL.0>
0

>  <SCORE.INTRA.SOLV>
-0.672511

>  <SCORE.INTRA.SOLV.lig_0>
-63.2542

>  <SCORE.INTRA.VDW>
5.96345

>  <SCORE.INTRA.VDW.0>
-3.15072

>  <SCORE.INTRA.norm>
0.329472

>  <SCORE.RESTR>
2.59205

>  <SCORE.RESTR.CAVITY>
2.59205

>  <SCORE.RESTR.norm>
0.0996942

>  <SCORE.SYSTEM>
0

>  <SCORE.SYSTEM.CONST>
0

>  <SCORE.SYSTEM.DIHEDRAL>
0

>  <SCORE.SYSTEM.SOLV>
0

>  <SCORE.SYSTEM.norm>
0

>  <SCORE.heavy>
26

>  <SCORE.norm>
0.00378462

>  <RMSD>
17.786

$$$$
ligand
 OpenBabel11021811473D
libRbt.so/2013.1/901 2013/11/27
 26 27  0  0  0  0  0  0  0  0999 V2000
   -5.2377   -4.6634    6.3000 C   0  0  0  0  0  0  0  0  0  0  0  0
  -10.2744   -3.9083    5.5065 C   0  0  0  0  0  0  0  0  0  0  0  0
   -9.5880   -5.1146    5.5979 C   0  0  0  0  0  0  0  0  0  0  0  0
   -8.0628   -5.2100    5.6845 C   0  0  0  0  0  0  0  0  0  0  0  0
   -6.3219   -4.8001    7.3731 C   0  0  1  0  0  0  0  0  0  0  0  0
  -13.8776   -5.1529    5.4760 C   0  0  0  0  0  0  0  0  0  0  0  0
  -12.3486   -5.1335    5.5076 C   0  0  0  0  0  0  0  0  0  0  0  0
  -10.3338   -6.2885    5.6347 C   0  0  0  0  0  0  0  0  0  0  0  0
   -8.4604   -5.1186    8.0863 C   0  0  0  0  0  0  0  0  0  0  0  0
   -6.0419   -4.6632    8.7274 C   0  0  2  0  0  0  0  0  0  0  0  0
   -4.7289   -4.3630    9.4551 C   0  0  0  0  0  0  0  0  0  0  0  0
   -3.4934   -4.7594    8.6434 C   0  0  0  0  0  0  0  0  0  0  0  0
  -11.6700   -3.9084    5.4609 N   0  0  0  0  0  0  0  0  0  0  0  0
   -7.6001   -5.0430    7.0698 N   0  0  0  0  0  0  0  0  0  0  0  0
  -11.6531   -6.2767    5.5915 N   0  0  0  0  0  0  0  0  0  0  0  0
   -9.6586   -2.8429    5.4695 O   0  0  0  0  0  0  0  0  0  0  0  0
   -1.5056   -1.3966    8.7001 O   0  5  0  0  0  0  0  0  0  0  0  0
   -0.8261   -2.7355   12.4853 O   0  0  0  0  0  0  0  0  0  0  0  0
   -2.7223   -3.6169    8.2590 O   0  0  0  0  0  0  0  0  0  0  0  0
   -2.5987   -2.6273   10.6442 O   0  0  0  0  0  0  0  0  0  0  0  0
   -1.5188   -0.4423   11.5089 O   0  5  0  0  0  0  0  0  0  0  0  0
   -0.4951   -3.6203    9.5462 O   0  0  0  0  0  0  0  0  0  0  0  0
   -3.1454   -1.7666   12.9883 O   0  0  0  0  0  0  0  0  0  0  0  0
   -7.5457   -4.9420    9.5604 S   0  0  0  0  0  0  0  0  0  0  0  0
   -1.7482   -2.8698    9.3012 P   0  0  2  0  0  0  0  0  0  0  0  0
   -1.9843   -1.7982   11.8765 P   0  0  2  0  0  0  0  0  0  0  0  0
  2 16  2  0  0  0  0
  2  3  1  0  0  0  0
  2 13  1  0  0  0  0
  3  8  2  0  0  0  0
  3  4  1  0  0  0  0
  4 14  1  0  0  0  0
  5  1  1  6  0  0  0
  5 14  1  0  0  0  0
  5 10  1  0  0  0  0
  6  7  1  0  0  0  0
  7 13  1  0  0  0  0
  7 15  2  0  0  0  0
  8 15  1  0  0  0  0
  9 14  1  0  0  0  0
  9 24  1  0  0  0  0
 10 24  1  0  0  0  0
 10 11  1  1  0  0  0
 11 12  1  0  0  0  0
 12 19  1  0  0  0  0
 17 25  1  0  0  0  0
 19 25  1  0  0  0  0
 20 26  1  0  0  0  0
 21 26  1  0  0  0  0
 22 25  2  0  0  0  0
 23 26  2  0  0  0  0
 25 20  1  1  0  0  0
 26 18  1  1  0  0  0
M  CHG  2  17  -1  21  -1
M  END
>  <CHROM.1>
84.18097059,-24.12276415,113.91129081,-165.31840016,77.69505060,-63.14977513
-159.71665578,-69.51851782,-5.77539835,-3.78444143,8.46695118,-2.59322745
0.10022391,1.23874281

>  <Name>
ligand

>  <RI>
0

>  <Rbt.Current_Directory>
/home/itssahil/PROJECTS/Mol_Feturizer/New_Systems/rnas/3D2X

>  <Rbt.Executable>
rbdock ($Id: //depot/dev/client3/rdock/2013.1/src/exe/rbdock.cxx#4 $)

>  <Rbt.Library>
libRbt.so (2013.1, Build901 2013/11/27)

>  <Rbt.Parameter_File>
/export/apps/rDock/src/rDock_2013.1_src/data/scripts/dock_solv.prm

>  <Rbt.Receptor>
prm/blind_docking_20.prm

>  <SCORE>
-5.57933

>  <SCORE.INTER>
-12.553

>  <SCORE.INTER.CONST>
1

>  <SCORE.INTER.POLAR>
0

>  <SCORE.INTER.ROT>
8

>  <SCORE.INTER.SOLV>
18.08

>  <SCORE.INTER.VDW>
-23.3287

>  <SCORE.INTER.norm>
-0.482809

>  <SCORE.INTRA>
4.33558

>  <SCORE.INTRA.DIHEDRAL>
4.39468

>  <SCORE.INTRA.DIHEDRAL.0>
7.88077

>  <SCORE.INTRA.POLAR>
0

>  <SCORE.INTRA.POLAR.0>
0

>  <SCORE.INTRA.REPUL>
0

>  <SCORE.INTRA.REPUL.0>
0

>  <SCORE.INTRA.SOLV>
-0.770764

>  <SCORE.INTRA.SOLV.lig_0>
-63.2542

>  <SCORE.INTRA.VDW>
2.52362

>  <SCORE.INTRA.VDW.0>
-3.15072

>  <SCORE.INTRA.norm>
0.166753

>  <SCORE.RESTR>
2.63813

>  <SCORE.RESTR.CAVITY>
2.63813

>  <SCORE.RESTR.norm>
0.101466

>  <SCORE.SYSTEM>
0

>  <SCORE.SYSTEM.CONST>
0

>  <SCORE.SYSTEM.DIHEDRAL>
0

>  <SCORE.SYSTEM.SOLV>
0

>  <SCORE.SYSTEM.norm>
0

>  <SCORE.heavy>
26

>  <SCORE.norm>
-0.21459

>  <RMSD>
18.329

$$$$
ligand
 OpenBabel11021811473D
libRbt.so/2013.1/901 2013/11/27
 26 27  0  0  0  0  0  0  0  0999 V2000
   -5.2058   -4.7743    6.0475 C   0  0  0  0  0  0  0  0  0  0  0  0
  -10.1619   -4.0272    5.4690 C   0  0  0  0  0  0  0  0  0  0  0  0
   -9.5551   -5.2732    5.5870 C   0  0  0  0  0  0  0  0  0  0  0  0
   -8.0383   -5.4672    5.6526 C   0  0  0  0  0  0  0  0  0  0  0  0
   -6.2331   -4.7969    7.1831 C   0  0  1  0  0  0  0  0  0  0  0  0
  -13.8393   -5.0296    5.5337 C   0  0  0  0  0  0  0  0  0  0  0  0
  -12.3121   -5.1110    5.5407 C   0  0  0  0  0  0  0  0  0  0  0  0
  -10.3760   -6.3932    5.6720 C   0  0  0  0  0  0  0  0  0  0  0  0
   -8.3244   -5.0730    8.0396 C   0  0  0  0  0  0  0  0  0  0  0  0
   -5.8937   -4.4774    8.4924 C   0  0  2  0  0  0  0  0  0  0  0  0
   -4.5579   -4.0519    9.1072 C   0  0  0  0  0  0  0  0  0  0  0  0
   -3.4998   -3.7099    8.0557 C   0  0  0  0  0  0  0  0  0  0  0  0
  -11.5550   -3.9358    5.4454 N   0  0  0  0  0  0  0  0  0  0  0  0
   -7.5160   -5.1093    6.9794 N   0  0  0  0  0  0  0  0  0  0  0  0
  -11.6922   -6.2950    5.6491 N   0  0  0  0  0  0  0  0  0  0  0  0
   -9.4777   -3.0067    5.3893 O   0  0  0  0  0  0  0  0  0  0  0  0
   -0.7112   -1.4032    9.5473 O   0  5  0  0  0  0  0  0  0  0  0  0
   -2.4978   -3.0529   13.4378 O   0  0  0  0  0  0  0  0  0  0  0  0
   -2.7117   -2.5804    8.4441 O   0  0  0  0  0  0  0  0  0  0  0  0
   -2.6134   -2.2622   11.0078 O   0  0  0  0  0  0  0  0  0  0  0  0
   -0.4436   -1.9006   12.3679 O   0  5  0  0  0  0  0  0  0  0  0  0
   -1.0498   -3.9474    9.8537 O   0  0  0  0  0  0  0  0  0  0  0  0
   -2.5579   -0.5468   12.9022 O   0  0  0  0  0  0  0  0  0  0  0  0
   -7.3470   -4.6826    9.4300 S   0  0  0  0  0  0  0  0  0  0  0  0
   -1.7289   -2.6383    9.7185 P   0  0  2  0  0  0  0  0  0  0  0  0
   -1.9220   -1.9438   12.4234 P   0  0  2  0  0  0  0  0  0  0  0  0
  2 16  2  0  0  0  0
  2  3  1  0  0  0  0
  2 13  1  0  0  0  0
  3  8  2  0  0  0  0
  3  4  1  0  0  0  0
  4 14  1  0  0  0  0
  5  1  1  6  0  0  0
  5 14  1  0  0  0  0
  5 10  1  0  0  0  0
  6  7  1  0  0  0  0
  7 13  1  0  0  0  0
  7 15  2  0  0  0  0
  8 15  1  0  0  0  0
  9 14  1  0  0  0  0
  9 24  1  0  0  0  0
 10 24  1  0  0  0  0
 10 11  1  1  0  0  0
 11 12  1  0  0  0  0
 12 19  1  0  0  0  0
 17 25  1  0  0  0  0
 19 25  1  0  0  0  0
 20 26  1  0  0  0  0
 21 26  1  0  0  0  0
 22 25  2  0  0  0  0
 23 26  2  0  0  0  0
 25 20  1  1  0  0  0
 26 18  1  1  0  0  0
M  CHG  2  17  -1  21  -1
M  END
>  <CHROM.1>
76.31939226,11.25750123,140.98136636,-159.04377635,65.88339628,-56.18631232
162.45666031,-119.30640660,-5.70990036,-3.71508769,8.60183912,-2.55432738
0.13039071,1.29047012

>  <Name>
ligand

>  <RI>
0

>  <Rbt.Current_Directory>
/home/itssahil/PROJECTS/Mol_Feturizer/New_Systems/rnas/3D2X

>  <Rbt.Executable>
rbdock ($Id: //depot/dev/client3/rdock/2013.1/src/exe/rbdock.cxx#4 $)

>  <Rbt.Library>
libRbt.so (2013.1, Build901 2013/11/27)

>  <Rbt.Parameter_File>
/export/apps/rDock/src/rDock_2013.1_src/data/scripts/dock_solv.prm

>  <Rbt.Receptor>
prm/blind_docking_20.prm

>  <SCORE>
0.497293

>  <SCORE.INTER>
-8.18315

>  <SCORE.INTER.CONST>
1

>  <SCORE.INTER.POLAR>
0

>  <SCORE.INTER.ROT>
8

>  <SCORE.INTER.SOLV>
22.2186

>  <SCORE.INTER.VDW>
-21.795

>  <SCORE.INTER.norm>
-0.314736

>  <SCORE.INTRA>
6.34951

>  <SCORE.INTRA.DIHEDRAL>
4.52592

>  <SCORE.INTRA.DIHEDRAL.0>
7.88077

>  <SCORE.INTRA.POLAR>
0

>  <SCORE.INTRA.POLAR.0>
0

>  <SCORE.INTRA.REPUL>
0

>  <SCORE.INTRA.REPUL.0>
0

>  <SCORE.INTRA.SOLV>
0.35599

>  <SCORE.INTRA.SOLV.lig_0>
-63.2542

>  <SCORE.INTRA.VDW>
3.90856

>  <SCORE.INTRA.VDW.0>
-3.15072

>  <SCORE.INTRA.norm>
0.244212

>  <SCORE.RESTR>
2.33092

>  <SCORE.RESTR.CAVITY>
2.33092

>  <SCORE.RESTR.norm>
0.0896509

>  <SCORE.SYSTEM>
0

>  <SCORE.SYSTEM.CONST>
0

>  <SCORE.SYSTEM.DIHEDRAL>
0

>  <SCORE.SYSTEM.SOLV>
0

>  <SCORE.SYSTEM.norm>
0

>  <SCORE.heavy>
26

>  <SCORE.norm>
0.0191267

>  <RMSD>
18.344

$$$$
ligand
 OpenBabel11021811473D
libRbt.so/2013.1/901 2013/11/27
 26 27  0  0  0  0  0  0  0  0999 V2000
   -5.8402   -4.8760    5.6070 C   0  0  0  0  0  0  0  0  0  0  0  0
  -10.6750   -5.6457    5.6725 C   0  0  0  0  0  0  0  0  0  0  0  0
  -10.1591   -4.3931    5.3569 C   0  0  0  0  0  0  0  0  0  0  0  0
   -8.6602   -4.0854    5.3219 C   0  0  0  0  0  0  0  0  0  0  0  0
   -6.7734   -4.6416    6.7986 C   0  0  1  0  0  0  0  0  0  0  0  0
  -14.4084   -4.9875    5.2712 C   0  0  0  0  0  0  0  0  0  0  0  0
  -12.8939   -4.7788    5.3145 C   0  0  0  0  0  0  0  0  0  0  0  0
  -11.0568   -3.3799    5.0359 C   0  0  0  0  0  0  0  0  0  0  0  0
   -8.7608   -4.0788    7.7560 C   0  0  0  0  0  0  0  0  0  0  0  0
   -6.3420   -4.7787    8.1126 C   0  0  2  0  0  0  0  0  0  0  0  0
   -4.9716   -5.1500    8.6850 C   0  0  0  0  0  0  0  0  0  0  0  0
   -4.1065   -3.9278    9.0010 C   0  0  0  0  0  0  0  0  0  0  0  0
  -12.0562   -5.8498    5.6530 N   0  0  0  0  0  0  0  0  0  0  0  0
   -8.0496   -4.2774    6.6452 N   0  0  0  0  0  0  0  0  0  0  0  0
  -12.3608   -3.5843    5.0202 N   0  0  0  0  0  0  0  0  0  0  0  0
   -9.9208   -6.5740    5.9646 O   0  0  0  0  0  0  0  0  0  0  0  0
   -2.5966   -1.7668   10.1173 O   0  5  0  0  0  0  0  0  0  0  0  0
   -0.5757   -1.1061   12.2517 O   0  0  0  0  0  0  0  0  0  0  0  0
   -2.9291   -4.2858    9.7313 O   0  0  0  0  0  0  0  0  0  0  0  0
   -1.5030   -3.4276   11.7095 O   0  0  0  0  0  0  0  0  0  0  0  0
   -2.9789   -1.7265   12.9809 O   0  5  0  0  0  0  0  0  0  0  0  0
   -0.6254   -3.2256    9.3000 O   0  0  0  0  0  0  0  0  0  0  0  0
   -0.9550   -2.8101   14.1288 O   0  0  0  0  0  0  0  0  0  0  0  0
   -7.7342   -4.4660    9.1112 S   0  0  0  0  0  0  0  0  0  0  0  0
   -1.8340   -3.1837   10.1549 P   0  0  2  0  0  0  0  0  0  0  0  0
   -1.6021   -2.2295   12.7763 P   0  0  2  0  0  0  0  0  0  0  0  0
  2 16  2  0  0  0  0
  2  3  1  0  0  0  0
  2 13  1  0  0  0  0
  3  8  2  0  0  0  0
  3  4  1  0  0  0  0
  4 14  1  0  0  0  0
  5  1  1  1  0  0  0
  5 14  1  0  0  0  0
  5 10  1  0  0  0  0
  6  7  1  0  0  0  0
  7 13  1  0  0  0  0
  7 15  2  0  0  0  0
  8 15  1  0  0  0  0
  9 14  1  0  0  0  0
  9 24  1  0  0  0  0
 10 24  1  0  0  0  0
 10 11  1  6  0  0  0
 11 12  1  0  0  0  0
 12 19  1  0  0  0  0
 17 25  1  0  0  0  0
 19 25  1  0  0  0  0
 20 26  1  0  0  0  0
 21 26  1  0  0  0  0
 22 25  2  0  0  0  0
 23 26  2  0  0  0  0
 25 20  1  1  0  0  0
 26 18  1  6  0  0  0
M  CHG  2  17  -1  21  -1
M  END
>  <CHROM.1>
-62.03417804,93.01985727,170.49321138,150.43499798,178.47421382,-14.89775937
21.05360503,-58.94189128,-5.98780557,-3.84362904,8.65953298,-2.54611763,-0.02159363
1.18494672

>  <Name>
ligand

>  <RI>
0

>  <Rbt.Current_Directory>
/home/itssahil/PROJECTS/Mol_Feturizer/New_Systems/rnas/3D2X

>  <Rbt.Executable>
rbdock ($Id: //depot/dev/client3/rdock/2013.1/src/exe/rbdock.cxx#4 $)

>  <Rbt.Library>
libRbt.so (2013.1, Build901 2013/11/27)

>  <Rbt.Parameter_File>
/export/apps/rDock/src/rDock_2013.1_src/data/scripts/dock_solv.prm

>  <Rbt.Receptor>
prm/blind_docking_20.prm

>  <SCORE>
-8.0578

>  <SCORE.INTER>
-11.5111

>  <SCORE.INTER.CONST>
1

>  <SCORE.INTER.POLAR>
0

>  <SCORE.INTER.ROT>
8

>  <SCORE.INTER.SOLV>
23.2909

>  <SCORE.INTER.VDW>
-24.371

>  <SCORE.INTER.norm>
-0.442734

>  <SCORE.INTRA>
0.740915

>  <SCORE.INTRA.DIHEDRAL>
1.64132

>  <SCORE.INTRA.DIHEDRAL.0>
7.88077

>  <SCORE.INTRA.POLAR>
0

>  <SCORE.INTRA.POLAR.0>
0

>  <SCORE.INTRA.REPUL>
0

>  <SCORE.INTRA.REPUL.0>
0

>  <SCORE.INTRA.SOLV>
-1.05022

>  <SCORE.INTRA.SOLV.lig_0>
-63.2542

>  <SCORE.INTRA.VDW>
0.445364

>  <SCORE.INTRA.VDW.0>
-3.15072

>  <SCORE.INTRA.norm>
0.0284967

>  <SCORE.RESTR>
2.71238

>  <SCORE.RESTR.CAVITY>
2.71238

>  <SCORE.RESTR.norm>
0.104322

>  <SCORE.SYSTEM>
0

>  <SCORE.SYSTEM.CONST>
0

>  <SCORE.SYSTEM.DIHEDRAL>
0

>  <SCORE.SYSTEM.SOLV>
0

>  <SCORE.SYSTEM.norm>
0

>  <SCORE.heavy>
26

>  <SCORE.norm>
-0.309915

>  <RMSD>
18.368

$$$$
ligand
 OpenBabel11021811473D
libRbt.so/2013.1/901 2013/11/27
 26 27  0  0  0  0  0  0  0  0999 V2000
   -5.4018   -4.3006    6.2673 C   0  0  0  0  0  0  0  0  0  0  0  0
  -10.6116   -5.8113    5.6376 C   0  0  0  0  0  0  0  0  0  0  0  0
   -9.7080   -4.7644    5.4887 C   0  0  0  0  0  0  0  0  0  0  0  0
   -8.1908   -4.9429    5.5837 C   0  0  0  0  0  0  0  0  0  0  0  0
   -6.4762   -4.6066    7.3149 C   0  0  1  0  0  0  0  0  0  0  0  0
  -13.9060   -3.9805    5.0646 C   0  0  0  0  0  0  0  0  0  0  0  0
  -12.4119   -4.2639    5.2281 C   0  0  0  0  0  0  0  0  0  0  0  0
  -10.2159   -3.4979    5.2172 C   0  0  0  0  0  0  0  0  0  0  0  0
   -8.5928   -5.1171    7.9801 C   0  0  0  0  0  0  0  0  0  0  0  0
   -6.2044   -4.5913    8.6778 C   0  0  2  0  0  0  0  0  0  0  0  0
   -4.9109   -4.2915    9.4395 C   0  0  0  0  0  0  0  0  0  0  0  0
   -3.6571   -4.7392    8.6845 C   0  0  0  0  0  0  0  0  0  0  0  0
  -11.9803   -5.5675    5.5070 N   0  0  0  0  0  0  0  0  0  0  0  0
   -7.7384   -4.8904    6.9814 N   0  0  0  0  0  0  0  0  0  0  0  0
  -11.5119   -3.2790    5.0953 N   0  0  0  0  0  0  0  0  0  0  0  0
  -10.2107   -6.9499    5.8799 O   0  0  0  0  0  0  0  0  0  0  0  0
   -1.7352   -1.4026    9.0160 O   0  5  0  0  0  0  0  0  0  0  0  0
   -2.2497   -3.1418   13.3601 O   0  0  0  0  0  0  0  0  0  0  0  0
   -2.8227   -3.6299    8.3370 O   0  0  0  0  0  0  0  0  0  0  0  0
   -2.5759   -2.9836   10.8279 O   0  0  0  0  0  0  0  0  0  0  0  0
   -0.5691   -1.7859   11.9356 O   0  5  0  0  0  0  0  0  0  0  0  0
   -0.5034   -3.6334    9.4497 O   0  0  0  0  0  0  0  0  0  0  0  0
   -2.9602   -0.9230   12.2910 O   0  0  0  0  0  0  0  0  0  0  0  0
   -7.6898   -5.0382    9.4697 S   0  0  0  0  0  0  0  0  0  0  0  0
   -1.8225   -2.9613    9.4074 P   0  0  2  0  0  0  0  0  0  0  0  0
   -1.9853   -2.1861   12.0923 P   0  0  2  0  0  0  0  0  0  0  0  0
  2 16  2  0  0  0  0
  2  3  1  0  0  0  0
  2 13  1  0  0  0  0
  3  8  2  0  0  0  0
  3  4  1  0  0  0  0
  4 14  1  0  0  0  0
  5  1  1  1  0  0  0
  5 14  1  0  0  0  0
  5 10  1  0  0  0  0
  6  7  1  0  0  0  0
  7 13  1  0  0  0  0
  7 15  2  0  0  0  0
  8 15  1  0  0  0  0
  9 14  1  0  0  0  0
  9 24  1  0  0  0  0
 10 24  1  0  0  0  0
 10 11  1  6  0  0  0
 11 12  1  0  0  0  0
 12 19  1  0  0  0  0
 17 25  1  0  0  0  0
 19 25  1  0  0  0  0
 20 26  1  0  0  0  0
 21 26  1  0  0  0  0
 22 25  2  0  0  0  0
 23 26  2  0  0  0  0
 25 20  1  1  0  0  0
 26 18  1  1  0  0  0
M  CHG  2  17  -1  21  -1
M  END
>  <CHROM.1>
-84.64481275,-33.22009234,116.32663079,-158.77595220,80.23759900,-57.92499142
-148.38225246,-141.27079349,-5.89324902,-3.84830001,8.47894885,-2.58264072
0.08382646,1.29115038

>  <Name>
ligand

>  <RI>
0

>  <Rbt.Current_Directory>
/home/itssahil/PROJECTS/Mol_Feturizer/New_Systems/rnas/3D2X

>  <Rbt.Executable>
rbdock ($Id: //depot/dev/client3/rdock/2013.1/src/exe/rbdock.cxx#4 $)

>  <Rbt.Library>
libRbt.so (2013.1, Build901 2013/11/27)

>  <Rbt.Parameter_File>
/export/apps/rDock/src/rDock_2013.1_src/data/scripts/dock_solv.prm

>  <Rbt.Receptor>
prm/blind_docking_20.prm

>  <SCORE>
-4.1222

>  <SCORE.INTER>
-12.3012

>  <SCORE.INTER.CONST>
1

>  <SCORE.INTER.POLAR>
0

>  <SCORE.INTER.ROT>
8

>  <SCORE.INTER.SOLV>
21.3691

>  <SCORE.INTER.VDW>
-24.2572

>  <SCORE.INTER.norm>
-0.473122

>  <SCORE.INTRA>
5.63126

>  <SCORE.INTRA.DIHEDRAL>
7.41924

>  <SCORE.INTRA.DIHEDRAL.0>
7.88077

>  <SCORE.INTRA.POLAR>
0

>  <SCORE.INTRA.POLAR.0>
0

>  <SCORE.INTRA.REPUL>
0

>  <SCORE.INTRA.REPUL.0>
0

>  <SCORE.INTRA.SOLV>
0.462784

>  <SCORE.INTRA.SOLV.lig_0>
-63.2542

>  <SCORE.INTRA.VDW>
1.69025

>  <SCORE.INTRA.VDW.0>
-3.15072

>  <SCORE.INTRA.norm>
0.216587

>  <SCORE.RESTR>
2.5477

>  <SCORE.RESTR.CAVITY>
2.5477

>  <SCORE.RESTR.norm>
0.0979886

>  <SCORE.SYSTEM>
0

>  <SCORE.SYSTEM.CONST>
0

>  <SCORE.SYSTEM.DIHEDRAL>
0

>  <SCORE.SYSTEM.SOLV>
0

>  <SCORE.SYSTEM.norm>
0

>  <SCORE.heavy>
26

>  <SCORE.norm>
-0.158546

>  <RMSD>
18.378

$$$$
ligand
 OpenBabel11021811473D
libRbt.so/2013.1/901 2013/11/27
 26 27  0  0  0  0  0  0  0  0999 V2000
   -2.6205   -2.9091    7.6339 C   0  0  0  0  0  0  0  0  0  0  0  0
   -1.3475   -0.8986   12.5799 C   0  0  0  0  0  0  0  0  0  0  0  0
   -1.6472   -2.0607   11.8768 C   0  0  0  0  0  0  0  0  0  0  0  0
   -1.9809   -2.0776   10.3831 C   0  0  0  0  0  0  0  0  0  0  0  0
   -3.4085   -3.3787    8.8603 C   0  0  1  0  0  0  0  0  0  0  0  0
   -0.6457   -2.3346   16.0408 C   0  0  0  0  0  0  0  0  0  0  0  0
   -1.0129   -2.2294   14.5599 C   0  0  0  0  0  0  0  0  0  0  0  0
   -1.6180   -3.2675   12.5684 C   0  0  0  0  0  0  0  0  0  0  0  0
   -3.8388   -3.4842   11.0934 C   0  0  0  0  0  0  0  0  0  0  0  0
   -4.4870   -4.2491    8.7562 C   0  0  2  0  0  0  0  0  0  0  0  0
   -5.1209   -4.9194    7.5346 C   0  0  0  0  0  0  0  0  0  0  0  0
   -5.8744   -3.9342    6.6380 C   0  0  0  0  0  0  0  0  0  0  0  0
   -1.0252   -0.9745   13.9364 N   0  0  0  0  0  0  0  0  0  0  0  0
   -3.0964   -2.9924   10.1005 N   0  0  0  0  0  0  0  0  0  0  0  0
   -1.3114   -3.3276   13.8510 N   0  0  0  0  0  0  0  0  0  0  0  0
   -1.3615    0.1937   12.0120 O   0  0  0  0  0  0  0  0  0  0  0  0
   -9.5490   -3.0961    7.5934 O   0  5  0  0  0  0  0  0  0  0  0  0
  -10.2936   -6.8790    5.8438 O   0  0  0  0  0  0  0  0  0  0  0  0
   -7.0107   -3.3738    7.3032 O   0  0  0  0  0  0  0  0  0  0  0  0
   -8.6622   -4.9198    6.0517 O   0  0  0  0  0  0  0  0  0  0  0  0
  -11.2044   -4.4944    6.2633 O   0  5  0  0  0  0  0  0  0  0  0  0
   -8.3462   -5.1538    8.5937 O   0  0  0  0  0  0  0  0  0  0  0  0
  -10.1696   -5.1070    3.9957 O   0  0  0  0  0  0  0  0  0  0  0  0
   -5.0916   -4.4620   10.3755 S   0  0  0  0  0  0  0  0  0  0  0  0
   -8.3844   -4.1991    7.4621 P   0  0  2  0  0  0  0  0  0  0  0  0
  -10.1560   -5.2952    5.5924 P   0  0  2  0  0  0  0  0  0  0  0  0
  2 16  2  0  0  0  0
  2  3  1  0  0  0  0
  2 13  1  0  0  0  0
  3  8  2  0  0  0  0
  3  4  1  0  0  0  0
  4 14  1  0  0  0  0
  5  1  1  1  0  0  0
  5 14  1  0  0  0  0
  5 10  1  0  0  0  0
  6  7  1  0  0  0  0
  7 13  1  0  0  0  0
  7 15  2  0  0  0  0
  8 15  1  0  0  0  0
  9 14  1  0  0  0  0
  9 24  1  0  0  0  0
 10 24  1  0  0  0  0
 10 11  1  6  0  0  0
 11 12  1  0  0  0  0
 12 19  1  0  0  0  0
 17 25  1  0  0  0  0
 19 25  1  0  0  0  0
 20 26  1  0  0  0  0
 21 26  1  0  0  0  0
 22 25  2  0  0  0  0
 23 26  2  0  0  0  0
 25 20  1  6  0  0  0
 26 18  1  1  0  0  0
M  CHG  2  17  -1  21  -1
M  END
>  <CHROM.1>
-138.39428997,-70.48066754,-65.26362543,-166.88416431,-78.23260156,-41.56338409
-154.11643012,-102.74289577,-5.51756590,-3.64488483,9.17297975,-0.63577517
-0.42087849,-1.46577911

>  <Name>
ligand

>  <RI>
0

>  <Rbt.Current_Directory>
/home/itssahil/PROJECTS/Mol_Feturizer/New_Systems/rnas/3D2X

>  <Rbt.Executable>
rbdock ($Id: //depot/dev/client3/rdock/2013.1/src/exe/rbdock.cxx#4 $)

>  <Rbt.Library>
libRbt.so (2013.1, Build901 2013/11/27)

>  <Rbt.Parameter_File>
/export/apps/rDock/src/rDock_2013.1_src/data/scripts/dock_solv.prm

>  <Rbt.Receptor>
prm/blind_docking_20.prm

>  <SCORE>
-0.46216

>  <SCORE.INTER>
-7.92779

>  <SCORE.INTER.CONST>
1

>  <SCORE.INTER.POLAR>
0

>  <SCORE.INTER.ROT>
8

>  <SCORE.INTER.SOLV>
19.8038

>  <SCORE.INTER.VDW>
-20.8198

>  <SCORE.INTER.norm>
-0.304915

>  <SCORE.INTRA>
2.36157

>  <SCORE.INTRA.DIHEDRAL>
1.40218

>  <SCORE.INTRA.DIHEDRAL.0>
7.88077

>  <SCORE.INTRA.POLAR>
0

>  <SCORE.INTRA.POLAR.0>
0

>  <SCORE.INTRA.REPUL>
0

>  <SCORE.INTRA.REPUL.0>
0

>  <SCORE.INTRA.SOLV>
0.0794502

>  <SCORE.INTRA.SOLV.lig_0>
-63.2542

>  <SCORE.INTRA.VDW>
1.62076

>  <SCORE.INTRA.VDW.0>
-3.15072

>  <SCORE.INTRA.norm>
0.0908297

>  <SCORE.RESTR>
5.10405

>  <SCORE.RESTR.CAVITY>
5.10405

>  <SCORE.RESTR.norm>
0.19631

>  <SCORE.SYSTEM>
0

>  <SCORE.SYSTEM.CONST>
0

>  <SCORE.SYSTEM.DIHEDRAL>
0

>  <SCORE.SYSTEM.SOLV>
0

>  <SCORE.SYSTEM.norm>
0

>  <SCORE.heavy>
26

>  <SCORE.norm>
-0.0177754

>  <RMSD>
18.381

$$$$
ligand
 OpenBabel11021811473D
libRbt.so/2013.1/901 2013/11/27
 26 27  0  0  0  0  0  0  0  0999 V2000
   -6.9183   -5.9954    5.6557 C   0  0  0  0  0  0  0  0  0  0  0  0
  -11.2180   -5.6950    5.6735 C   0  0  0  0  0  0  0  0  0  0  0  0
  -10.6982   -4.5265    5.1267 C   0  0  0  0  0  0  0  0  0  0  0  0
   -9.1981   -4.2650    4.9721 C   0  0  0  0  0  0  0  0  0  0  0  0
   -7.5057   -4.9579    6.6171 C   0  0  1  0  0  0  0  0  0  0  0  0
  -14.9556   -5.0249    5.3353 C   0  0  0  0  0  0  0  0  0  0  0  0
  -13.4376   -4.8482    5.2740 C   0  0  0  0  0  0  0  0  0  0  0  0
  -11.5942   -3.5609    4.6790 C   0  0  0  0  0  0  0  0  0  0  0  0
   -8.9500   -3.2949    7.1929 C   0  0  0  0  0  0  0  0  0  0  0  0
   -6.9877   -4.7545    7.8905 C   0  0  2  0  0  0  0  0  0  0  0  0
   -5.8147   -5.4204    8.6146 C   0  0  0  0  0  0  0  0  0  0  0  0
   -5.6449   -4.9271   10.0534 C   0  0  0  0  0  0  0  0  0  0  0  0
  -12.6016   -5.8663    5.7515 N   0  0  0  0  0  0  0  0  0  0  0  0
   -8.5382   -4.1788    6.2829 N   0  0  0  0  0  0  0  0  0  0  0  0
  -12.9006   -3.7337    4.7572 N   0  0  0  0  0  0  0  0  0  0  0  0
  -10.4654   -6.5783    6.0848 O   0  0  0  0  0  0  0  0  0  0  0  0
   -4.1208   -2.4828    9.3513 O   0  5  0  0  0  0  0  0  0  0  0  0
   -0.0284   -2.5656    9.5126 O   0  0  0  0  0  0  0  0  0  0  0  0
   -4.2653   -4.8168   10.4170 O   0  0  0  0  0  0  0  0  0  0  0  0
   -2.1482   -3.3610   10.7030 O   0  0  0  0  0  0  0  0  0  0  0  0
   -1.9885   -0.9164    9.8740 O   0  5  0  0  0  0  0  0  0  0  0  0
   -2.6878   -4.4238    8.4235 O   0  0  0  0  0  0  0  0  0  0  0  0
   -0.5790   -1.7120   11.8661 O   0  0  0  0  0  0  0  0  0  0  0  0
   -7.9866   -3.5325    8.6269 S   0  0  0  0  0  0  0  0  0  0  0  0
   -3.2685   -3.8165    9.6431 P   0  0  2  0  0  0  0  0  0  0  0  0
   -1.2408   -2.0601   10.4428 P   0  0  2  0  0  0  0  0  0  0  0  0
  2 16  2  0  0  0  0
  2  3  1  0  0  0  0
  2 13  1  0  0  0  0
  3  8  2  0  0  0  0
  3  4  1  0  0  0  0
  4 14  1  0  0  0  0
  5  1  1  6  0  0  0
  5 14  1  0  0  0  0
  5 10  1  0  0  0  0
  6  7  1  0  0  0  0
  7 13  1  0  0  0  0
  7 15  2  0  0  0  0
  8 15  1  0  0  0  0
  9 14  1  0  0  0  0
  9 24  1  0  0  0  0
 10 24  1  0  0  0  0
 10 11  1  1  0  0  0
 11 12  1  0  0  0  0
 12 19  1  0  0  0  0
 17 25  1  0  0  0  0
 19 25  1  0  0  0  0
 20 26  1  0  0  0  0
 21 26  1  0  0  0  0
 22 25  2  0  0  0  0
 23 26  2  0  0  0  0
 25 20  1  1  0  0  0
 26 18  1  6  0  0  0
M  CHG  2  17  -1  21  -1
M  END
>  <CHROM.1>
-64.84776860,-176.99447162,-142.75934268,123.93502770,61.59866386,-50.06215888
39.13951182,-84.32902081,-6.56067071,-3.97053650,7.99604889,-2.86898959,-0.40322007
0.19060440

>  <Name>
ligand

>  <RI>
0

>  <Rbt.Current_Directory>
/home/itssahil/PROJECTS/Mol_Feturizer/New_Systems/rnas/3D2X

>  <Rbt.Executable>
rbdock ($Id: //depot/dev/client3/rdock/2013.1/src/exe/rbdock.cxx#4 $)

>  <Rbt.Library>
libRbt.so (2013.1, Build901 2013/11/27)

>  <Rbt.Parameter_File>
/export/apps/rDock/src/rDock_2013.1_src/data/scripts/dock_solv.prm

>  <Rbt.Receptor>
prm/blind_docking_20.prm

>  <SCORE>
-1.04813

>  <SCORE.INTER>
-6.30338

>  <SCORE.INTER.CONST>
1

>  <SCORE.INTER.POLAR>
0

>  <SCORE.INTER.ROT>
8

>  <SCORE.INTER.SOLV>
20.2008

>  <SCORE.INTER.VDW>
-19.8692

>  <SCORE.INTER.norm>
-0.242438

>  <SCORE.INTRA>
1.9384

>  <SCORE.INTRA.DIHEDRAL>
2.31571

>  <SCORE.INTRA.DIHEDRAL.0>
7.88077

>  <SCORE.INTRA.POLAR>
0

>  <SCORE.INTRA.POLAR.0>
0

>  <SCORE.INTRA.REPUL>
0

>  <SCORE.INTRA.REPUL.0>
0

>  <SCORE.INTRA.SOLV>
0.901578

>  <SCORE.INTRA.SOLV.lig_0>
-63.2542

>  <SCORE.INTRA.VDW>
0.329759

>  <SCORE.INTRA.VDW.0>
-3.15072

>  <SCORE.INTRA.norm>
0.074554

>  <SCORE.RESTR>
3.31685

>  <SCORE.RESTR.CAVITY>
3.31685

>  <SCORE.RESTR.norm>
0.127571

>  <SCORE.SYSTEM>
0

>  <SCORE.SYSTEM.CONST>
0

>  <SCORE.SYSTEM.DIHEDRAL>
0

>  <SCORE.SYSTEM.SOLV>
0

>  <SCORE.SYSTEM.norm>
0

>  <SCORE.heavy>
26

>  <SCORE.norm>
-0.0403125

>  <RMSD>
18.554

$$$$
ligand
 OpenBabel11021811473D
libRbt.so/2013.1/901 2013/11/27
 26 27  0  0  0  0  0  0  0  0999 V2000
   -5.7911   -4.2798    5.0094 C   0  0  0  0  0  0  0  0  0  0  0  0
  -10.1215   -4.0313    5.3696 C   0  0  0  0  0  0  0  0  0  0  0  0
   -9.7170   -5.3536    5.5204 C   0  0  0  0  0  0  0  0  0  0  0  0
   -8.2497   -5.7785    5.6159 C   0  0  0  0  0  0  0  0  0  0  0  0
   -6.4235   -4.3311    6.4034 C   0  0  1  0  0  0  0  0  0  0  0  0
  -13.9105   -4.4511    5.3881 C   0  0  0  0  0  0  0  0  0  0  0  0
  -12.4146   -4.7677    5.4232 C   0  0  0  0  0  0  0  0  0  0  0  0
  -10.7028   -6.3311    5.6110 C   0  0  0  0  0  0  0  0  0  0  0  0
   -8.0156   -4.9675    7.9012 C   0  0  0  0  0  0  0  0  0  0  0  0
   -5.8764   -3.6557    7.4878 C   0  0  2  0  0  0  0  0  0  0  0  0
   -4.6370   -2.7633    7.5924 C   0  0  0  0  0  0  0  0  0  0  0  0
   -3.5382   -3.3695    8.4685 C   0  0  0  0  0  0  0  0  0  0  0  0
  -11.4832   -3.7260    5.3200 N   0  0  0  0  0  0  0  0  0  0  0  0
   -7.5440   -5.0140    6.6544 N   0  0  0  0  0  0  0  0  0  0  0  0
  -11.9874   -6.0309    5.5635 N   0  0  0  0  0  0  0  0  0  0  0  0
   -9.2864   -3.1308    5.2836 O   0  0  0  0  0  0  0  0  0  0  0  0
   -0.6470   -1.3313   10.1668 O   0  5  0  0  0  0  0  0  0  0  0  0
   -2.4278   -3.1557   13.7507 O   0  0  0  0  0  0  0  0  0  0  0  0
   -2.5194   -2.4137    8.7787 O   0  0  0  0  0  0  0  0  0  0  0  0
   -2.0819   -3.1559   11.2161 O   0  0  0  0  0  0  0  0  0  0  0  0
   -0.6800   -1.5657   12.6975 O   0  5  0  0  0  0  0  0  0  0  0  0
   -0.4151   -3.7752    9.3575 O   0  0  0  0  0  0  0  0  0  0  0  0
   -3.1886   -1.1491   12.3487 O   0  0  0  0  0  0  0  0  0  0  0  0
   -6.8894   -4.0361    8.8525 S   0  0  0  0  0  0  0  0  0  0  0  0
   -1.3558   -2.7396    9.8431 P   0  0  2  0  0  0  0  0  0  0  0  0
   -1.9973   -2.2157   12.5171 P   0  0  2  0  0  0  0  0  0  0  0  0
  2 16  2  0  0  0  0
  2  3  1  0  0  0  0
  2 13  1  0  0  0  0
  3  8  2  0  0  0  0
  3  4  1  0  0  0  0
  4 14  1  0  0  0  0
  5  1  1  6  0  0  0
  5 14  1  0  0  0  0
  5 10  1  0  0  0  0
  6  7  1  0  0  0  0
  7 13  1  0  0  0  0
  7 15  2  0  0  0  0
  8 15  1  0  0  0  0
  9 14  1  0  0  0  0
  9 24  1  0  0  0  0
 10 24  1  0  0  0  0
 10 11  1  1  0  0  0
 11 12  1  0  0  0  0
 12 19  1  0  0  0  0
 17 25  1  0  0  0  0
 19 25  1  0  0  0  0
 20 26  1  0  0  0  0
 21 26  1  0  0  0  0
 22 25  2  0  0  0  0
 23 26  2  0  0  0  0
 25 20  1  1  0  0  0
 26 18  1  1  0  0  0
M  CHG  2  17  -1  21  -1
M  END
>  <CHROM.1>
52.36708921,-113.87047085,-167.84150738,-125.50845450,171.71832373,0.24047178
-166.81750417,-162.96117961,-5.67664201,-3.58016913,8.43556755,-2.55119136
0.12226084,1.34615620

>  <Name>
ligand

>  <RI>
0

>  <Rbt.Current_Directory>
/home/itssahil/PROJECTS/Mol_Feturizer/New_Systems/rnas/3D2X

>  <Rbt.Executable>
rbdock ($Id: //depot/dev/client3/rdock/2013.1/src/exe/rbdock.cxx#4 $)

>  <Rbt.Library>
libRbt.so (2013.1, Build901 2013/11/27)

>  <Rbt.Parameter_File>
/export/apps/rDock/src/rDock_2013.1_src/data/scripts/dock_solv.prm

>  <Rbt.Receptor>
prm/blind_docking_20.prm

>  <SCORE>
-1.19251

>  <SCORE.INTER>
-6.04522

>  <SCORE.INTER.CONST>
1

>  <SCORE.INTER.POLAR>
0

>  <SCORE.INTER.ROT>
8

>  <SCORE.INTER.SOLV>
23.1436

>  <SCORE.INTER.VDW>
-20.678

>  <SCORE.INTER.norm>
-0.232508

>  <SCORE.INTRA>
1.11614

>  <SCORE.INTRA.DIHEDRAL>
1.34036

>  <SCORE.INTRA.DIHEDRAL.0>
7.88077

>  <SCORE.INTRA.POLAR>
0

>  <SCORE.INTRA.POLAR.0>
0

>  <SCORE.INTRA.REPUL>
0

>  <SCORE.INTRA.REPUL.0>
0

>  <SCORE.INTRA.SOLV>
0.500841

>  <SCORE.INTRA.SOLV.lig_0>
-63.2542

>  <SCORE.INTRA.VDW>
0.195541

>  <SCORE.INTRA.VDW.0>
-3.15072

>  <SCORE.INTRA.norm>
0.0429285

>  <SCORE.RESTR>
3.73656

>  <SCORE.RESTR.CAVITY>
3.73656

>  <SCORE.RESTR.norm>
0.143714

>  <SCORE.SYSTEM>
0

>  <SCORE.SYSTEM.CONST>
0

>  <SCORE.SYSTEM.DIHEDRAL>
0

>  <SCORE.SYSTEM.SOLV>
0

>  <SCORE.SYSTEM.norm>
0

>  <SCORE.heavy>
26

>  <SCORE.norm>
-0.0458659

>  <RMSD>
18.606

$$$$
ligand
 OpenBabel11021811473D
libRbt.so/2013.1/901 2013/11/27
 26 27  0  0  0  0  0  0  0  0999 V2000
   -6.4662   -3.5020    4.1487 C   0  0  0  0  0  0  0  0  0  0  0  0
  -11.1084   -5.7677    5.4695 C   0  0  0  0  0  0  0  0  0  0  0  0
  -10.7272   -4.5960    4.8241 C   0  0  0  0  0  0  0  0  0  0  0  0
   -9.2872   -4.3014    4.3970 C   0  0  0  0  0  0  0  0  0  0  0  0
   -7.0874   -4.0027    5.4560 C   0  0  1  0  0  0  0  0  0  0  0  0
  -14.8618   -5.1923    5.8072 C   0  0  0  0  0  0  0  0  0  0  0  0
  -13.3852   -4.9805    5.4696 C   0  0  0  0  0  0  0  0  0  0  0  0
  -11.7145   -3.6594    4.5353 C   0  0  0  0  0  0  0  0  0  0  0  0
   -8.8090   -4.7539    6.7425 C   0  0  0  0  0  0  0  0  0  0  0  0
   -6.3525   -4.1048    6.6312 C   0  0  2  0  0  0  0  0  0  0  0  0
   -4.8871   -3.7778    6.9297 C   0  0  0  0  0  0  0  0  0  0  0  0
   -4.4938   -4.0728    8.3790 C   0  0  0  0  0  0  0  0  0  0  0  0
  -12.4501   -5.9706    5.7991 N   0  0  0  0  0  0  0  0  0  0  0  0
   -8.3728   -4.3551    5.5468 N   0  0  0  0  0  0  0  0  0  0  0  0
  -12.9801   -3.8620    4.8511 N   0  0  0  0  0  0  0  0  0  0  0  0
  -10.2708   -6.6261    5.7475 O   0  0  0  0  0  0  0  0  0  0  0  0
   -1.7321   -4.3054   10.4531 O   0  5  0  0  0  0  0  0  0  0  0  0
   -0.7389   -2.6010   12.5284 O   0  0  0  0  0  0  0  0  0  0  0  0
   -3.4043   -3.2516    8.8107 O   0  0  0  0  0  0  0  0  0  0  0  0
   -2.2146   -1.8082   10.5952 O   0  0  0  0  0  0  0  0  0  0  0  0
   -1.0192   -0.0672   12.0881 O   0  5  0  0  0  0  0  0  0  0  0  0
   -4.0351   -3.4860   11.2935 O   0  0  0  0  0  0  0  0  0  0  0  0
   -2.9775   -1.4480   13.0083 O   0  0  0  0  0  0  0  0  0  0  0  0
   -7.4420   -4.7532    7.8252 S   0  0  0  0  0  0  0  0  0  0  0  0
   -2.9246   -3.2296   10.3478 P   0  0  2  0  0  0  0  0  0  0  0  0
   -1.6851   -1.3885   12.0536 P   0  0  2  0  0  0  0  0  0  0  0  0
  2 16  2  0  0  0  0
  2  3  1  0  0  0  0
  2 13  1  0  0  0  0
  3  8  2  0  0  0  0
  3  4  1  0  0  0  0
  4 14  1  0  0  0  0
  5  1  1  1  0  0  0
  5 14  1  0  0  0  0
  5 10  1  0  0  0  0
  6  7  1  0  0  0  0
  7 13  1  0  0  0  0
  7 15  2  0  0  0  0
  8 15  1  0  0  0  0
  9 14  1  0  0  0  0
  9 24  1  0  0  0  0
 10 24  1  0  0  0  0
 10 11  1  6  0  0  0
 11 12  1  0  0  0  0
 12 19  1  0  0  0  0
 17 25  1  0  0  0  0
 19 25  1  0  0  0  0
 20 26  1  0  0  0  0
 21 26  1  0  0  0  0
 22 25  2  0  0  0  0
 23 26  2  0  0  0  0
 25 20  1  1  0  0  0
 26 18  1  1  0  0  0
M  CHG  2  17  -1  21  -1
M  END
>  <CHROM.1>
-57.31239812,-178.95502906,-153.54928066,-173.11666158,171.98500331,-71.72654506
93.99053644,52.97647261,-6.40234112,-3.70144759,8.13804267,-2.53312998,0.12498033
1.32521183

>  <Name>
ligand

>  <RI>
0

>  <Rbt.Current_Directory>
/home/itssahil/PROJECTS/Mol_Feturizer/New_Systems/rnas/3D2X

>  <Rbt.Executable>
rbdock ($Id: //depot/dev/client3/rdock/2013.1/src/exe/rbdock.cxx#4 $)

>  <Rbt.Library>
libRbt.so (2013.1, Build901 2013/11/27)

>  <Rbt.Parameter_File>
/export/apps/rDock/src/rDock_2013.1_src/data/scripts/dock_solv.prm

>  <Rbt.Receptor>
prm/blind_docking_20.prm

>  <SCORE>
1.88741

>  <SCORE.INTER>
-5.52452

>  <SCORE.INTER.CONST>
1

>  <SCORE.INTER.POLAR>
0

>  <SCORE.INTER.ROT>
8

>  <SCORE.INTER.SOLV>
19.5556

>  <SCORE.INTER.VDW>
-19.1349

>  <SCORE.INTER.norm>
-0.212481

>  <SCORE.INTRA>
2.38424

>  <SCORE.INTRA.DIHEDRAL>
0.559341

>  <SCORE.INTRA.DIHEDRAL.0>
7.88077

>  <SCORE.INTRA.POLAR>
0

>  <SCORE.INTRA.POLAR.0>
0

>  <SCORE.INTRA.REPUL>
0

>  <SCORE.INTRA.REPUL.0>
0

>  <SCORE.INTRA.SOLV>
-0.649468

>  <SCORE.INTRA.SOLV.lig_0>
-63.2542

>  <SCORE.INTRA.VDW>
2.42931

>  <SCORE.INTRA.VDW.0>
-3.15072

>  <SCORE.INTRA.norm>
0.0917016

>  <SCORE.RESTR>
5.02769

>  <SCORE.RESTR.CAVITY>
5.02769

>  <SCORE.RESTR.norm>
0.193373

>  <SCORE.SYSTEM>
0

>  <SCORE.SYSTEM.CONST>
0

>  <SCORE.SYSTEM.DIHEDRAL>
0

>  <SCORE.SYSTEM.SOLV>
0

>  <SCORE.SYSTEM.norm>
0

>  <SCORE.heavy>
26

>  <SCORE.norm>
0.0725928

>  <RMSD>
18.808

$$$$
ligand
 OpenBabel11021811473D
libRbt.so/2013.1/901 2013/11/27
 26 27  0  0  0  0  0  0  0  0999 V2000
   -2.7304   -1.6143    7.6528 C   0  0  0  0  0  0  0  0  0  0  0  0
   -1.1815   -0.8509   12.1542 C   0  0  0  0  0  0  0  0  0  0  0  0
   -1.2702   -2.0987   11.5461 C   0  0  0  0  0  0  0  0  0  0  0  0
   -1.1483   -2.3084   10.0348 C   0  0  0  0  0  0  0  0  0  0  0  0
   -2.9442   -2.8977    8.4608 C   0  0  1  0  0  0  0  0  0  0  0  0
   -1.5443   -1.8306   15.8204 C   0  0  0  0  0  0  0  0  0  0  0  0
   -1.4572   -1.9185   14.2960 C   0  0  0  0  0  0  0  0  0  0  0  0
   -1.4564   -3.2102   12.3618 C   0  0  0  0  0  0  0  0  0  0  0  0
   -2.4699   -4.3518   10.1471 C   0  0  0  0  0  0  0  0  0  0  0  0
   -3.9062   -3.8381    8.1122 C   0  0  2  0  0  0  0  0  0  0  0  0
   -4.9067   -3.8680    6.9539 C   0  0  0  0  0  0  0  0  0  0  0  0
   -6.3621   -3.9198    7.4245 C   0  0  0  0  0  0  0  0  0  0  0  0
   -1.2745   -0.7505   13.5438 N   0  0  0  0  0  0  0  0  0  0  0  0
   -2.2097   -3.1950    9.5364 N   0  0  0  0  0  0  0  0  0  0  0  0
   -1.5424   -3.1036   13.6748 N   0  0  0  0  0  0  0  0  0  0  0  0
   -1.0181    0.1626   11.4746 O   0  0  0  0  0  0  0  0  0  0  0  0
   -9.3394   -2.7691    6.9008 O   0  5  0  0  0  0  0  0  0  0  0  0
  -11.8790   -4.6213    6.1146 O   0  0  0  0  0  0  0  0  0  0  0  0
   -7.2613   -4.1734    6.3406 O   0  0  0  0  0  0  0  0  0  0  0  0
   -9.5120   -4.6065    5.1448 O   0  0  0  0  0  0  0  0  0  0  0  0
  -11.4906   -5.3903    3.6753 O   0  5  0  0  0  0  0  0  0  0  0  0
   -9.2177   -5.2495    7.6180 O   0  0  0  0  0  0  0  0  0  0  0  0
  -10.6717   -6.8312    5.6352 O   0  0  0  0  0  0  0  0  0  0  0  0
   -3.8203   -5.0863    9.3238 S   0  0  0  0  0  0  0  0  0  0  0  0
   -8.8522   -4.2673    6.5715 P   0  0  2  0  0  0  0  0  0  0  0  0
  -10.9292   -5.3582    5.0443 P   0  0  2  0  0  0  0  0  0  0  0  0
  2 16  2  0  0  0  0
  2  3  1  0  0  0  0
  2 13  1  0  0  0  0
  3  8  2  0  0  0  0
  3  4  1  0  0  0  0
  4 14  1  0  0  0  0
  5  1  1  6  0  0  0
  5 14  1  0  0  0  0
  5 10  1  0  0  0  0
  6  7  1  0  0  0  0
  7 13  1  0  0  0  0
  7 15  2  0  0  0  0
  8 15  1  0  0  0  0
  9 14  1  0  0  0  0
  9 24  1  0  0  0  0
 10 24  1  0  0  0  0
 10 11  1  1  0  0  0
 11 12  1  0  0  0  0
 12 19  1  0  0  0  0
 17 25  1  0  0  0  0
 19 25  1  0  0  0  0
 20 26  1  0  0  0  0
 21 26  1  0  0  0  0
 22 25  2  0  0  0  0
 23 26  2  0  0  0  0
 25 20  1  6  0  0  0
 26 18  1  1  0  0  0
M  CHG  2  17  -1  21  -1
M  END
>  <CHROM.1>
-133.59849176,-120.09580922,-170.17491743,132.07141572,-179.65435868,-93.48398103
70.55849795,45.31781739,-5.58388170,-3.61497804,8.66409862,-0.64770690,-0.28667465
-1.63044347

>  <Name>
ligand

>  <RI>
0

>  <Rbt.Current_Directory>
/home/itssahil/PROJECTS/Mol_Feturizer/New_Systems/rnas/3D2X

>  <Rbt.Executable>
rbdock ($Id: //depot/dev/client3/rdock/2013.1/src/exe/rbdock.cxx#4 $)

>  <Rbt.Library>
libRbt.so (2013.1, Build901 2013/11/27)

>  <Rbt.Parameter_File>
/export/apps/rDock/src/rDock_2013.1_src/data/scripts/dock_solv.prm

>  <Rbt.Receptor>
prm/blind_docking_20.prm

>  <SCORE>
-7.86044

>  <SCORE.INTER>
-12.9247

>  <SCORE.INTER.CONST>
1

>  <SCORE.INTER.POLAR>
0

>  <SCORE.INTER.ROT>
8

>  <SCORE.INTER.SOLV>
22.2231

>  <SCORE.INTER.VDW>
-24.9575

>  <SCORE.INTER.norm>
-0.497106

>  <SCORE.INTRA>
-0.0263206

>  <SCORE.INTRA.DIHEDRAL>
-0.965348

>  <SCORE.INTRA.DIHEDRAL.0>
7.88077

>  <SCORE.INTRA.POLAR>
0

>  <SCORE.INTRA.POLAR.0>
0

>  <SCORE.INTRA.REPUL>
0

>  <SCORE.INTRA.REPUL.0>
0

>  <SCORE.INTRA.SOLV>
-1.24547

>  <SCORE.INTRA.SOLV.lig_0>
-63.2542

>  <SCORE.INTRA.VDW>
1.07909

>  <SCORE.INTRA.VDW.0>
-3.15072

>  <SCORE.INTRA.norm>
-0.00101233

>  <SCORE.RESTR>
5.09063

>  <SCORE.RESTR.CAVITY>
5.09063

>  <SCORE.RESTR.norm>
0.195793

>  <SCORE.SYSTEM>
0

>  <SCORE.SYSTEM.CONST>
0

>  <SCORE.SYSTEM.DIHEDRAL>
0

>  <SCORE.SYSTEM.SOLV>
0

>  <SCORE.SYSTEM.norm>
0

>  <SCORE.heavy>
26

>  <SCORE.norm>
-0.302325

>  <RMSD>
18.849

$$$$
ligand
 OpenBabel11021811473D
libRbt.so/2013.1/901 2013/11/27
 26 27  0  0  0  0  0  0  0  0999 V2000
   -6.7396   -5.9888    5.6984 C   0  0  0  0  0  0  0  0  0  0  0  0
  -11.5306   -3.6470    4.4991 C   0  0  0  0  0  0  0  0  0  0  0  0
  -10.6438   -4.5863    5.0147 C   0  0  0  0  0  0  0  0  0  0  0  0
   -9.1226   -4.4509    4.9138 C   0  0  0  0  0  0  0  0  0  0  0  0
   -7.4378   -4.9877    6.6237 C   0  0  1  0  0  0  0  0  0  0  0  0
  -14.8611   -5.1811    5.5418 C   0  0  0  0  0  0  0  0  0  0  0  0
  -13.3597   -4.9695    5.3409 C   0  0  0  0  0  0  0  0  0  0  0  0
  -11.1738   -5.6908    5.6740 C   0  0  0  0  0  0  0  0  0  0  0  0
   -9.0252   -3.4349    7.1259 C   0  0  0  0  0  0  0  0  0  0  0  0
   -6.9802   -4.7276    7.9099 C   0  0  2  0  0  0  0  0  0  0  0  0
   -5.7841   -5.2902    8.6821 C   0  0  0  0  0  0  0  0  0  0  0  0
   -4.4780   -4.5524    8.3784 C   0  0  0  0  0  0  0  0  0  0  0  0
  -12.9053   -3.8323    4.6599 N   0  0  0  0  0  0  0  0  0  0  0  0
   -8.5158   -4.2960    6.2438 N   0  0  0  0  0  0  0  0  0  0  0  0
  -12.4753   -5.8557    5.8206 N   0  0  0  0  0  0  0  0  0  0  0  0
  -11.1098   -2.6533    3.9063 O   0  0  0  0  0  0  0  0  0  0  0  0
   -2.6027   -2.0514    8.1932 O   0  5  0  0  0  0  0  0  0  0  0  0
   -0.1237   -1.7206   10.2873 O   0  0  0  0  0  0  0  0  0  0  0  0
   -4.0653   -3.7312    9.4752 O   0  0  0  0  0  0  0  0  0  0  0  0
   -2.6263   -1.9954   10.7399 O   0  0  0  0  0  0  0  0  0  0  0  0
   -1.3006   -0.1454   11.9683 O   0  5  0  0  0  0  0  0  0  0  0  0
   -1.5046   -3.9703    9.5324 O   0  0  0  0  0  0  0  0  0  0  0  0
   -0.9307   -2.6181   12.5487 O   0  0  0  0  0  0  0  0  0  0  0  0
   -8.0950   -3.5776    8.5939 S   0  0  0  0  0  0  0  0  0  0  0  0
   -2.6276   -3.0058    9.4890 P   0  0  2  0  0  0  0  0  0  0  0  0
   -1.2498   -1.5190   11.4195 P   0  0  2  0  0  0  0  0  0  0  0  0
  2 16  2  0  0  0  0
  2  3  1  0  0  0  0
  2 13  1  0  0  0  0
  3  8  2  0  0  0  0
  3  4  1  0  0  0  0
  4 14  1  0  0  0  0
  5  1  1  6  0  0  0
  5 14  1  0  0  0  0
  5 10  1  0  0  0  0
  6  7  1  0  0  0  0
  7 13  1  0  0  0  0
  7 15  2  0  0  0  0
  8 15  1  0  0  0  0
  9 14  1  0  0  0  0
  9 24  1  0  0  0  0
 10 24  1  0  0  0  0
 10 11  1  1  0  0  0
 11 12  1  0  0  0  0
 12 19  1  0  0  0  0
 17 25  1  0  0  0  0
 19 25  1  0  0  0  0
 20 26  1  0  0  0  0
 21 26  1  0  0  0  0
 22 25  2  0  0  0  0
 23 26  2  0  0  0  0
 25 20  1  1  0  0  0
 26 18  1  6  0  0  0
M  CHG  2  17  -1  21  -1
M  END
>  <CHROM.1>
115.01139559,84.41475261,107.46807678,133.73587090,171.71823277,-91.41731597
59.54845932,22.74995220,-6.38155241,-3.58401087,8.01360101,-2.68541493,-0.27860238
0.63889576

>  <Name>
ligand

>  <RI>
0

>  <Rbt.Current_Directory>
/home/itssahil/PROJECTS/Mol_Feturizer/New_Systems/rnas/3D2X

>  <Rbt.Executable>
rbdock ($Id: //depot/dev/client3/rdock/2013.1/src/exe/rbdock.cxx#4 $)

>  <Rbt.Library>
libRbt.so (2013.1, Build901 2013/11/27)

>  <Rbt.Parameter_File>
/export/apps/rDock/src/rDock_2013.1_src/data/scripts/dock_solv.prm

>  <Rbt.Receptor>
prm/blind_docking_20.prm

>  <SCORE>
-0.511119

>  <SCORE.INTER>
-7.15508

>  <SCORE.INTER.CONST>
1

>  <SCORE.INTER.POLAR>
0

>  <SCORE.INTER.ROT>
8

>  <SCORE.INTER.SOLV>
21.2857

>  <SCORE.INTER.VDW>
-20.7986

>  <SCORE.INTER.norm>
-0.275195

>  <SCORE.INTRA>
1.56888

>  <SCORE.INTRA.DIHEDRAL>
4.67805

>  <SCORE.INTRA.DIHEDRAL.0>
7.88077

>  <SCORE.INTRA.POLAR>
0

>  <SCORE.INTRA.POLAR.0>
0

>  <SCORE.INTRA.REPUL>
0

>  <SCORE.INTRA.REPUL.0>
0

>  <SCORE.INTRA.SOLV>
-1.58991

>  <SCORE.INTRA.SOLV.lig_0>
-63.2542

>  <SCORE.INTRA.VDW>
0.024814

>  <SCORE.INTRA.VDW.0>
-3.15072

>  <SCORE.INTRA.norm>
0.0603417

>  <SCORE.RESTR>
5.07507

>  <SCORE.RESTR.CAVITY>
5.07507

>  <SCORE.RESTR.norm>
0.195195

>  <SCORE.SYSTEM>
0

>  <SCORE.SYSTEM.CONST>
0

>  <SCORE.SYSTEM.DIHEDRAL>
0

>  <SCORE.SYSTEM.SOLV>
0

>  <SCORE.SYSTEM.norm>
0

>  <SCORE.heavy>
26

>  <SCORE.norm>
-0.0196584

>  <RMSD>
18.851

$$$$
ligand
 OpenBabel11021811473D
libRbt.so/2013.1/901 2013/11/27
 26 27  0  0  0  0  0  0  0  0999 V2000
   -9.0803   -2.0532    5.3807 C   0  0  0  0  0  0  0  0  0  0  0  0
  -12.4363   -4.7796    5.7272 C   0  0  0  0  0  0  0  0  0  0  0  0
  -12.3203   -4.1782    4.4784 C   0  0  0  0  0  0  0  0  0  0  0  0
  -10.9847   -3.7244    3.8843 C   0  0  0  0  0  0  0  0  0  0  0  0
   -8.9733   -3.5785    5.2925 C   0  0  1  0  0  0  0  0  0  0  0  0
  -16.1886   -5.4436    5.8392 C   0  0  0  0  0  0  0  0  0  0  0  0
  -14.8090   -4.9846    5.3646 C   0  0  0  0  0  0  0  0  0  0  0  0
  -13.4787   -4.0046    3.7277 C   0  0  0  0  0  0  0  0  0  0  0  0
   -9.6729   -5.6393    4.6242 C   0  0  0  0  0  0  0  0  0  0  0  0
   -7.9614   -4.2859    5.9305 C   0  0  2  0  0  0  0  0  0  0  0  0
   -6.8030   -3.8071    6.8094 C   0  0  0  0  0  0  0  0  0  0  0  0
   -5.9859   -4.9594    7.3984 C   0  0  0  0  0  0  0  0  0  0  0  0
  -13.6905   -5.1908    6.1830 N   0  0  0  0  0  0  0  0  0  0  0  0
   -9.8532   -4.3178    4.6115 N   0  0  0  0  0  0  0  0  0  0  0  0
  -14.6593   -4.3977    4.1684 N   0  0  0  0  0  0  0  0  0  0  0  0
  -11.4401   -4.9538    6.4292 O   0  0  0  0  0  0  0  0  0  0  0  0
   -3.8695   -5.4944    9.9346 O   0  5  0  0  0  0  0  0  0  0  0  0
   -0.6462   -2.1120    9.6839 O   0  0  0  0  0  0  0  0  0  0  0  0
   -4.6340   -4.5709    7.6614 O   0  0  0  0  0  0  0  0  0  0  0  0
   -2.7132   -3.4394    8.9705 O   0  0  0  0  0  0  0  0  0  0  0  0
   -2.9938   -1.0523    9.9253 O   0  5  0  0  0  0  0  0  0  0  0  0
   -5.1377   -3.2455    9.8078 O   0  0  0  0  0  0  0  0  0  0  0  0
   -2.2831   -2.9909   11.4501 O   0  0  0  0  0  0  0  0  0  0  0  0
   -8.2099   -5.9594    5.5174 S   0  0  0  0  0  0  0  0  0  0  0  0
   -4.1572   -4.1278    9.1344 P   0  0  2  0  0  0  0  0  0  0  0  0
   -2.2130   -2.3076    9.9963 P   0  0  2  0  0  0  0  0  0  0  0  0
  2 16  2  0  0  0  0
  2  3  1  0  0  0  0
  2 13  1  0  0  0  0
  3  8  2  0  0  0  0
  3  4  1  0  0  0  0
  4 14  1  0  0  0  0
  5  1  1  1  0  0  0
  5 14  1  0  0  0  0
  5 10  1  0  0  0  0
  6  7  1  0  0  0  0
  7 13  1  0  0  0  0
  7 15  2  0  0  0  0
  8 15  1  0  0  0  0
  9 14  1  0  0  0  0
  9 24  1  0  0  0  0
 10 24  1  0  0  0  0
 10 11  1  6  0  0  0
 11 12  1  0  0  0  0
 12 19  1  0  0  0  0
 17 25  1  0  0  0  0
 19 25  1  0  0  0  0
 20 26  1  0  0  0  0
 21 26  1  0  0  0  0
 22 25  2  0  0  0  0
 23 26  2  0  0  0  0
 25 20  1  6  0  0  0
 26 18  1  6  0  0  0
M  CHG  2  17  -1  21  -1
M  END
>  <CHROM.1>
15.21074006,175.35311366,152.81705268,-116.22890682,97.92932498,-96.51799119
82.04297756,168.44540563,-7.62674375,-4.03705493,7.15140951,-2.68382267,0.03193351
1.29615182

>  <Name>
ligand

>  <RI>
0

>  <Rbt.Current_Directory>
/home/itssahil/PROJECTS/Mol_Feturizer/New_Systems/rnas/3D2X

>  <Rbt.Executable>
rbdock ($Id: //depot/dev/client3/rdock/2013.1/src/exe/rbdock.cxx#4 $)

>  <Rbt.Library>
libRbt.so (2013.1, Build901 2013/11/27)

>  <Rbt.Parameter_File>
/export/apps/rDock/src/rDock_2013.1_src/data/scripts/dock_solv.prm

>  <Rbt.Receptor>
prm/blind_docking_20.prm

>  <SCORE>
12.8715

>  <SCORE.INTER>
1.55815

>  <SCORE.INTER.CONST>
1

>  <SCORE.INTER.POLAR>
0

>  <SCORE.INTER.ROT>
8

>  <SCORE.INTER.SOLV>
12.5104

>  <SCORE.INTER.VDW>
-12.0647

>  <SCORE.INTER.norm>
0.0599289

>  <SCORE.INTRA>
5.10473

>  <SCORE.INTRA.DIHEDRAL>
6.05907

>  <SCORE.INTRA.DIHEDRAL.0>
7.88077

>  <SCORE.INTRA.POLAR>
0

>  <SCORE.INTRA.POLAR.0>
0

>  <SCORE.INTRA.REPUL>
0

>  <SCORE.INTRA.REPUL.0>
0

>  <SCORE.INTRA.SOLV>
1.45605

>  <SCORE.INTRA.SOLV.lig_0>
-63.2542

>  <SCORE.INTRA.VDW>
1.34717

>  <SCORE.INTRA.VDW.0>
-3.15072

>  <SCORE.INTRA.norm>
0.196336

>  <SCORE.RESTR>
6.20862

>  <SCORE.RESTR.CAVITY>
6.20862

>  <SCORE.RESTR.norm>
0.238793

>  <SCORE.SYSTEM>
0

>  <SCORE.SYSTEM.CONST>
0

>  <SCORE.SYSTEM.DIHEDRAL>
0

>  <SCORE.SYSTEM.SOLV>
0

>  <SCORE.SYSTEM.norm>
0

>  <SCORE.heavy>
26

>  <SCORE.norm>
0.495058

>  <RMSD>
19.244

$$$$
ligand
 OpenBabel11021811473D
libRbt.so/2013.1/901 2013/11/27
 26 27  0  0  0  0  0  0  0  0999 V2000
   -5.4307   -4.7046    5.6923 C   0  0  0  0  0  0  0  0  0  0  0  0
   -2.7152   -2.2475    8.6568 C   0  0  0  0  0  0  0  0  0  0  0  0
   -2.8006   -3.6218    8.8533 C   0  0  0  0  0  0  0  0  0  0  0  0
   -3.4114   -4.5815    7.8292 C   0  0  0  0  0  0  0  0  0  0  0  0
   -5.7613   -4.8982    7.1752 C   0  0  1  0  0  0  0  0  0  0  0  0
   -0.9376   -1.1908   11.8593 C   0  0  0  0  0  0  0  0  0  0  0  0
   -1.6127   -2.0505   10.7896 C   0  0  0  0  0  0  0  0  0  0  0  0
   -2.2816   -4.1456   10.0330 C   0  0  0  0  0  0  0  0  0  0  0  0
   -5.2280   -5.0507    9.3832 C   0  0  0  0  0  0  0  0  0  0  0  0
   -7.0534   -5.1586    7.6158 C   0  0  2  0  0  0  0  0  0  0  0  0
   -8.3643   -5.3181    6.8415 C   0  0  0  0  0  0  0  0  0  0  0  0
   -8.8205   -4.0216    6.1682 C   0  0  0  0  0  0  0  0  0  0  0  0
   -2.1159   -1.4455    9.6302 N   0  0  0  0  0  0  0  0  0  0  0  0
   -4.8267   -4.8436    8.1282 N   0  0  0  0  0  0  0  0  0  0  0  0
   -1.7166   -3.3780   10.9463 N   0  0  0  0  0  0  0  0  0  0  0  0
   -3.1615   -1.7366    7.6293 O   0  0  0  0  0  0  0  0  0  0  0  0
  -10.7893   -6.2459    5.8217 O   0  5  0  0  0  0  0  0  0  0  0  0
  -13.8934   -5.6311    5.8532 O   0  0  0  0  0  0  0  0  0  0  0  0
   -9.4306   -4.2699    4.8978 O   0  0  0  0  0  0  0  0  0  0  0  0
  -11.9584   -4.0258    5.3817 O   0  0  0  0  0  0  0  0  0  0  0  0
  -14.3763   -3.1151    5.4943 O   0  5  0  0  0  0  0  0  0  0  0  0
  -11.1543   -5.4436    3.3918 O   0  0  0  0  0  0  0  0  0  0  0  0
  -13.6274   -4.5852    3.5280 O   0  0  0  0  0  0  0  0  0  0  0  0
   -6.9594   -5.2552    9.3521 S   0  0  0  0  0  0  0  0  0  0  0  0
  -10.8495   -5.0219    4.7784 P   0  0  2  0  0  0  0  0  0  0  0  0
  -13.5235   -4.2582    5.0989 P   0  0  2  0  0  0  0  0  0  0  0  0
  2 16  2  0  0  0  0
  2  3  1  0  0  0  0
  2 13  1  0  0  0  0
  3  8  2  0  0  0  0
  3  4  1  0  0  0  0
  4 14  1  0  0  0  0
  5  1  1  6  0  0  0
  5 14  1  0  0  0  0
  5 10  1  0  0  0  0
  6  7  1  0  0  0  0
  7 13  1  0  0  0  0
  7 15  2  0  0  0  0
  8 15  1  0  0  0  0
  9 14  1  0  0  0  0
  9 24  1  0  0  0  0
 10 24  1  0  0  0  0
 10 11  1  1  0  0  0
 11 12  1  0  0  0  0
 12 19  1  0  0  0  0
 17 25  1  0  0  0  0
 19 25  1  0  0  0  0
 20 26  1  0  0  0  0
 21 26  1  0  0  0  0
 22 25  2  0  0  0  0
 23 26  2  0  0  0  0
 25 20  1  1  0  0  0
 26 18  1  1  0  0  0
M  CHG  2  17  -1  21  -1
M  END
>  <CHROM.1>
-94.86987554,-66.59578597,143.52051442,138.42065231,68.20084539,-83.74720592
-42.68253186,66.41567223,-7.68098155,-4.19378578,7.10700435,-0.42839460,0.20384577
-2.33044411

>  <Name>
ligand

>  <RI>
0

>  <Rbt.Current_Directory>
/home/itssahil/PROJECTS/Mol_Feturizer/New_Systems/rnas/3D2X

>  <Rbt.Executable>
rbdock ($Id: //depot/dev/client3/rdock/2013.1/src/exe/rbdock.cxx#4 $)

>  <Rbt.Library>
libRbt.so (2013.1, Build901 2013/11/27)

>  <Rbt.Parameter_File>
/export/apps/rDock/src/rDock_2013.1_src/data/scripts/dock_solv.prm

>  <Rbt.Receptor>
prm/blind_docking_20.prm

>  <SCORE>
-7.13932

>  <SCORE.INTER>
-13.2366

>  <SCORE.INTER.CONST>
1

>  <SCORE.INTER.POLAR>
0

>  <SCORE.INTER.ROT>
8

>  <SCORE.INTER.SOLV>
20.2341

>  <SCORE.INTER.VDW>
-24.5024

>  <SCORE.INTER.norm>
-0.509099

>  <SCORE.INTRA>
1.92605

>  <SCORE.INTRA.DIHEDRAL>
1.80299

>  <SCORE.INTRA.DIHEDRAL.0>
7.88077

>  <SCORE.INTRA.POLAR>
0

>  <SCORE.INTRA.POLAR.0>
0

>  <SCORE.INTRA.REPUL>
0

>  <SCORE.INTRA.REPUL.0>
0

>  <SCORE.INTRA.SOLV>
0.296147

>  <SCORE.INTRA.SOLV.lig_0>
-63.2542

>  <SCORE.INTRA.VDW>
0.876484

>  <SCORE.INTRA.VDW.0>
-3.15072

>  <SCORE.INTRA.norm>
0.0740789

>  <SCORE.RESTR>
4.17121

>  <SCORE.RESTR.CAVITY>
4.17121

>  <SCORE.RESTR.norm>
0.160431

>  <SCORE.SYSTEM>
0

>  <SCORE.SYSTEM.CONST>
0

>  <SCORE.SYSTEM.DIHEDRAL>
0

>  <SCORE.SYSTEM.SOLV>
0

>  <SCORE.SYSTEM.norm>
0

>  <SCORE.heavy>
26

>  <SCORE.norm>
-0.274589

>  <RMSD>
19.749

$$$$
ligand
 OpenBabel11021811473D
libRbt.so/2013.1/901 2013/11/27
 26 27  0  0  0  0  0  0  0  0999 V2000
  -20.2998    4.0745   11.6072 C   0  0  0  0  0  0  0  0  0  0  0  0
  -23.4784    5.9973   13.0646 C   0  0  0  0  0  0  0  0  0  0  0  0
  -23.5308    4.7481   13.6741 C   0  0  0  0  0  0  0  0  0  0  0  0
  -22.7223    3.5418   13.1905 C   0  0  0  0  0  0  0  0  0  0  0  0
  -20.2731    3.7525   13.1042 C   0  0  1  0  0  0  0  0  0  0  0  0
  -25.8318    7.9759   15.3184 C   0  0  0  0  0  0  0  0  0  0  0  0
  -25.0184    6.8266   14.7211 C   0  0  0  0  0  0  0  0  0  0  0  0
  -24.3443    4.6018   14.7932 C   0  0  0  0  0  0  0  0  0  0  0  0
  -21.2430    3.2726   15.1073 C   0  0  0  0  0  0  0  0  0  0  0  0
  -19.0874    3.6996   13.8272 C   0  0  2  0  0  0  0  0  0  0  0  0
  -17.6372    3.9289   13.3939 C   0  0  0  0  0  0  0  0  0  0  0  0
  -16.6861    4.1279   14.5763 C   0  0  0  0  0  0  0  0  0  0  0  0
  -24.2268    7.0539   13.5875 N   0  0  0  0  0  0  0  0  0  0  0  0
  -21.3868    3.5194   13.8044 N   0  0  0  0  0  0  0  0  0  0  0  0
  -25.0471    5.6079   15.2793 N   0  0  0  0  0  0  0  0  0  0  0  0
  -22.7741    6.1760   12.0708 O   0  0  0  0  0  0  0  0  0  0  0  0
  -16.3146    7.2834   16.8425 O   0  5  0  0  0  0  0  0  0  0  0  0
  -18.3623    3.4578   19.4133 O   0  0  0  0  0  0  0  0  0  0  0  0
  -16.9455    5.3552   15.2650 O   0  0  0  0  0  0  0  0  0  0  0  0
  -17.2638    5.1313   17.8207 O   0  0  0  0  0  0  0  0  0  0  0  0
  -17.2515    2.6122   17.2353 O   0  5  0  0  0  0  0  0  0  0  0  0
  -14.8998    5.1203   16.8068 O   0  0  0  0  0  0  0  0  0  0  0  0
  -15.8118    3.5099   19.1614 O   0  0  0  0  0  0  0  0  0  0  0  0
  -19.5337    3.2599   15.4522 S   0  0  0  0  0  0  0  0  0  0  0  0
  -16.2649    5.6821   16.6873 P   0  0  2  0  0  0  0  0  0  0  0  0
  -17.1833    3.6082   18.3279 P   0  0  2  0  0  0  0  0  0  0  0  0
  2 16  2  0  0  0  0
  2  3  1  0  0  0  0
  2 13  1  0  0  0  0
  3  8  2  0  0  0  0
  3  4  1  0  0  0  0
  4 14  1  0  0  0  0
  5  1  1  1  0  0  0
  5 14  1  0  0  0  0
  5 10  1  0  0  0  0
  6  7  1  0  0  0  0
  7 13  1  0  0  0  0
  7 15  2  0  0  0  0
  8 15  1  0  0  0  0
  9 14  1  0  0  0  0
  9 24  1  0  0  0  0
 10 24  1  0  0  0  0
 10 11  1  6  0  0  0
 11 12  1  0  0  0  0
 12 19  1  0  0  0  0
 17 25  1  0  0  0  0
 19 25  1  0  0  0  0
 20 26  1  0  0  0  0
 21 26  1  0  0  0  0
 22 25  2  0  0  0  0
 23 26  2  0  0  0  0
 25 20  1  1  0  0  0
 26 18  1  1  0  0  0
M  CHG  2  17  -1  21  -1
M  END
>  <CHROM.1>
87.40372361,164.97385882,-67.75118928,-110.47613361,169.16981575,-160.89212812
158.32963252,-178.39160797,-19.66698807,4.70254271,15.45309877,-2.74598934
-0.26692120,1.34873938

>  <Name>
ligand

>  <RI>
0

>  <Rbt.Current_Directory>
/home/itssahil/PROJECTS/Mol_Feturizer/New_Systems/rnas/3D2X

>  <Rbt.Executable>
rbdock ($Id: //depot/dev/client3/rdock/2013.1/src/exe/rbdock.cxx#4 $)

>  <Rbt.Library>
libRbt.so (2013.1, Build901 2013/11/27)

>  <Rbt.Parameter_File>
/export/apps/rDock/src/rDock_2013.1_src/data/scripts/dock_solv.prm

>  <Rbt.Receptor>
prm/blind_docking_80.prm

>  <SCORE>
-11.9611

>  <SCORE.INTER>
-10.9057

>  <SCORE.INTER.CONST>
1

>  <SCORE.INTER.POLAR>
0

>  <SCORE.INTER.ROT>
8

>  <SCORE.INTER.SOLV>
17.3395

>  <SCORE.INTER.VDW>
-21.9837

>  <SCORE.INTER.norm>
-0.419451

>  <SCORE.INTRA>
-1.07608

>  <SCORE.INTRA.DIHEDRAL>
-0.729338

>  <SCORE.INTRA.DIHEDRAL.0>
7.88077

>  <SCORE.INTRA.POLAR>
0

>  <SCORE.INTRA.POLAR.0>
0

>  <SCORE.INTRA.REPUL>
0

>  <SCORE.INTRA.REPUL.0>
0

>  <SCORE.INTRA.SOLV>
1.27499

>  <SCORE.INTRA.SOLV.lig_0>
-63.2542

>  <SCORE.INTRA.VDW>
-1.34891

>  <SCORE.INTRA.VDW.0>
-3.15072

>  <SCORE.INTRA.norm>
-0.0413877

>  <SCORE.RESTR>
0.0206631

>  <SCORE.RESTR.CAVITY>
0.0206631

>  <SCORE.RESTR.norm>
0.000794734

>  <SCORE.SYSTEM>
0

>  <SCORE.SYSTEM.CONST>
0

>  <SCORE.SYSTEM.DIHEDRAL>
0

>  <SCORE.SYSTEM.SOLV>
0

>  <SCORE.SYSTEM.norm>
0

>  <SCORE.heavy>
26

>  <SCORE.norm>
-0.460043

>  <RMSD>
25.143

$$$$
ligand
 OpenBabel11021811473D
libRbt.so/2013.1/901 2013/11/27
 26 27  0  0  0  0  0  0  0  0999 V2000
  -20.0294    3.7214   13.2678 C   0  0  0  0  0  0  0  0  0  0  0  0
  -25.3677    4.4249   13.6496 C   0  0  0  0  0  0  0  0  0  0  0  0
  -24.2684    5.0591   13.0804 C   0  0  0  0  0  0  0  0  0  0  0  0
  -22.8743    4.4304   13.0174 C   0  0  0  0  0  0  0  0  0  0  0  0
  -20.8504    4.3246   14.4113 C   0  0  1  0  0  0  0  0  0  0  0  0
  -28.0821    7.0259   13.0177 C   0  0  0  0  0  0  0  0  0  0  0  0
  -26.7233    6.3249   13.0532 C   0  0  0  0  0  0  0  0  0  0  0  0
  -24.4589    6.3190   12.5220 C   0  0  0  0  0  0  0  0  0  0  0  0
  -22.7473    5.1850   15.3303 C   0  0  0  0  0  0  0  0  0  0  0  0
  -20.2964    4.5905   15.6578 C   0  0  2  0  0  0  0  0  0  0  0  0
  -18.8737    4.3912   16.1865 C   0  0  0  0  0  0  0  0  0  0  0  0
  -18.6681    3.0246   16.8440 C   0  0  0  0  0  0  0  0  0  0  0  0
  -26.6127    5.0572   13.6398 N   0  0  0  0  0  0  0  0  0  0  0  0
  -22.1402    4.6441   14.2730 N   0  0  0  0  0  0  0  0  0  0  0  0
  -25.6406    6.9072   12.5179 N   0  0  0  0  0  0  0  0  0  0  0  0
  -25.2490    3.3097   14.1575 O   0  0  0  0  0  0  0  0  0  0  0  0
  -15.9607    1.7450   15.9222 O   0  5  0  0  0  0  0  0  0  0  0  0
  -16.9300    5.7649   17.7888 O   0  0  0  0  0  0  0  0  0  0  0  0
  -17.4582    2.9796   17.6068 O   0  0  0  0  0  0  0  0  0  0  0  0
  -16.0194    4.2916   15.9063 O   0  0  0  0  0  0  0  0  0  0  0  0
  -14.6302    6.3089   16.7365 O   0  5  0  0  0  0  0  0  0  0  0  0
  -14.9012    3.0684   17.8735 O   0  0  0  0  0  0  0  0  0  0  0  0
  -16.7886    6.6756   15.3967 O   0  0  0  0  0  0  0  0  0  0  0  0
  -21.5935    5.2162   16.6373 S   0  0  0  0  0  0  0  0  0  0  0  0
  -16.0136    3.0248   16.8967 P   0  0  2  0  0  0  0  0  0  0  0  0
  -15.9934    5.7928   16.4800 P   0  0  2  0  0  0  0  0  0  0  0  0
  2 16  2  0  0  0  0
  2  3  1  0  0  0  0
  2 13  1  0  0  0  0
  3  8  2  0  0  0  0
  3  4  1  0  0  0  0
  4 14  1  0  0  0  0
  5  1  1  6  0  0  0
  5 14  1  0  0  0  0
  5 10  1  0  0  0  0
  6  7  1  0  0  0  0
  7 13  1  0  0  0  0
  7 15  2  0  0  0  0
  8 15  1  0  0  0  0
  9 14  1  0  0  0  0
  9 24  1  0  0  0  0
 10 24  1  0  0  0  0
 10 11  1  1  0  0  0
 11 12  1  0  0  0  0
 12 19  1  0  0  0  0
 17 25  1  0  0  0  0
 19 25  1  0  0  0  0
 20 26  1  0  0  0  0
 21 26  1  0  0  0  0
 22 25  2  0  0  0  0
 23 26  2  0  0  0  0
 25 20  1  6  0  0  0
 26 18  1  1  0  0  0
M  CHG  2  17  -1  21  -1
M  END
>  <CHROM.1>
-83.64117350,-91.05459604,-165.89484439,-172.19581936,-68.69420790,-176.90153715
-59.73965177,-38.24099486,-20.18258243,4.71656340,15.34864097,2.96924768
-0.32467923,-0.13746415

>  <Name>
ligand

>  <RI>
0

>  <Rbt.Current_Directory>
/home/itssahil/PROJECTS/Mol_Feturizer/New_Systems/rnas/3D2X

>  <Rbt.Executable>
rbdock ($Id: //depot/dev/client3/rdock/2013.1/src/exe/rbdock.cxx#4 $)

>  <Rbt.Library>
libRbt.so (2013.1, Build901 2013/11/27)

>  <Rbt.Parameter_File>
/export/apps/rDock/src/rDock_2013.1_src/data/scripts/dock_solv.prm

>  <Rbt.Receptor>
prm/blind_docking_40.prm

>  <SCORE>
-6.8087

>  <SCORE.INTER>
-7.4307

>  <SCORE.INTER.CONST>
1

>  <SCORE.INTER.POLAR>
0

>  <SCORE.INTER.ROT>
8

>  <SCORE.INTER.SOLV>
20.1243

>  <SCORE.INTER.VDW>
-20.5952

>  <SCORE.INTER.norm>
-0.285796

>  <SCORE.INTRA>
-0.188029

>  <SCORE.INTRA.DIHEDRAL>
-0.806016

>  <SCORE.INTRA.DIHEDRAL.0>
7.88077

>  <SCORE.INTRA.POLAR>
0

>  <SCORE.INTRA.POLAR.0>
0

>  <SCORE.INTRA.REPUL>
0

>  <SCORE.INTRA.REPUL.0>
0

>  <SCORE.INTRA.SOLV>
-0.592517

>  <SCORE.INTRA.SOLV.lig_0>
-63.2542

>  <SCORE.INTRA.VDW>
0.511237

>  <SCORE.INTRA.VDW.0>
-3.15072

>  <SCORE.INTRA.norm>
-0.0072319

>  <SCORE.RESTR>
0.810037

>  <SCORE.RESTR.CAVITY>
0.810037

>  <SCORE.RESTR.norm>
0.0311553

>  <SCORE.SYSTEM>
0

>  <SCORE.SYSTEM.CONST>
0

>  <SCORE.SYSTEM.DIHEDRAL>
0

>  <SCORE.SYSTEM.SOLV>
0

>  <SCORE.SYSTEM.norm>
0

>  <SCORE.heavy>
26

>  <SCORE.norm>
-0.261873

>  <RMSD>
25.392

$$$$
ligand
 OpenBabel11021811473D
libRbt.so/2013.1/901 2013/11/27
 26 27  0  0  0  0  0  0  0  0999 V2000
  -20.1005    6.5711   11.8876 C   0  0  0  0  0  0  0  0  0  0  0  0
  -24.7585    6.1921   13.1529 C   0  0  0  0  0  0  0  0  0  0  0  0
  -23.5958    5.5345   12.7651 C   0  0  0  0  0  0  0  0  0  0  0  0
  -22.8971    5.7808   11.4258 C   0  0  0  0  0  0  0  0  0  0  0  0
  -20.5139    5.1719   11.4219 C   0  0  1  0  0  0  0  0  0  0  0  0
  -25.2727    4.7153   16.6296 C   0  0  0  0  0  0  0  0  0  0  0  0
  -24.6862    5.0030   15.2467 C   0  0  0  0  0  0  0  0  0  0  0  0
  -23.0332    4.6249   13.6548 C   0  0  0  0  0  0  0  0  0  0  0  0
  -22.0335    3.5792   10.8409 C   0  0  0  0  0  0  0  0  0  0  0  0
  -19.5838    4.1650   11.1928 C   0  0  2  0  0  0  0  0  0  0  0  0
  -18.0593    4.1572   11.3309 C   0  0  0  0  0  0  0  0  0  0  0  0
  -17.5913    3.8512   12.7555 C   0  0  0  0  0  0  0  0  0  0  0  0
  -25.3164    5.9300   14.4059 N   0  0  0  0  0  0  0  0  0  0  0  0
  -21.7911    4.8336   11.2240 N   0  0  0  0  0  0  0  0  0  0  0  0
  -23.5689    4.3852   14.8372 N   0  0  0  0  0  0  0  0  0  0  0  0
  -25.2947    7.0051   12.3996 O   0  0  0  0  0  0  0  0  0  0  0  0
  -19.2902    4.4421   15.9653 O   0  5  0  0  0  0  0  0  0  0  0  0
  -15.8663    1.3455   16.7104 O   0  0  0  0  0  0  0  0  0  0  0  0
  -18.1242    4.7841   13.7008 O   0  0  0  0  0  0  0  0  0  0  0  0
  -17.1045    3.2226   15.4912 O   0  0  0  0  0  0  0  0  0  0  0  0
  -15.5853    3.7911   17.5055 O   0  5  0  0  0  0  0  0  0  0  0  0
  -17.0777    5.7720   15.8329 O   0  0  0  0  0  0  0  0  0  0  0  0
  -17.8103    2.5606   17.8572 O   0  0  0  0  0  0  0  0  0  0  0  0
  -20.4934    2.7862   10.6408 S   0  0  0  0  0  0  0  0  0  0  0  0
  -17.8466    4.6335   15.2798 P   0  0  2  0  0  0  0  0  0  0  0  0
  -16.5204    2.8000   16.9277 P   0  0  2  0  0  0  0  0  0  0  0  0
  2 16  2  0  0  0  0
  2  3  1  0  0  0  0
  2 13  1  0  0  0  0
  3  8  2  0  0  0  0
  3  4  1  0  0  0  0
  4 14  1  0  0  0  0
  5  1  1  1  0  0  0
  5 14  1  0  0  0  0
  5 10  1  0  0  0  0
  6  7  1  0  0  0  0
  7 13  1  0  0  0  0
  7 15  2  0  0  0  0
  8 15  1  0  0  0  0
  9 14  1  0  0  0  0
  9 24  1  0  0  0  0
 10 24  1  0  0  0  0
 10 11  1  6  0  0  0
 11 12  1  0  0  0  0
 12 19  1  0  0  0  0
 17 25  1  0  0  0  0
 19 25  1  0  0  0  0
 20 26  1  0  0  0  0
 21 26  1  0  0  0  0
 22 25  2  0  0  0  0
 23 26  2  0  0  0  0
 25 20  1  1  0  0  0
 26 18  1  6  0  0  0
M  CHG  2  17  -1  21  -1
M  END
>  <CHROM.1>
-173.19464608,85.11851537,-57.54315689,-101.32640167,176.64290763,-74.83525821
-118.77110663,-179.88173645,-20.11518703,4.36224716,14.03932811,-2.69286956
-0.26865925,1.60716592

>  <Name>
ligand

>  <RI>
0

>  <Rbt.Current_Directory>
/home/itssahil/PROJECTS/Mol_Feturizer/New_Systems/rnas/3D2X

>  <Rbt.Executable>
rbdock ($Id: //depot/dev/client3/rdock/2013.1/src/exe/rbdock.cxx#4 $)

>  <Rbt.Library>
libRbt.so (2013.1, Build901 2013/11/27)

>  <Rbt.Parameter_File>
/export/apps/rDock/src/rDock_2013.1_src/data/scripts/dock_solv.prm

>  <Rbt.Receptor>
prm/blind_docking_80.prm

>  <SCORE>
-9.0659

>  <SCORE.INTER>
-8.59641

>  <SCORE.INTER.CONST>
1

>  <SCORE.INTER.POLAR>
0

>  <SCORE.INTER.ROT>
8

>  <SCORE.INTER.SOLV>
12.3866

>  <SCORE.INTER.VDW>
-18.7931

>  <SCORE.INTER.norm>
-0.330631

>  <SCORE.INTRA>
-0.476567

>  <SCORE.INTRA.DIHEDRAL>
-0.370132

>  <SCORE.INTRA.DIHEDRAL.0>
7.88077

>  <SCORE.INTRA.POLAR>
0

>  <SCORE.INTRA.POLAR.0>
0

>  <SCORE.INTRA.REPUL>
0

>  <SCORE.INTRA.REPUL.0>
0

>  <SCORE.INTRA.SOLV>
0.247999

>  <SCORE.INTRA.SOLV.lig_0>
-63.2542

>  <SCORE.INTRA.VDW>
-0.415501

>  <SCORE.INTRA.VDW.0>
-3.15072

>  <SCORE.INTRA.norm>
-0.0183295

>  <SCORE.RESTR>
0.0070759

>  <SCORE.RESTR.CAVITY>
0.0070759

>  <SCORE.RESTR.norm>
0.00027215

>  <SCORE.SYSTEM>
0

>  <SCORE.SYSTEM.CONST>
0

>  <SCORE.SYSTEM.DIHEDRAL>
0

>  <SCORE.SYSTEM.SOLV>
0

>  <SCORE.SYSTEM.norm>
0

>  <SCORE.heavy>
26

>  <SCORE.norm>
-0.348688

>  <RMSD>
25.494

$$$$
ligand
 OpenBabel11021811473D
libRbt.so/2013.1/901 2013/11/27
 26 27  0  0  0  0  0  0  0  0999 V2000
  -22.2410    5.7255   12.2439 C   0  0  0  0  0  0  0  0  0  0  0  0
  -23.3380    5.0929   15.7809 C   0  0  0  0  0  0  0  0  0  0  0  0
  -24.0742    5.8437   14.8703 C   0  0  0  0  0  0  0  0  0  0  0  0
  -24.7772    5.2369   13.6537 C   0  0  0  0  0  0  0  0  0  0  0  0
  -22.8414    4.3299   12.4370 C   0  0  1  0  0  0  0  0  0  0  0  0
  -22.3003    7.8061   18.2496 C   0  0  0  0  0  0  0  0  0  0  0  0
  -22.9205    7.1030   17.0412 C   0  0  0  0  0  0  0  0  0  0  0  0
  -24.1915    7.2114   15.0964 C   0  0  0  0  0  0  0  0  0  0  0  0
  -24.4063    2.8698   13.2132 C   0  0  0  0  0  0  0  0  0  0  0  0
  -22.2149    3.1841   11.9616 C   0  0  2  0  0  0  0  0  0  0  0  0
  -20.8964    3.0020   11.2054 C   0  0  0  0  0  0  0  0  0  0  0  0
  -19.6951    3.5859   11.9526 C   0  0  0  0  0  0  0  0  0  0  0  0
  -22.7518    5.7212   16.8815 N   0  0  0  0  0  0  0  0  0  0  0  0
  -23.9923    4.1313   13.0858 N   0  0  0  0  0  0  0  0  0  0  0  0
  -23.6334    7.7948   16.1408 N   0  0  0  0  0  0  0  0  0  0  0  0
  -23.2044    3.8792   15.6231 O   0  0  0  0  0  0  0  0  0  0  0  0
  -19.5072    3.8665   15.8461 O   0  5  0  0  0  0  0  0  0  0  0  0
  -15.8352    5.0316   15.3826 O   0  0  0  0  0  0  0  0  0  0  0  0
  -19.7482    3.2939   13.3524 O   0  0  0  0  0  0  0  0  0  0  0  0
  -17.4346    3.2386   14.5047 O   0  0  0  0  0  0  0  0  0  0  0  0
  -16.9017    3.3491   17.0330 O   0  5  0  0  0  0  0  0  0  0  0  0
  -18.5982    5.4870   14.0491 O   0  0  0  0  0  0  0  0  0  0  0  0
  -15.1195    2.5702   15.3581 O   0  0  0  0  0  0  0  0  0  0  0  0
  -23.2687    1.8572   12.3640 S   0  0  0  0  0  0  0  0  0  0  0  0
  -18.8101    4.0662   14.4093 P   0  0  2  0  0  0  0  0  0  0  0  0
  -16.3654    3.5386   15.6667 P   0  0  2  0  0  0  0  0  0  0  0  0
  2 16  2  0  0  0  0
  2  3  1  0  0  0  0
  2 13  1  0  0  0  0
  3  8  2  0  0  0  0
  3  4  1  0  0  0  0
  4 14  1  0  0  0  0
  5  1  1  1  0  0  0
  5 14  1  0  0  0  0
  5 10  1  0  0  0  0
  6  7  1  0  0  0  0
  7 13  1  0  0  0  0
  7 15  2  0  0  0  0
  8 15  1  0  0  0  0
  9 14  1  0  0  0  0
  9 24  1  0  0  0  0
 10 24  1  0  0  0  0
 10 11  1  6  0  0  0
 11 12  1  0  0  0  0
 12 19  1  0  0  0  0
 17 25  1  0  0  0  0
 19 25  1  0  0  0  0
 20 26  1  0  0  0  0
 21 26  1  0  0  0  0
 22 25  2  0  0  0  0
 23 26  2  0  0  0  0
 25 20  1  1  0  0  0
 26 18  1  6  0  0  0
M  CHG  2  17  -1  21  -1
M  END
>  <CHROM.1>
-35.64350014,56.60553456,42.03707792,-70.61988405,-165.57252121,-55.86590510
160.20358157,-65.49971610,-20.74714575,4.35699948,14.49809488,3.13125488
-0.23887349,0.89088130

>  <Name>
ligand

>  <RI>
0

>  <Rbt.Current_Directory>
/home/itssahil/PROJECTS/Mol_Feturizer/New_Systems/rnas/3D2X

>  <Rbt.Executable>
rbdock ($Id: //depot/dev/client3/rdock/2013.1/src/exe/rbdock.cxx#4 $)

>  <Rbt.Library>
libRbt.so (2013.1, Build901 2013/11/27)

>  <Rbt.Parameter_File>
/export/apps/rDock/src/rDock_2013.1_src/data/scripts/dock_solv.prm

>  <Rbt.Receptor>
prm/blind_docking_60.prm

>  <SCORE>
-16.4097

>  <SCORE.INTER>
-14.9267

>  <SCORE.INTER.CONST>
1

>  <SCORE.INTER.POLAR>
0

>  <SCORE.INTER.ROT>
8

>  <SCORE.INTER.SOLV>
18.8493

>  <SCORE.INTER.VDW>
-25.1676

>  <SCORE.INTER.norm>
-0.574105

>  <SCORE.INTRA>
-1.48294

>  <SCORE.INTRA.DIHEDRAL>
-0.283859

>  <SCORE.INTRA.DIHEDRAL.0>
7.88077

>  <SCORE.INTRA.POLAR>
0

>  <SCORE.INTRA.POLAR.0>
0

>  <SCORE.INTRA.REPUL>
0

>  <SCORE.INTRA.REPUL.0>
0

>  <SCORE.INTRA.SOLV>
-0.117958

>  <SCORE.INTRA.SOLV.lig_0>
-63.2542

>  <SCORE.INTRA.VDW>
-1.28203

>  <SCORE.INTRA.VDW.0>
-3.15072

>  <SCORE.INTRA.norm>
-0.057036

>  <SCORE.RESTR>
0

>  <SCORE.RESTR.CAVITY>
0

>  <SCORE.RESTR.norm>
0

>  <SCORE.SYSTEM>
0

>  <SCORE.SYSTEM.CONST>
0

>  <SCORE.SYSTEM.DIHEDRAL>
0

>  <SCORE.SYSTEM.SOLV>
0

>  <SCORE.SYSTEM.norm>
0

>  <SCORE.heavy>
26

>  <SCORE.norm>
-0.631141

>  <RMSD>
25.540

$$$$
ligand
 OpenBabel11021811473D
libRbt.so/2013.1/901 2013/11/27
 26 27  0  0  0  0  0  0  0  0999 V2000
  -19.2378    4.0013   11.7622 C   0  0  0  0  0  0  0  0  0  0  0  0
  -15.5195    3.1398   15.6609 C   0  0  0  0  0  0  0  0  0  0  0  0
  -16.2445    4.1467   15.0323 C   0  0  0  0  0  0  0  0  0  0  0  0
  -17.1076    3.9118   13.7903 C   0  0  0  0  0  0  0  0  0  0  0  0
  -19.5032    3.7658   13.2521 C   0  0  1  0  0  0  0  0  0  0  0  0
  -13.9952    5.0824   18.5653 C   0  0  0  0  0  0  0  0  0  0  0  0
  -14.7857    4.7453   17.3002 C   0  0  0  0  0  0  0  0  0  0  0  0
  -16.1957    5.4248   15.5797 C   0  0  0  0  0  0  0  0  0  0  0  0
  -18.8676    3.4885   15.4206 C   0  0  0  0  0  0  0  0  0  0  0  0
  -20.7847    3.5659   13.7513 C   0  0  2  0  0  0  0  0  0  0  0  0
  -22.1412    3.5189   13.0433 C   0  0  0  0  0  0  0  0  0  0  0  0
  -23.2974    3.9686   13.9396 C   0  0  0  0  0  0  0  0  0  0  0  0
  -14.7796    3.4333   16.8082 N   0  0  0  0  0  0  0  0  0  0  0  0
  -18.5192    3.7236   14.1547 N   0  0  0  0  0  0  0  0  0  0  0  0
  -15.4932    5.6909   16.6652 N   0  0  0  0  0  0  0  0  0  0  0  0
  -15.5301    1.9929   15.2134 O   0  0  0  0  0  0  0  0  0  0  0  0
  -23.4671    5.0038   16.9834 O   0  5  0  0  0  0  0  0  0  0  0  0
  -25.3436    8.0854   17.5050 O   0  0  0  0  0  0  0  0  0  0  0  0
  -23.0857    5.2856   14.4576 O   0  0  0  0  0  0  0  0  0  0  0  0
  -23.4263    7.3457   15.9819 O   0  0  0  0  0  0  0  0  0  0  0  0
  -23.0522    7.4732   18.5377 O   0  5  0  0  0  0  0  0  0  0  0  0
  -25.4024    5.7845   15.4582 O   0  0  0  0  0  0  0  0  0  0  0  0
  -23.3185    9.6165   17.1508 O   0  0  0  0  0  0  0  0  0  0  0  0
  -20.6078    3.3908   15.4750 S   0  0  0  0  0  0  0  0  0  0  0  0
  -23.9426    5.8493   15.6991 P   0  0  2  0  0  0  0  0  0  0  0  0
  -23.7392    8.0812   17.3764 P   0  0  2  0  0  0  0  0  0  0  0  0
  2 16  2  0  0  0  0
  2  3  1  0  0  0  0
  2 13  1  0  0  0  0
  3  8  2  0  0  0  0
  3  4  1  0  0  0  0
  4 14  1  0  0  0  0
  5  1  1  6  0  0  0
  5 14  1  0  0  0  0
  5 10  1  0  0  0  0
  6  7  1  0  0  0  0
  7 13  1  0  0  0  0
  7 15  2  0  0  0  0
  8 15  1  0  0  0  0
  9 14  1  0  0  0  0
  9 24  1  0  0  0  0
 10 24  1  0  0  0  0
 10 11  1  1  0  0  0
 11 12  1  0  0  0  0
 12 19  1  0  0  0  0
 17 25  1  0  0  0  0
 19 25  1  0  0  0  0
 20 26  1  0  0  0  0
 21 26  1  0  0  0  0
 22 25  2  0  0  0  0
 23 26  2  0  0  0  0
 25 20  1  1  0  0  0
 26 18  1  1  0  0  0
M  CHG  2  17  -1  21  -1
M  END
>  <CHROM.1>
97.22870567,-151.17127397,56.57998684,166.45888333,-164.37827578,-50.66374151
68.97921504,-57.81348061,-20.42601030,5.15317181,15.67939202,0.29540317,0.21961225
-2.29795750

>  <Name>
ligand

>  <RI>
0

>  <Rbt.Current_Directory>
/home/itssahil/PROJECTS/Mol_Feturizer/New_Systems/rnas/3D2X

>  <Rbt.Executable>
rbdock ($Id: //depot/dev/client3/rdock/2013.1/src/exe/rbdock.cxx#4 $)

>  <Rbt.Library>
libRbt.so (2013.1, Build901 2013/11/27)

>  <Rbt.Parameter_File>
/export/apps/rDock/src/rDock_2013.1_src/data/scripts/dock_solv.prm

>  <Rbt.Receptor>
prm/blind_docking_60.prm

>  <SCORE>
-13.4809

>  <SCORE.INTER>
-12.4126

>  <SCORE.INTER.CONST>
1

>  <SCORE.INTER.POLAR>
0

>  <SCORE.INTER.ROT>
8

>  <SCORE.INTER.SOLV>
20.1434

>  <SCORE.INTER.VDW>
-23.9229

>  <SCORE.INTER.norm>
-0.477409

>  <SCORE.INTRA>
-1.11741

>  <SCORE.INTRA.DIHEDRAL>
-1.41657

>  <SCORE.INTRA.DIHEDRAL.0>
7.88077

>  <SCORE.INTRA.POLAR>
0

>  <SCORE.INTRA.POLAR.0>
0

>  <SCORE.INTRA.REPUL>
0

>  <SCORE.INTRA.REPUL.0>
0

>  <SCORE.INTRA.SOLV>
-1.07328

>  <SCORE.INTRA.SOLV.lig_0>
-63.2542

>  <SCORE.INTRA.VDW>
0.127518

>  <SCORE.INTRA.VDW.0>
-3.15072

>  <SCORE.INTRA.norm>
-0.0429772

>  <SCORE.RESTR>
0.0491564

>  <SCORE.RESTR.CAVITY>
0.0491564

>  <SCORE.RESTR.norm>
0.00189063

>  <SCORE.SYSTEM>
0

>  <SCORE.SYSTEM.CONST>
0

>  <SCORE.SYSTEM.DIHEDRAL>
0

>  <SCORE.SYSTEM.SOLV>
0

>  <SCORE.SYSTEM.norm>
0

>  <SCORE.heavy>
26

>  <SCORE.norm>
-0.518495

>  <RMSD>
25.562

$$$$
ligand
 OpenBabel11021811473D
libRbt.so/2013.1/901 2013/11/27
 26 27  0  0  0  0  0  0  0  0999 V2000
  -18.8965    4.3563   12.2754 C   0  0  0  0  0  0  0  0  0  0  0  0
  -16.1182    5.1806   16.6896 C   0  0  0  0  0  0  0  0  0  0  0  0
  -16.7261    4.7013   15.5340 C   0  0  0  0  0  0  0  0  0  0  0  0
  -17.8110    5.4683   14.7742 C   0  0  0  0  0  0  0  0  0  0  0  0
  -19.5897    4.2095   13.6332 C   0  0  1  0  0  0  0  0  0  0  0  0
  -13.6349    2.3745   17.3909 C   0  0  0  0  0  0  0  0  0  0  0  0
  -14.7437    3.2029   16.7401 C   0  0  0  0  0  0  0  0  0  0  0  0
  -16.3049    3.4719   15.0372 C   0  0  0  0  0  0  0  0  0  0  0  0
  -19.7553    4.5077   15.8842 C   0  0  0  0  0  0  0  0  0  0  0  0
  -20.7892    3.5231   13.7796 C   0  0  2  0  0  0  0  0  0  0  0  0
  -21.6592    2.7932   12.7530 C   0  0  0  0  0  0  0  0  0  0  0  0
  -23.0983    3.3125   12.7145 C   0  0  0  0  0  0  0  0  0  0  0  0
  -15.1148    4.4300   17.3057 N   0  0  0  0  0  0  0  0  0  0  0  0
  -19.0751    4.7182   14.7563 N   0  0  0  0  0  0  0  0  0  0  0  0
  -15.3549    2.7709   15.6277 N   0  0  0  0  0  0  0  0  0  0  0  0
  -16.4576    6.2629   17.1685 O   0  0  0  0  0  0  0  0  0  0  0  0
  -25.3863    4.9704   13.6497 O   0  5  0  0  0  0  0  0  0  0  0  0
  -24.0409    8.2055   15.4100 O   0  0  0  0  0  0  0  0  0  0  0  0
  -23.1501    4.7098   12.4104 O   0  0  0  0  0  0  0  0  0  0  0  0
  -23.2562    5.8713   14.7175 O   0  0  0  0  0  0  0  0  0  0  0  0
  -25.1935    6.1180   16.4129 O   0  5  0  0  0  0  0  0  0  0  0  0
  -24.2154    7.0403   12.6366 O   0  0  0  0  0  0  0  0  0  0  0  0
  -22.7901    6.7201   17.0833 O   0  0  0  0  0  0  0  0  0  0  0  0
  -21.2166    3.6546   15.4629 S   0  0  0  0  0  0  0  0  0  0  0  0
  -24.0123    5.7343   13.3049 P   0  0  2  0  0  0  0  0  0  0  0  0
  -23.9147    6.6891   15.9346 P   0  0  2  0  0  0  0  0  0  0  0  0
  2 16  2  0  0  0  0
  2  3  1  0  0  0  0
  2 13  1  0  0  0  0
  3  8  2  0  0  0  0
  3  4  1  0  0  0  0
  4 14  1  0  0  0  0
  5  1  1  1  0  0  0
  5 14  1  0  0  0  0
  5 10  1  0  0  0  0
  6  7  1  0  0  0  0
  7 13  1  0  0  0  0
  7 15  2  0  0  0  0
  8 15  1  0  0  0  0
  9 14  1  0  0  0  0
  9 24  1  0  0  0  0
 10 24  1  0  0  0  0
 10 11  1  6  0  0  0
 11 12  1  0  0  0  0
 12 19  1  0  0  0  0
 17 25  1  0  0  0  0
 19 25  1  0  0  0  0
 20 26  1  0  0  0  0
 21 26  1  0  0  0  0
 22 25  2  0  0  0  0
 23 26  2  0  0  0  0
 25 20  1  1  0  0  0
 26 18  1  6  0  0  0
M  CHG  2  17  -1  21  -1
M  END
>  <CHROM.1>
-117.83821016,-123.71630851,58.50813880,-112.90790897,-130.24887150,-61.03064750
-40.73105007,-62.65923833,-20.62298985,4.94153594,14.94437342,-0.03990231
0.32038157,-2.20300708

>  <Name>
ligand

>  <RI>
0

>  <Rbt.Current_Directory>
/home/itssahil/PROJECTS/Mol_Feturizer/New_Systems/rnas/3D2X

>  <Rbt.Executable>
rbdock ($Id: //depot/dev/client3/rdock/2013.1/src/exe/rbdock.cxx#4 $)

>  <Rbt.Library>
libRbt.so (2013.1, Build901 2013/11/27)

>  <Rbt.Parameter_File>
/export/apps/rDock/src/rDock_2013.1_src/data/scripts/dock_solv.prm

>  <Rbt.Receptor>
prm/blind_docking_60.prm

>  <SCORE>
-10.9027

>  <SCORE.INTER>
-10.6067

>  <SCORE.INTER.CONST>
1

>  <SCORE.INTER.POLAR>
0

>  <SCORE.INTER.ROT>
8

>  <SCORE.INTER.SOLV>
15.9579

>  <SCORE.INTER.VDW>
-21.3237

>  <SCORE.INTER.norm>
-0.407949

>  <SCORE.INTRA>
-0.296007

>  <SCORE.INTRA.DIHEDRAL>
4.40647

>  <SCORE.INTRA.DIHEDRAL.0>
7.88077

>  <SCORE.INTRA.POLAR>
0

>  <SCORE.INTRA.POLAR.0>
0

>  <SCORE.INTRA.REPUL>
0

>  <SCORE.INTRA.REPUL.0>
0

>  <SCORE.INTRA.SOLV>
-1.14149

>  <SCORE.INTRA.SOLV.lig_0>
-63.2542

>  <SCORE.INTRA.VDW>
-1.9285

>  <SCORE.INTRA.VDW.0>
-3.15072

>  <SCORE.INTRA.norm>
-0.0113849

>  <SCORE.RESTR>
0

>  <SCORE.RESTR.CAVITY>
0

>  <SCORE.RESTR.norm>
0

>  <SCORE.SYSTEM>
0

>  <SCORE.SYSTEM.CONST>
0

>  <SCORE.SYSTEM.DIHEDRAL>
0

>  <SCORE.SYSTEM.SOLV>
0

>  <SCORE.SYSTEM.norm>
0

>  <SCORE.heavy>
26

>  <SCORE.norm>
-0.419334

>  <RMSD>
25.581

$$$$
ligand
 OpenBabel11021811473D
libRbt.so/2013.1/901 2013/11/27
 26 27  0  0  0  0  0  0  0  0999 V2000
  -21.3920    4.6491   14.0077 C   0  0  0  0  0  0  0  0  0  0  0  0
  -18.2378    3.6693   15.9031 C   0  0  0  0  0  0  0  0  0  0  0  0
  -17.7945    4.8186   15.2572 C   0  0  0  0  0  0  0  0  0  0  0  0
  -18.5839    5.5173   14.1475 C   0  0  0  0  0  0  0  0  0  0  0  0
  -20.3055    4.1414   13.0552 C   0  0  1  0  0  0  0  0  0  0  0  0
  -15.4140    3.1401   18.4088 C   0  0  0  0  0  0  0  0  0  0  0  0
  -16.2611    3.7271   17.2788 C   0  0  0  0  0  0  0  0  0  0  0  0
  -16.5820    5.3678   15.6618 C   0  0  0  0  0  0  0  0  0  0  0  0
  -18.1829    4.0611   12.2360 C   0  0  0  0  0  0  0  0  0  0  0  0
  -20.5790    3.2317   12.0407 C   0  0  2  0  0  0  0  0  0  0  0  0
  -21.8891    2.5592   11.6226 C   0  0  0  0  0  0  0  0  0  0  0  0
  -22.7782    2.1939   12.8136 C   0  0  0  0  0  0  0  0  0  0  0  0
  -17.4693    3.1109   16.9266 N   0  0  0  0  0  0  0  0  0  0  0  0
  -19.0373    4.5540   13.1338 N   0  0  0  0  0  0  0  0  0  0  0  0
  -15.8638    4.8318   16.6310 N   0  0  0  0  0  0  0  0  0  0  0  0
  -19.3040    3.1454   15.5797 O   0  0  0  0  0  0  0  0  0  0  0  0
  -23.9228    4.2616   15.3259 O   0  5  0  0  0  0  0  0  0  0  0  0
  -26.8801    6.2458   14.6395 O   0  0  0  0  0  0  0  0  0  0  0  0
  -23.8223    3.1525   13.0099 O   0  0  0  0  0  0  0  0  0  0  0  0
  -26.0815    3.8949   14.0240 O   0  0  0  0  0  0  0  0  0  0  0  0
  -24.8318    5.9558   13.0862 O   0  5  0  0  0  0  0  0  0  0  0  0
  -24.8337    1.8654   14.9942 O   0  0  0  0  0  0  0  0  0  0  0  0
  -27.1864    5.3677   12.2508 O   0  0  0  0  0  0  0  0  0  0  0  0
  -19.0568    2.9131   11.2568 S   0  0  0  0  0  0  0  0  0  0  0  0
  -24.6738    3.2016   14.3758 P   0  0  2  0  0  0  0  0  0  0  0  0
  -26.1484    5.4052   13.4781 P   0  0  2  0  0  0  0  0  0  0  0  0
  2 16  2  0  0  0  0
  2  3  1  0  0  0  0
  2 13  1  0  0  0  0
  3  8  2  0  0  0  0
  3  4  1  0  0  0  0
  4 14  1  0  0  0  0
  5  1  1  6  0  0  0
  5 14  1  0  0  0  0
  5 10  1  0  0  0  0
  6  7  1  0  0  0  0
  7 13  1  0  0  0  0
  7 15  2  0  0  0  0
  8 15  1  0  0  0  0
  9 14  1  0  0  0  0
  9 24  1  0  0  0  0
 10 24  1  0  0  0  0
 10 11  1  1  0  0  0
 11 12  1  0  0  0  0
 12 19  1  0  0  0  0
 17 25  1  0  0  0  0
 19 25  1  0  0  0  0
 20 26  1  0  0  0  0
 21 26  1  0  0  0  0
 22 25  2  0  0  0  0
 23 26  2  0  0  0  0
 25 20  1  6  0  0  0
 26 18  1  1  0  0  0
M  CHG  2  17  -1  21  -1
M  END
>  <CHROM.1>
-48.42012791,-37.38809603,99.98162464,104.58979850,-165.38975818,50.26081411
92.69123527,-113.44717573,-21.52446648,4.01406906,14.11306306,-0.21518613
0.11034544,-1.75335194

>  <Name>
ligand

>  <RI>
0

>  <Rbt.Current_Directory>
/home/itssahil/PROJECTS/Mol_Feturizer/New_Systems/rnas/3D2X

>  <Rbt.Executable>
rbdock ($Id: //depot/dev/client3/rdock/2013.1/src/exe/rbdock.cxx#4 $)

>  <Rbt.Library>
libRbt.so (2013.1, Build901 2013/11/27)

>  <Rbt.Parameter_File>
/export/apps/rDock/src/rDock_2013.1_src/data/scripts/dock_solv.prm

>  <Rbt.Receptor>
prm/blind_docking_80.prm

>  <SCORE>
-10.5374

>  <SCORE.INTER>
-14.7959

>  <SCORE.INTER.CONST>
1

>  <SCORE.INTER.POLAR>
0

>  <SCORE.INTER.ROT>
8

>  <SCORE.INTER.SOLV>
16.6279

>  <SCORE.INTER.VDW>
-24.3399

>  <SCORE.INTER.norm>
-0.569073

>  <SCORE.INTRA>
4.25852

>  <SCORE.INTRA.DIHEDRAL>
5.39671

>  <SCORE.INTRA.DIHEDRAL.0>
7.88077

>  <SCORE.INTRA.POLAR>
0

>  <SCORE.INTRA.POLAR.0>
0

>  <SCORE.INTRA.REPUL>
0

>  <SCORE.INTRA.REPUL.0>
0

>  <SCORE.INTRA.SOLV>
1.47975

>  <SCORE.INTRA.SOLV.lig_0>
-63.2542

>  <SCORE.INTRA.VDW>
0.82029

>  <SCORE.INTRA.VDW.0>
-3.15072

>  <SCORE.INTRA.norm>
0.163789

>  <SCORE.RESTR>
0

>  <SCORE.RESTR.CAVITY>
0

>  <SCORE.RESTR.norm>
0

>  <SCORE.SYSTEM>
0

>  <SCORE.SYSTEM.CONST>
0

>  <SCORE.SYSTEM.DIHEDRAL>
0

>  <SCORE.SYSTEM.SOLV>
0

>  <SCORE.SYSTEM.norm>
0

>  <SCORE.heavy>
26

>  <SCORE.norm>
-0.405284

>  <RMSD>
25.730

$$$$
ligand
 OpenBabel11021811473D
libRbt.so/2013.1/901 2013/11/27
 26 27  0  0  0  0  0  0  0  0999 V2000
  -23.1836    5.9753   12.7992 C   0  0  0  0  0  0  0  0  0  0  0  0
  -24.4866    6.6230   16.1383 C   0  0  0  0  0  0  0  0  0  0  0  0
  -24.3124    5.3128   15.7050 C   0  0  0  0  0  0  0  0  0  0  0  0
  -25.1370    4.6823   14.5801 C   0  0  0  0  0  0  0  0  0  0  0  0
  -23.3961    4.4596   12.8568 C   0  0  1  0  0  0  0  0  0  0  0  0
  -21.7780    6.8428   18.8119 C   0  0  0  0  0  0  0  0  0  0  0  0
  -22.6918    6.2996   17.7122 C   0  0  0  0  0  0  0  0  0  0  0  0
  -23.3211    4.5504   16.3145 C   0  0  0  0  0  0  0  0  0  0  0  0
  -24.3669    2.5628   13.6584 C   0  0  0  0  0  0  0  0  0  0  0  0
  -22.6633    3.5807   12.0681 C   0  0  2  0  0  0  0  0  0  0  0  0
  -21.5568    3.8378   11.0419 C   0  0  0  0  0  0  0  0  0  0  0  0
  -20.4637    2.7668   11.0631 C   0  0  0  0  0  0  0  0  0  0  0  0
  -23.6714    7.1303   17.1521 N   0  0  0  0  0  0  0  0  0  0  0  0
  -24.2854    3.8940   13.6777 N   0  0  0  0  0  0  0  0  0  0  0  0
  -22.5558    5.0405   17.2719 N   0  0  0  0  0  0  0  0  0  0  0  0
  -25.3518    7.3367   15.6305 O   0  0  0  0  0  0  0  0  0  0  0  0
  -19.7490    5.1841   12.9653 O   0  5  0  0  0  0  0  0  0  0  0  0
  -15.9234    3.9247   14.3857 O   0  0  0  0  0  0  0  0  0  0  0  0
  -19.8181    2.6929   12.3380 O   0  0  0  0  0  0  0  0  0  0  0  0
  -18.4470    3.5070   14.3729 O   0  0  0  0  0  0  0  0  0  0  0  0
  -17.5308    5.7735   15.2167 O   0  5  0  0  0  0  0  0  0  0  0  0
  -17.6520    4.0346   11.9841 O   0  0  0  0  0  0  0  0  0  0  0  0
  -17.1903    3.6353   16.5952 O   0  0  0  0  0  0  0  0  0  0  0  0
  -23.2696    1.9889   12.4307 S   0  0  0  0  0  0  0  0  0  0  0  0
  -18.8381    3.8619   12.8540 P   0  0  2  0  0  0  0  0  0  0  0  0
  -17.2897    4.3152   15.1416 P   0  0  2  0  0  0  0  0  0  0  0  0
  2 16  2  0  0  0  0
  2  3  1  0  0  0  0
  2 13  1  0  0  0  0
  3  8  2  0  0  0  0
  3  4  1  0  0  0  0
  4 14  1  0  0  0  0
  5  1  1  1  0  0  0
  5 14  1  0  0  0  0
  5 10  1  0  0  0  0
  6  7  1  0  0  0  0
  7 13  1  0  0  0  0
  7 15  2  0  0  0  0
  8 15  1  0  0  0  0
  9 14  1  0  0  0  0
  9 24  1  0  0  0  0
 10 24  1  0  0  0  0
 10 11  1  6  0  0  0
 11 12  1  0  0  0  0
 12 19  1  0  0  0  0
 17 25  1  0  0  0  0
 19 25  1  0  0  0  0
 20 26  1  0  0  0  0
 21 26  1  0  0  0  0
 22 25  2  0  0  0  0
 23 26  2  0  0  0  0
 25 20  1  1  0  0  0
 26 18  1  6  0  0  0
M  CHG  2  17  -1  21  -1
M  END
>  <CHROM.1>
137.11319711,143.06272204,-60.26993859,-69.63250627,-70.63350516,-78.19821248
62.43891405,-67.20097928,-21.13469973,4.45336006,14.27623448,2.82935942,-0.08001349
1.03837400

>  <Name>
ligand

>  <RI>
0

>  <Rbt.Current_Directory>
/home/itssahil/PROJECTS/Mol_Feturizer/New_Systems/rnas/3D2X

>  <Rbt.Executable>
rbdock ($Id: //depot/dev/client3/rdock/2013.1/src/exe/rbdock.cxx#4 $)

>  <Rbt.Library>
libRbt.so (2013.1, Build901 2013/11/27)

>  <Rbt.Parameter_File>
/export/apps/rDock/src/rDock_2013.1_src/data/scripts/dock_solv.prm

>  <Rbt.Receptor>
prm/blind_docking_80.prm

>  <SCORE>
-18.5288

>  <SCORE.INTER>
-17.3463

>  <SCORE.INTER.CONST>
1

>  <SCORE.INTER.POLAR>
0

>  <SCORE.INTER.ROT>
8

>  <SCORE.INTER.SOLV>
19.0512

>  <SCORE.INTER.VDW>
-26.8479

>  <SCORE.INTER.norm>
-0.667165

>  <SCORE.INTRA>
-1.18253

>  <SCORE.INTRA.DIHEDRAL>
-2.00329

>  <SCORE.INTRA.DIHEDRAL.0>
7.88077

>  <SCORE.INTRA.POLAR>
0

>  <SCORE.INTRA.POLAR.0>
0

>  <SCORE.INTRA.REPUL>
0

>  <SCORE.INTRA.REPUL.0>
0

>  <SCORE.INTRA.SOLV>
0.958791

>  <SCORE.INTRA.SOLV.lig_0>
-63.2542

>  <SCORE.INTRA.VDW>
-0.660281

>  <SCORE.INTRA.VDW.0>
-3.15072

>  <SCORE.INTRA.norm>
-0.0454819

>  <SCORE.RESTR>
0

>  <SCORE.RESTR.CAVITY>
0

>  <SCORE.RESTR.norm>
0

>  <SCORE.SYSTEM>
0

>  <SCORE.SYSTEM.CONST>
0

>  <SCORE.SYSTEM.DIHEDRAL>
0

>  <SCORE.SYSTEM.SOLV>
0

>  <SCORE.SYSTEM.norm>
0

>  <SCORE.heavy>
26

>  <SCORE.norm>
-0.712647

>  <RMSD>
25.738

$$$$
ligand
 OpenBabel11021811473D
libRbt.so/2013.1/901 2013/11/27
 26 27  0  0  0  0  0  0  0  0999 V2000
  -22.9129    3.5722   15.7748 C   0  0  0  0  0  0  0  0  0  0  0  0
  -24.6846    7.3392   14.5846 C   0  0  0  0  0  0  0  0  0  0  0  0
  -25.1310    6.0844   14.9857 C   0  0  0  0  0  0  0  0  0  0  0  0
  -24.9875    5.5581   16.4158 C   0  0  0  0  0  0  0  0  0  0  0  0
  -22.6511    4.8184   16.6258 C   0  0  1  0  0  0  0  0  0  0  0  0
  -25.7665    7.3326   10.9292 C   0  0  0  0  0  0  0  0  0  0  0  0
  -25.5271    6.8889   12.3731 C   0  0  0  0  0  0  0  0  0  0  0  0
  -25.7591    5.2820   14.0385 C   0  0  0  0  0  0  0  0  0  0  0  0
  -23.2577    6.7690   17.6309 C   0  0  0  0  0  0  0  0  0  0  0  0
  -21.3965    5.1037   17.1510 C   0  0  2  0  0  0  0  0  0  0  0  0
  -20.0674    4.3523   17.0390 C   0  0  0  0  0  0  0  0  0  0  0  0
  -18.8586    5.2877   16.9608 C   0  0  0  0  0  0  0  0  0  0  0  0
  -24.8811    7.7543   13.2659 N   0  0  0  0  0  0  0  0  0  0  0  0
  -23.6077    5.7100   16.8995 N   0  0  0  0  0  0  0  0  0  0  0  0
  -25.9400    5.6849   12.7945 N   0  0  0  0  0  0  0  0  0  0  0  0
  -24.1217    8.0851   15.3862 O   0  0  0  0  0  0  0  0  0  0  0  0
  -16.9245    4.7442   14.2835 O   0  5  0  0  0  0  0  0  0  0  0  0
  -15.4476    3.2850   18.0913 O   0  0  0  0  0  0  0  0  0  0  0  0
  -17.6423    4.5656   16.7447 O   0  0  0  0  0  0  0  0  0  0  0  0
  -16.1192    2.7699   15.6774 O   0  0  0  0  0  0  0  0  0  0  0  0
  -17.0352    1.3025   17.5999 O   0  5  0  0  0  0  0  0  0  0  0  0
  -18.6008    2.9184   15.0169 O   0  0  0  0  0  0  0  0  0  0  0  0
  -14.5602    1.1785   16.9310 O   0  0  0  0  0  0  0  0  0  0  0  0
  -21.5827    6.5696   18.0728 S   0  0  0  0  0  0  0  0  0  0  0  0
  -17.4044    3.6983   15.4088 P   0  0  2  0  0  0  0  0  0  0  0  0
  -15.8771    2.0833   17.1104 P   0  0  2  0  0  0  0  0  0  0  0  0
  2 16  2  0  0  0  0
  2  3  1  0  0  0  0
  2 13  1  0  0  0  0
  3  8  2  0  0  0  0
  3  4  1  0  0  0  0
  4 14  1  0  0  0  0
  5  1  1  6  0  0  0
  5 14  1  0  0  0  0
  5 10  1  0  0  0  0
  6  7  1  0  0  0  0
  7 13  1  0  0  0  0
  7 15  2  0  0  0  0
  8 15  1  0  0  0  0
  9 14  1  0  0  0  0
  9 24  1  0  0  0  0
 10 24  1  0  0  0  0
 10 11  1  1  0  0  0
 11 12  1  0  0  0  0
 12 19  1  0  0  0  0
 17 25  1  0  0  0  0
 19 25  1  0  0  0  0
 20 26  1  0  0  0  0
 21 26  1  0  0  0  0
 22 25  2  0  0  0  0
 23 26  2  0  0  0  0
 25 20  1  1  0  0  0
 26 18  1  1  0  0  0
M  CHG  2  17  -1  21  -1
M  END
>  <CHROM.1>
-50.35758151,144.16072891,-175.13511507,-83.61205004,62.65431211,151.05744303
82.13830498,-72.20267789,-20.61523627,4.76978436,15.85371059,2.95103407,0.45369073
-1.70930474

>  <Name>
ligand

>  <RI>
0

>  <Rbt.Current_Directory>
/home/itssahil/PROJECTS/Mol_Feturizer/New_Systems/rnas/3D2X

>  <Rbt.Executable>
rbdock ($Id: //depot/dev/client3/rdock/2013.1/src/exe/rbdock.cxx#4 $)

>  <Rbt.Library>
libRbt.so (2013.1, Build901 2013/11/27)

>  <Rbt.Parameter_File>
/export/apps/rDock/src/rDock_2013.1_src/data/scripts/dock_solv.prm

>  <Rbt.Receptor>
prm/blind_docking_40.prm

>  <SCORE>
-6.06817

>  <SCORE.INTER>
-5.09261

>  <SCORE.INTER.CONST>
1

>  <SCORE.INTER.POLAR>
0

>  <SCORE.INTER.ROT>
8

>  <SCORE.INTER.SOLV>
19.9227

>  <SCORE.INTER.VDW>
-18.9693

>  <SCORE.INTER.norm>
-0.19587

>  <SCORE.INTRA>
-0.975557

>  <SCORE.INTRA.DIHEDRAL>
-1.4052

>  <SCORE.INTRA.DIHEDRAL.0>
7.88077

>  <SCORE.INTRA.POLAR>
0

>  <SCORE.INTRA.POLAR.0>
0

>  <SCORE.INTRA.REPUL>
0

>  <SCORE.INTRA.REPUL.0>
0

>  <SCORE.INTRA.SOLV>
-0.617374

>  <SCORE.INTRA.SOLV.lig_0>
-63.2542

>  <SCORE.INTRA.VDW>
0.035731

>  <SCORE.INTRA.VDW.0>
-3.15072

>  <SCORE.INTRA.norm>
-0.0375214

>  <SCORE.RESTR>
0

>  <SCORE.RESTR.CAVITY>
0

>  <SCORE.RESTR.norm>
0

>  <SCORE.SYSTEM>
0

>  <SCORE.SYSTEM.CONST>
0

>  <SCORE.SYSTEM.DIHEDRAL>
0

>  <SCORE.SYSTEM.SOLV>
0

>  <SCORE.SYSTEM.norm>
0

>  <SCORE.heavy>
26

>  <SCORE.norm>
-0.233391

>  <RMSD>
25.774

$$$$
ligand
 OpenBabel11021811473D
libRbt.so/2013.1/901 2013/11/27
 26 27  0  0  0  0  0  0  0  0999 V2000
  -19.7493    3.7311   13.3837 C   0  0  0  0  0  0  0  0  0  0  0  0
  -16.0636    5.4323   16.6452 C   0  0  0  0  0  0  0  0  0  0  0  0
  -16.7920    4.8263   15.6269 C   0  0  0  0  0  0  0  0  0  0  0  0
  -17.9684    5.5014   14.9177 C   0  0  0  0  0  0  0  0  0  0  0  0
  -20.0788    4.2445   14.7886 C   0  0  1  0  0  0  0  0  0  0  0  0
  -13.4732    2.7280   17.3589 C   0  0  0  0  0  0  0  0  0  0  0  0
  -14.6618    3.4761   16.7534 C   0  0  0  0  0  0  0  0  0  0  0  0
  -16.4113    3.5507   15.2227 C   0  0  0  0  0  0  0  0  0  0  0  0
  -19.6334    5.4085   16.6938 C   0  0  0  0  0  0  0  0  0  0  0  0
  -21.2524    3.8955   15.4459 C   0  0  2  0  0  0  0  0  0  0  0  0
  -22.4148    2.9975   15.0148 C   0  0  0  0  0  0  0  0  0  0  0  0
  -23.7324    3.7607   14.8605 C   0  0  0  0  0  0  0  0  0  0  0  0
  -14.9849    4.7572   17.2200 N   0  0  0  0  0  0  0  0  0  0  0  0
  -19.2520    5.0434   15.4689 N   0  0  0  0  0  0  0  0  0  0  0  0
  -15.3893    2.9220   15.7729 N   0  0  0  0  0  0  0  0  0  0  0  0
  -16.3629    6.5599   17.0384 O   0  0  0  0  0  0  0  0  0  0  0  0
  -24.6097    7.0377   14.5087 O   0  5  0  0  0  0  0  0  0  0  0  0
  -23.3868    7.0321    9.9552 O   0  0  0  0  0  0  0  0  0  0  0  0
  -23.6545    4.7504   13.8299 O   0  0  0  0  0  0  0  0  0  0  0  0
  -24.6660    6.3397   12.0594 O   0  0  0  0  0  0  0  0  0  0  0  0
  -22.6857    7.9918   12.2529 O   0  5  0  0  0  0  0  0  0  0  0  0
  -26.1953    5.1437   13.7469 O   0  0  0  0  0  0  0  0  0  0  0  0
  -22.2717    5.5199   11.6990 O   0  0  0  0  0  0  0  0  0  0  0  0
  -21.2191    4.7378   16.9699 S   0  0  0  0  0  0  0  0  0  0  0  0
  -24.8683    5.7710   13.5499 P   0  0  2  0  0  0  0  0  0  0  0  0
  -23.2191    6.8093   11.5404 P   0  0  2  0  0  0  0  0  0  0  0  0
  2 16  2  0  0  0  0
  2  3  1  0  0  0  0
  2 13  1  0  0  0  0
  3  8  2  0  0  0  0
  3  4  1  0  0  0  0
  4 14  1  0  0  0  0
  5  1  1  1  0  0  0
  5 14  1  0  0  0  0
  5 10  1  0  0  0  0
  6  7  1  0  0  0  0
  7 13  1  0  0  0  0
  7 15  2  0  0  0  0
  8 15  1  0  0  0  0
  9 14  1  0  0  0  0
  9 24  1  0  0  0  0
 10 24  1  0  0  0  0
 10 11  1  6  0  0  0
 11 12  1  0  0  0  0
 12 19  1  0  0  0  0
 17 25  1  0  0  0  0
 19 25  1  0  0  0  0
 20 26  1  0  0  0  0
 21 26  1  0  0  0  0
 22 25  2  0  0  0  0
 23 26  2  0  0  0  0
 25 20  1  6  0  0  0
 26 18  1  6  0  0  0
M  CHG  2  17  -1  21  -1
M  END
>  <CHROM.1>
-98.90765913,-115.44521028,62.98010716,-108.88637735,-174.92955348,67.80200268
88.65774940,169.46045454,-20.71380415,5.15206336,14.53235151,-0.47056295
-0.02896040,-1.05562627

>  <Name>
ligand

>  <RI>
0

>  <Rbt.Current_Directory>
/home/itssahil/PROJECTS/Mol_Feturizer/New_Systems/rnas/3D2X

>  <Rbt.Executable>
rbdock ($Id: //depot/dev/client3/rdock/2013.1/src/exe/rbdock.cxx#4 $)

>  <Rbt.Library>
libRbt.so (2013.1, Build901 2013/11/27)

>  <Rbt.Parameter_File>
/export/apps/rDock/src/rDock_2013.1_src/data/scripts/dock_solv.prm

>  <Rbt.Receptor>
prm/blind_docking_60.prm

>  <SCORE>
-12.5015

>  <SCORE.INTER>
-10.9682

>  <SCORE.INTER.CONST>
1

>  <SCORE.INTER.POLAR>
0

>  <SCORE.INTER.ROT>
8

>  <SCORE.INTER.SOLV>
13.4142

>  <SCORE.INTER.VDW>
-20.7169

>  <SCORE.INTER.norm>
-0.421855

>  <SCORE.INTRA>
-1.53328

>  <SCORE.INTRA.DIHEDRAL>
-1.38795

>  <SCORE.INTRA.DIHEDRAL.0>
7.88077

>  <SCORE.INTRA.POLAR>
0

>  <SCORE.INTRA.POLAR.0>
0

>  <SCORE.INTRA.REPUL>
0

>  <SCORE.INTRA.REPUL.0>
0

>  <SCORE.INTRA.SOLV>
0.734432

>  <SCORE.INTRA.SOLV.lig_0>
-63.2542

>  <SCORE.INTRA.VDW>
-1.20652

>  <SCORE.INTRA.VDW.0>
-3.15072

>  <SCORE.INTRA.norm>
-0.0589723

>  <SCORE.RESTR>
0

>  <SCORE.RESTR.CAVITY>
0

>  <SCORE.RESTR.norm>
0

>  <SCORE.SYSTEM>
0

>  <SCORE.SYSTEM.CONST>
0

>  <SCORE.SYSTEM.DIHEDRAL>
0

>  <SCORE.SYSTEM.SOLV>
0

>  <SCORE.SYSTEM.norm>
0

>  <SCORE.heavy>
26

>  <SCORE.norm>
-0.480827

>  <RMSD>
25.786

$$$$
ligand
 OpenBabel11021811473D
libRbt.so/2013.1/901 2013/11/27
 26 27  0  0  0  0  0  0  0  0999 V2000
  -21.6915    6.0476   19.0809 C   0  0  0  0  0  0  0  0  0  0  0  0
  -25.4691    5.7413   15.6719 C   0  0  0  0  0  0  0  0  0  0  0  0
  -24.6179    6.8251   15.8603 C   0  0  0  0  0  0  0  0  0  0  0  0
  -23.5541    6.8779   16.9595 C   0  0  0  0  0  0  0  0  0  0  0  0
  -21.6116    5.5316   17.6411 C   0  0  1  0  0  0  0  0  0  0  0  0
  -27.4346    6.9155   12.6238 C   0  0  0  0  0  0  0  0  0  0  0  0
  -26.4407    6.8823   13.7858 C   0  0  0  0  0  0  0  0  0  0  0  0
  -24.7300    7.9022   14.9870 C   0  0  0  0  0  0  0  0  0  0  0  0
  -22.3197    5.3848   15.4824 C   0  0  0  0  0  0  0  0  0  0  0  0
  -20.6469    4.6165   17.2371 C   0  0  2  0  0  0  0  0  0  0  0  0
  -19.5234    3.9318   18.0197 C   0  0  0  0  0  0  0  0  0  0  0  0
  -18.1344    4.2245   17.4478 C   0  0  0  0  0  0  0  0  0  0  0  0
  -26.3934    5.7615   14.6254 N   0  0  0  0  0  0  0  0  0  0  0  0
  -22.4721    5.9185   16.6952 N   0  0  0  0  0  0  0  0  0  0  0  0
  -25.6072    7.9103   14.0005 N   0  0  0  0  0  0  0  0  0  0  0  0
  -25.4089    4.7651   16.4197 O   0  0  0  0  0  0  0  0  0  0  0  0
  -15.5944    3.2030   15.7755 O   0  5  0  0  0  0  0  0  0  0  0  0
  -17.9549    4.1798   11.3864 O   0  0  0  0  0  0  0  0  0  0  0  0
  -18.0531    3.8958   16.0574 O   0  0  0  0  0  0  0  0  0  0  0  0
  -17.0047    3.6670   13.7054 O   0  0  0  0  0  0  0  0  0  0  0  0
  -19.4673    3.0817   13.1749 O   0  5  0  0  0  0  0  0  0  0  0  0
  -16.3310    5.6213   15.2362 O   0  0  0  0  0  0  0  0  0  0  0  0
  -18.7334    5.5288   13.4224 O   0  0  0  0  0  0  0  0  0  0  0  0
  -20.9091    4.3610   15.5344 S   0  0  0  0  0  0  0  0  0  0  0  0
  -16.7239    4.1939   15.1985 P   0  0  2  0  0  0  0  0  0  0  0  0
  -18.3657    4.0408   12.9365 P   0  0  2  0  0  0  0  0  0  0  0  0
  2 16  2  0  0  0  0
  2  3  1  0  0  0  0
  2 13  1  0  0  0  0
  3  8  2  0  0  0  0
  3  4  1  0  0  0  0
  4 14  1  0  0  0  0
  5  1  1  1  0  0  0
  5 14  1  0  0  0  0
  5 10  1  0  0  0  0
  6  7  1  0  0  0  0
  7 13  1  0  0  0  0
  7 15  2  0  0  0  0
  8 15  1  0  0  0  0
  9 14  1  0  0  0  0
  9 24  1  0  0  0  0
 10 24  1  0  0  0  0
 10 11  1  6  0  0  0
 11 12  1  0  0  0  0
 12 19  1  0  0  0  0
 17 25  1  0  0  0  0
 19 25  1  0  0  0  0
 20 26  1  0  0  0  0
 21 26  1  0  0  0  0
 22 25  2  0  0  0  0
 23 26  2  0  0  0  0
 25 20  1  6  0  0  0
 26 18  1  6  0  0  0
M  CHG  2  17  -1  21  -1
M  END
>  <CHROM.1>
68.93585884,-120.91811440,-54.50675478,-162.98921522,176.23232085,159.87780960
67.76838368,145.98946323,-20.85913856,5.07598820,15.20123713,-3.09499516
0.29168044,-1.59411104

>  <Name>
ligand

>  <RI>
0

>  <Rbt.Current_Directory>
/home/itssahil/PROJECTS/Mol_Feturizer/New_Systems/rnas/3D2X

>  <Rbt.Executable>
rbdock ($Id: //depot/dev/client3/rdock/2013.1/src/exe/rbdock.cxx#4 $)

>  <Rbt.Library>
libRbt.so (2013.1, Build901 2013/11/27)

>  <Rbt.Parameter_File>
/export/apps/rDock/src/rDock_2013.1_src/data/scripts/dock_solv.prm

>  <Rbt.Receptor>
prm/blind_docking_80.prm

>  <SCORE>
-11.4031

>  <SCORE.INTER>
-9.98032

>  <SCORE.INTER.CONST>
1

>  <SCORE.INTER.POLAR>
0

>  <SCORE.INTER.ROT>
8

>  <SCORE.INTER.SOLV>
23.9568

>  <SCORE.INTER.VDW>
-23.5725

>  <SCORE.INTER.norm>
-0.383858

>  <SCORE.INTRA>
-1.43602

>  <SCORE.INTRA.DIHEDRAL>
-0.918552

>  <SCORE.INTRA.DIHEDRAL.0>
7.88077

>  <SCORE.INTRA.POLAR>
0

>  <SCORE.INTRA.POLAR.0>
0

>  <SCORE.INTRA.REPUL>
0

>  <SCORE.INTRA.REPUL.0>
0

>  <SCORE.INTRA.SOLV>
0.159488

>  <SCORE.INTRA.SOLV.lig_0>
-63.2542

>  <SCORE.INTRA.VDW>
-1.05649

>  <SCORE.INTRA.VDW.0>
-3.15072

>  <SCORE.INTRA.norm>
-0.0552315

>  <SCORE.RESTR>
0.0132227

>  <SCORE.RESTR.CAVITY>
0.0132227

>  <SCORE.RESTR.norm>
0.000508567

>  <SCORE.SYSTEM>
0

>  <SCORE.SYSTEM.CONST>
0

>  <SCORE.SYSTEM.DIHEDRAL>
0

>  <SCORE.SYSTEM.SOLV>
0

>  <SCORE.SYSTEM.norm>
0

>  <SCORE.heavy>
26

>  <SCORE.norm>
-0.438581

>  <RMSD>
25.920

$$$$
ligand
 OpenBabel11021811473D
libRbt.so/2013.1/901 2013/11/27
 26 27  0  0  0  0  0  0  0  0999 V2000
  -21.1241    3.9342   14.9950 C   0  0  0  0  0  0  0  0  0  0  0  0
  -17.9622    4.8991   15.7017 C   0  0  0  0  0  0  0  0  0  0  0  0
  -18.0297    4.7710   14.3183 C   0  0  0  0  0  0  0  0  0  0  0  0
  -19.1105    5.4373   13.4636 C   0  0  0  0  0  0  0  0  0  0  0  0
  -20.8857    3.7350   13.4953 C   0  0  1  0  0  0  0  0  0  0  0  0
  -14.8194    2.8721   16.4409 C   0  0  0  0  0  0  0  0  0  0  0  0
  -15.9721    3.5417   15.6913 C   0  0  0  0  0  0  0  0  0  0  0  0
  -17.0480    4.0159   13.6845 C   0  0  0  0  0  0  0  0  0  0  0  0
  -19.8663    4.1912   11.5114 C   0  0  0  0  0  0  0  0  0  0  0  0
  -21.6215    2.8256   12.7450 C   0  0  2  0  0  0  0  0  0  0  0  0
  -22.7548    1.8780   13.1467 C   0  0  0  0  0  0  0  0  0  0  0  0
  -24.1405    2.5117   13.0037 C   0  0  0  0  0  0  0  0  0  0  0  0
  -16.9252    4.2815   16.4038 N   0  0  0  0  0  0  0  0  0  0  0  0
  -19.9691    4.4331   12.8191 N   0  0  0  0  0  0  0  0  0  0  0  0
  -16.0718    3.4367   14.3583 N   0  0  0  0  0  0  0  0  0  0  0  0
  -18.8087    5.5561   16.3080 O   0  0  0  0  0  0  0  0  0  0  0  0
  -23.8295    5.9732   14.7359 O   0  5  0  0  0  0  0  0  0  0  0  0
  -21.2578    6.6925   11.3463 O   0  0  0  0  0  0  0  0  0  0  0  0
  -24.3313    3.5847   13.9311 O   0  0  0  0  0  0  0  0  0  0  0  0
  -23.1009    5.2654   12.3997 O   0  0  0  0  0  0  0  0  0  0  0  0
  -23.6593    6.7942   10.3899 O   0  5  0  0  0  0  0  0  0  0  0  0
  -25.6055    5.5683   12.9019 O   0  0  0  0  0  0  0  0  0  0  0  0
  -23.1358    7.8048   12.6905 O   0  0  0  0  0  0  0  0  0  0  0  0
  -20.9813    2.9067   11.1274 S   0  0  0  0  0  0  0  0  0  0  0  0
  -24.3059    5.1229   13.4551 P   0  0  2  0  0  0  0  0  0  0  0  0
  -22.8439    6.6449   11.6160 P   0  0  2  0  0  0  0  0  0  0  0  0
  2 16  2  0  0  0  0
  2  3  1  0  0  0  0
  2 13  1  0  0  0  0
  3  8  2  0  0  0  0
  3  4  1  0  0  0  0
  4 14  1  0  0  0  0
  5  1  1  6  0  0  0
  5 14  1  0  0  0  0
  5 10  1  0  0  0  0
  6  7  1  0  0  0  0
  7 13  1  0  0  0  0
  7 15  2  0  0  0  0
  8 15  1  0  0  0  0
  9 14  1  0  0  0  0
  9 24  1  0  0  0  0
 10 24  1  0  0  0  0
 10 11  1  1  0  0  0
 11 12  1  0  0  0  0
 12 19  1  0  0  0  0
 17 25  1  0  0  0  0
 19 25  1  0  0  0  0
 20 26  1  0  0  0  0
 21 26  1  0  0  0  0
 22 25  2  0  0  0  0
 23 26  2  0  0  0  0
 25 20  1  6  0  0  0
 26 18  1  6  0  0  0
M  CHG  2  17  -1  21  -1
M  END
>  <CHROM.1>
-115.00793030,90.29912328,-66.59541057,73.89571256,105.76091954,-72.90315968
-152.78274236,149.85999767,-21.07991239,4.66369829,13.35880401,0.26044397
0.34313098,2.97241100

>  <Name>
ligand

>  <RI>
0

>  <Rbt.Current_Directory>
/home/itssahil/PROJECTS/Mol_Feturizer/New_Systems/rnas/3D2X

>  <Rbt.Executable>
rbdock ($Id: //depot/dev/client3/rdock/2013.1/src/exe/rbdock.cxx#4 $)

>  <Rbt.Library>
libRbt.so (2013.1, Build901 2013/11/27)

>  <Rbt.Parameter_File>
/export/apps/rDock/src/rDock_2013.1_src/data/scripts/dock_solv.prm

>  <Rbt.Receptor>
prm/blind_docking_60.prm

>  <SCORE>
-12.7277

>  <SCORE.INTER>
-12.7762

>  <SCORE.INTER.CONST>
1

>  <SCORE.INTER.POLAR>
0

>  <SCORE.INTER.ROT>
8

>  <SCORE.INTER.SOLV>
13.9432

>  <SCORE.INTER.VDW>
-22.0985

>  <SCORE.INTER.norm>
-0.491393

>  <SCORE.INTRA>
-0.0521907

>  <SCORE.INTRA.DIHEDRAL>
5.32002

>  <SCORE.INTRA.DIHEDRAL.0>
7.88077

>  <SCORE.INTRA.POLAR>
0

>  <SCORE.INTRA.POLAR.0>
0

>  <SCORE.INTRA.REPUL>
0

>  <SCORE.INTRA.REPUL.0>
0

>  <SCORE.INTRA.SOLV>
2.28357

>  <SCORE.INTRA.SOLV.lig_0>
-63.2542

>  <SCORE.INTRA.VDW>
-3.85399

>  <SCORE.INTRA.VDW.0>
-3.15072

>  <SCORE.INTRA.norm>
-0.00200734

>  <SCORE.RESTR>
0.10066

>  <SCORE.RESTR.CAVITY>
0.10066

>  <SCORE.RESTR.norm>
0.00387153

>  <SCORE.SYSTEM>
0

>  <SCORE.SYSTEM.CONST>
0

>  <SCORE.SYSTEM.DIHEDRAL>
0

>  <SCORE.SYSTEM.SOLV>
0

>  <SCORE.SYSTEM.norm>
0

>  <SCORE.heavy>
26

>  <SCORE.norm>
-0.489528

>  <RMSD>
25.927

$$$$
ligand
 OpenBabel11021811473D
libRbt.so/2013.1/901 2013/11/27
 26 27  0  0  0  0  0  0  0  0999 V2000
  -18.5256    5.2583   16.9032 C   0  0  0  0  0  0  0  0  0  0  0  0
  -23.2184    6.1375   17.4649 C   0  0  0  0  0  0  0  0  0  0  0  0
  -21.9753    6.1340   18.0889 C   0  0  0  0  0  0  0  0  0  0  0  0
  -21.1163    4.8770   18.2454 C   0  0  0  0  0  0  0  0  0  0  0  0
  -19.6671    4.4276   16.3094 C   0  0  1  0  0  0  0  0  0  0  0  0
  -24.1118    9.8359   17.7029 C   0  0  0  0  0  0  0  0  0  0  0  0
  -23.3604    8.5117   17.8475 C   0  0  0  0  0  0  0  0  0  0  0  0
  -21.4849    7.3428   18.5726 C   0  0  0  0  0  0  0  0  0  0  0  0
  -21.7457    3.4994   16.3372 C   0  0  0  0  0  0  0  0  0  0  0  0
  -19.5503    3.7811   15.0848 C   0  0  2  0  0  0  0  0  0  0  0  0
  -18.3850    3.7106   14.0946 C   0  0  0  0  0  0  0  0  0  0  0  0
  -18.8426    3.4982   12.6496 C   0  0  0  0  0  0  0  0  0  0  0  0
  -23.9253    7.3350   17.3380 N   0  0  0  0  0  0  0  0  0  0  0  0
  -20.8335    4.2635   16.9397 N   0  0  0  0  0  0  0  0  0  0  0  0
  -22.1616    8.4691   18.4466 N   0  0  0  0  0  0  0  0  0  0  0  0
  -23.6954    5.0926   17.0217 O   0  0  0  0  0  0  0  0  0  0  0  0
  -18.8449    3.3759    9.5658 O   0  5  0  0  0  0  0  0  0  0  0  0
  -20.1646    7.0731   11.7529 O   0  0  0  0  0  0  0  0  0  0  0  0
  -18.4375    4.5769   11.8010 O   0  0  0  0  0  0  0  0  0  0  0  0
  -20.6601    4.8884   10.5179 O   0  0  0  0  0  0  0  0  0  0  0  0
  -22.5976    6.5064   11.0807 O   0  5  0  0  0  0  0  0  0  0  0  0
  -18.4902    5.9358    9.6175 O   0  0  0  0  0  0  0  0  0  0  0  0
  -21.4239    5.1818   12.9398 O   0  0  0  0  0  0  0  0  0  0  0  0
  -21.0867    3.0128   14.7979 S   0  0  0  0  0  0  0  0  0  0  0  0
  -19.0670    4.7738   10.3319 P   0  0  2  0  0  0  0  0  0  0  0  0
  -21.3016    5.9548   11.5352 P   0  0  2  0  0  0  0  0  0  0  0  0
  2 16  2  0  0  0  0
  2  3  1  0  0  0  0
  2 13  1  0  0  0  0
  3  8  2  0  0  0  0
  3  4  1  0  0  0  0
  4 14  1  0  0  0  0
  5  1  1  1  0  0  0
  5 14  1  0  0  0  0
  5 10  1  0  0  0  0
  6  7  1  0  0  0  0
  7 13  1  0  0  0  0
  7 15  2  0  0  0  0
  8 15  1  0  0  0  0
  9 14  1  0  0  0  0
  9 24  1  0  0  0  0
 10 24  1  0  0  0  0
 10 11  1  6  0  0  0
 11 12  1  0  0  0  0
 12 19  1  0  0  0  0
 17 25  1  0  0  0  0
 19 25  1  0  0  0  0
 20 26  1  0  0  0  0
 21 26  1  0  0  0  0
 22 25  2  0  0  0  0
 23 26  2  0  0  0  0
 25 20  1  1  0  0  0
 26 18  1  1  0  0  0
M  CHG  2  17  -1  21  -1
M  END
>  <CHROM.1>
57.11038679,-152.34014077,119.40439697,100.83390022,-165.74505882,165.35549610
-54.46620754,21.00492678,-20.85849664,5.39430929,14.24878394,-2.23646552
0.89465959,-1.30430969

>  <Name>
ligand

>  <RI>
0

>  <Rbt.Current_Directory>
/home/itssahil/PROJECTS/Mol_Feturizer/New_Systems/rnas/3D2X

>  <Rbt.Executable>
rbdock ($Id: //depot/dev/client3/rdock/2013.1/src/exe/rbdock.cxx#4 $)

>  <Rbt.Library>
libRbt.so (2013.1, Build901 2013/11/27)

>  <Rbt.Parameter_File>
/export/apps/rDock/src/rDock_2013.1_src/data/scripts/dock_solv.prm

>  <Rbt.Receptor>
prm/blind_docking_80.prm

>  <SCORE>
-8.6112

>  <SCORE.INTER>
-10.6731

>  <SCORE.INTER.CONST>
1

>  <SCORE.INTER.POLAR>
0

>  <SCORE.INTER.ROT>
8

>  <SCORE.INTER.SOLV>
18.4869

>  <SCORE.INTER.VDW>
-22.2111

>  <SCORE.INTER.norm>
-0.410506

>  <SCORE.INTRA>
2.05873

>  <SCORE.INTRA.DIHEDRAL>
5.19431

>  <SCORE.INTRA.DIHEDRAL.0>
7.88077

>  <SCORE.INTRA.POLAR>
0

>  <SCORE.INTRA.POLAR.0>
0

>  <SCORE.INTRA.REPUL>
0

>  <SCORE.INTRA.REPUL.0>
0

>  <SCORE.INTRA.SOLV>
-0.392115

>  <SCORE.INTRA.SOLV.lig_0>
-63.2542

>  <SCORE.INTRA.VDW>
-0.342373

>  <SCORE.INTRA.VDW.0>
-3.15072

>  <SCORE.INTRA.norm>
0.0791818

>  <SCORE.RESTR>
0.00321698

>  <SCORE.RESTR.CAVITY>
0.00321698

>  <SCORE.RESTR.norm>
0.00012373

>  <SCORE.SYSTEM>
0

>  <SCORE.SYSTEM.CONST>
0

>  <SCORE.SYSTEM.DIHEDRAL>
0

>  <SCORE.SYSTEM.SOLV>
0

>  <SCORE.SYSTEM.norm>
0

>  <SCORE.heavy>
26

>  <SCORE.norm>
-0.3312

>  <RMSD>
25.991

$$$$
ligand
 OpenBabel11021811473D
libRbt.so/2013.1/901 2013/11/27
 26 27  0  0  0  0  0  0  0  0999 V2000
  -21.7025    5.6105   11.6137 C   0  0  0  0  0  0  0  0  0  0  0  0
  -25.6274    7.4079   14.5899 C   0  0  0  0  0  0  0  0  0  0  0  0
  -24.4381    6.7043   14.4305 C   0  0  0  0  0  0  0  0  0  0  0  0
  -24.1528    5.7954   13.2325 C   0  0  0  0  0  0  0  0  0  0  0  0
  -21.9817    4.7140   12.8237 C   0  0  1  0  0  0  0  0  0  0  0  0
  -24.9139    9.2622   17.8434 C   0  0  0  0  0  0  0  0  0  0  0  0
  -24.7547    8.3435   16.6311 C   0  0  0  0  0  0  0  0  0  0  0  0
  -23.4542    6.8577   15.4020 C   0  0  0  0  0  0  0  0  0  0  0  0
  -23.2236    4.0014   14.5937 C   0  0  0  0  0  0  0  0  0  0  0  0
  -21.0795    3.7466   13.2499 C   0  0  2  0  0  0  0  0  0  0  0  0
  -19.7049    3.3480   12.7067 C   0  0  0  0  0  0  0  0  0  0  0  0
  -18.7517    4.5371   12.5664 C   0  0  0  0  0  0  0  0  0  0  0  0
  -25.7958    8.2393   15.6991 N   0  0  0  0  0  0  0  0  0  0  0  0
  -23.0995    4.8196   13.5478 N   0  0  0  0  0  0  0  0  0  0  0  0
  -23.6240    7.6469   16.4465 N   0  0  0  0  0  0  0  0  0  0  0  0
  -26.5286    7.3039   13.7576 O   0  0  0  0  0  0  0  0  0  0  0  0
  -19.1125    3.7407   15.7502 O   0  5  0  0  0  0  0  0  0  0  0  0
  -17.0366    2.2887   16.7151 O   0  0  0  0  0  0  0  0  0  0  0  0
  -18.6982    5.3183   13.7642 O   0  0  0  0  0  0  0  0  0  0  0  0
  -16.8090    3.8002   14.6639 O   0  0  0  0  0  0  0  0  0  0  0  0
  -14.9912    2.0268   15.1531 O   0  5  0  0  0  0  0  0  0  0  0  0
  -17.6074    5.8224   16.0387 O   0  0  0  0  0  0  0  0  0  0  0  0
  -15.2246    4.1007   16.6474 O   0  0  0  0  0  0  0  0  0  0  0  0
  -21.8293    2.9542   14.6075 S   0  0  0  0  0  0  0  0  0  0  0  0
  -18.0294    4.7463   15.1128 P   0  0  2  0  0  0  0  0  0  0  0  0
  -15.9514    2.9821   15.7496 P   0  0  2  0  0  0  0  0  0  0  0  0
  2 16  2  0  0  0  0
  2  3  1  0  0  0  0
  2 13  1  0  0  0  0
  3  8  2  0  0  0  0
  3  4  1  0  0  0  0
  4 14  1  0  0  0  0
  5  1  1  1  0  0  0
  5 14  1  0  0  0  0
  5 10  1  0  0  0  0
  6  7  1  0  0  0  0
  7 13  1  0  0  0  0
  7 15  2  0  0  0  0
  8 15  1  0  0  0  0
  9 14  1  0  0  0  0
  9 24  1  0  0  0  0
 10 24  1  0  0  0  0
 10 11  1  6  0  0  0
 11 12  1  0  0  0  0
 12 19  1  0  0  0  0
 17 25  1  0  0  0  0
 19 25  1  0  0  0  0
 20 26  1  0  0  0  0
 21 26  1  0  0  0  0
 22 25  2  0  0  0  0
 23 26  2  0  0  0  0
 25 20  1  6  0  0  0
 26 18  1  1  0  0  0
M  CHG  2  17  -1  21  -1
M  END
>  <CHROM.1>
-158.65131807,52.87824997,49.99084116,-123.45881644,68.68986851,-64.46032668
-77.46658374,47.11883360,-20.60618593,4.97747085,14.82162414,2.92569028,-0.37910307
0.93686894

>  <Name>
ligand

>  <RI>
0

>  <Rbt.Current_Directory>
/home/itssahil/PROJECTS/Mol_Feturizer/New_Systems/rnas/3D2X

>  <Rbt.Executable>
rbdock ($Id: //depot/dev/client3/rdock/2013.1/src/exe/rbdock.cxx#4 $)

>  <Rbt.Library>
libRbt.so (2013.1, Build901 2013/11/27)

>  <Rbt.Parameter_File>
/export/apps/rDock/src/rDock_2013.1_src/data/scripts/dock_solv.prm

>  <Rbt.Receptor>
prm/blind_docking_40.prm

>  <SCORE>
-9.7365

>  <SCORE.INTER>
-8.78683

>  <SCORE.INTER.CONST>
1

>  <SCORE.INTER.POLAR>
0

>  <SCORE.INTER.ROT>
8

>  <SCORE.INTER.SOLV>
19.1827

>  <SCORE.INTER.VDW>
-21.1855

>  <SCORE.INTER.norm>
-0.337955

>  <SCORE.INTRA>
-0.949668

>  <SCORE.INTRA.DIHEDRAL>
-1.76685

>  <SCORE.INTRA.DIHEDRAL.0>
7.88077

>  <SCORE.INTRA.POLAR>
0

>  <SCORE.INTRA.POLAR.0>
0

>  <SCORE.INTRA.REPUL>
0

>  <SCORE.INTRA.REPUL.0>
0

>  <SCORE.INTRA.SOLV>
0.360336

>  <SCORE.INTRA.SOLV.lig_0>
-63.2542

>  <SCORE.INTRA.VDW>
-0.246409

>  <SCORE.INTRA.VDW.0>
-3.15072

>  <SCORE.INTRA.norm>
-0.0365257

>  <SCORE.RESTR>
0

>  <SCORE.RESTR.CAVITY>
0

>  <SCORE.RESTR.norm>
0

>  <SCORE.SYSTEM>
0

>  <SCORE.SYSTEM.CONST>
0

>  <SCORE.SYSTEM.DIHEDRAL>
0

>  <SCORE.SYSTEM.SOLV>
0

>  <SCORE.SYSTEM.norm>
0

>  <SCORE.heavy>
26

>  <SCORE.norm>
-0.374481

>  <RMSD>
26.047

$$$$
ligand
 OpenBabel11021811473D
libRbt.so/2013.1/901 2013/11/27
 26 27  0  0  0  0  0  0  0  0999 V2000
  -21.3883    3.9030   16.7264 C   0  0  0  0  0  0  0  0  0  0  0  0
  -16.5060    4.7265   15.7360 C   0  0  0  0  0  0  0  0  0  0  0  0
  -17.8267    4.3288   15.9161 C   0  0  0  0  0  0  0  0  0  0  0  0
  -19.0265    5.2060   15.5504 C   0  0  0  0  0  0  0  0  0  0  0  0
  -21.0629    3.8640   15.2303 C   0  0  1  0  0  0  0  0  0  0  0  0
  -14.6661    1.6110   16.9364 C   0  0  0  0  0  0  0  0  0  0  0  0
  -15.7879    2.5881   16.5816 C   0  0  0  0  0  0  0  0  0  0  0  0
  -18.0607    3.0591   16.4343 C   0  0  0  0  0  0  0  0  0  0  0  0
  -19.8181    4.3865   13.3971 C   0  0  0  0  0  0  0  0  0  0  0  0
  -21.8780    3.2101   14.3141 C   0  0  2  0  0  0  0  0  0  0  0  0
  -23.1861    2.4386   14.5067 C   0  0  0  0  0  0  0  0  0  0  0  0
  -24.3795    3.1083   13.8216 C   0  0  0  0  0  0  0  0  0  0  0  0
  -15.4690    3.8527   16.0692 N   0  0  0  0  0  0  0  0  0  0  0  0
  -19.9872    4.4680   14.7176 N   0  0  0  0  0  0  0  0  0  0  0  0
  -17.0725    2.2410   16.7455 N   0  0  0  0  0  0  0  0  0  0  0  0
  -16.2480    5.8413   15.2817 O   0  0  0  0  0  0  0  0  0  0  0  0
  -22.8624    5.7149   14.3302 O   0  5  0  0  0  0  0  0  0  0  0  0
  -27.4247    5.7073   12.8523 O   0  0  0  0  0  0  0  0  0  0  0  0
  -24.9071    4.1827   14.6059 O   0  0  0  0  0  0  0  0  0  0  0  0
  -24.8912    6.0604   12.8289 O   0  0  0  0  0  0  0  0  0  0  0  0
  -26.4603    8.0819   13.2032 O   0  5  0  0  0  0  0  0  0  0  0  0
  -25.0572    6.6471   15.3279 O   0  0  0  0  0  0  0  0  0  0  0  0
  -26.3174    6.9510   10.9035 O   0  0  0  0  0  0  0  0  0  0  0  0
  -21.1002    3.3873   12.7659 S   0  0  0  0  0  0  0  0  0  0  0  0
  -24.4718    5.7104   14.3414 P   0  0  2  0  0  0  0  0  0  0  0  0
  -26.2859    6.7898   12.5029 P   0  0  2  0  0  0  0  0  0  0  0  0
  2 16  2  0  0  0  0
  2  3  1  0  0  0  0
  2 13  1  0  0  0  0
  3  8  2  0  0  0  0
  3  4  1  0  0  0  0
  4 14  1  0  0  0  0
  5  1  1  6  0  0  0
  5 14  1  0  0  0  0
  5 10  1  0  0  0  0
  6  7  1  0  0  0  0
  7 13  1  0  0  0  0
  7 15  2  0  0  0  0
  8 15  1  0  0  0  0
  9 14  1  0  0  0  0
  9 24  1  0  0  0  0
 10 24  1  0  0  0  0
 10 11  1  1  0  0  0
 11 12  1  0  0  0  0
 12 19  1  0  0  0  0
 17 25  1  0  0  0  0
 19 25  1  0  0  0  0
 20 26  1  0  0  0  0
 21 26  1  0  0  0  0
 22 25  2  0  0  0  0
 23 26  2  0  0  0  0
 25 20  1  6  0  0  0
 26 18  1  1  0  0  0
M  CHG  2  17  -1  21  -1
M  END
>  <CHROM.1>
129.21879798,114.75809751,-80.66549174,96.38193476,96.10225952,-152.36923818
-51.21408458,-68.51601368,-21.74858308,4.70825937,14.44349059,0.34558816
0.24678811,2.91823125

>  <Name>
ligand

>  <RI>
0

>  <Rbt.Current_Directory>
/home/itssahil/PROJECTS/Mol_Feturizer/New_Systems/rnas/3D2X

>  <Rbt.Executable>
rbdock ($Id: //depot/dev/client3/rdock/2013.1/src/exe/rbdock.cxx#4 $)

>  <Rbt.Library>
libRbt.so (2013.1, Build901 2013/11/27)

>  <Rbt.Parameter_File>
/export/apps/rDock/src/rDock_2013.1_src/data/scripts/dock_solv.prm

>  <Rbt.Receptor>
prm/blind_docking_40.prm

>  <SCORE>
-6.9925

>  <SCORE.INTER>
-8.63978

>  <SCORE.INTER.CONST>
1

>  <SCORE.INTER.POLAR>
0

>  <SCORE.INTER.ROT>
8

>  <SCORE.INTER.SOLV>
10.0669

>  <SCORE.INTER.VDW>
-18.0488

>  <SCORE.INTER.norm>
-0.332299

>  <SCORE.INTRA>
1.64728

>  <SCORE.INTRA.DIHEDRAL>
4.91557

>  <SCORE.INTRA.DIHEDRAL.0>
7.88077

>  <SCORE.INTRA.POLAR>
0

>  <SCORE.INTRA.POLAR.0>
0

>  <SCORE.INTRA.REPUL>
0

>  <SCORE.INTRA.REPUL.0>
0

>  <SCORE.INTRA.SOLV>
1.29662

>  <SCORE.INTRA.SOLV.lig_0>
-63.2542

>  <SCORE.INTRA.VDW>
-1.45881

>  <SCORE.INTRA.VDW.0>
-3.15072

>  <SCORE.INTRA.norm>
0.0633571

>  <SCORE.RESTR>
0

>  <SCORE.RESTR.CAVITY>
0

>  <SCORE.RESTR.norm>
0

>  <SCORE.SYSTEM>
0

>  <SCORE.SYSTEM.CONST>
0

>  <SCORE.SYSTEM.DIHEDRAL>
0

>  <SCORE.SYSTEM.SOLV>
0

>  <SCORE.SYSTEM.norm>
0

>  <SCORE.heavy>
26

>  <SCORE.norm>
-0.268942

>  <RMSD>
26.066

$$$$
ligand
 OpenBabel11021811473D
libRbt.so/2013.1/901 2013/11/27
 26 27  0  0  0  0  0  0  0  0999 V2000
  -21.8784    4.2091   17.6094 C   0  0  0  0  0  0  0  0  0  0  0  0
  -17.1130    4.8475   15.5605 C   0  0  0  0  0  0  0  0  0  0  0  0
  -18.3204    4.3774   16.0666 C   0  0  0  0  0  0  0  0  0  0  0  0
  -19.6388    5.1454   15.9460 C   0  0  0  0  0  0  0  0  0  0  0  0
  -21.7222    3.8505   16.1286 C   0  0  1  0  0  0  0  0  0  0  0  0
  -14.8012    1.9532   16.4611 C   0  0  0  0  0  0  0  0  0  0  0  0
  -16.0495    2.8266   16.3275 C   0  0  0  0  0  0  0  0  0  0  0  0
  -18.3257    3.1350   16.6926 C   0  0  0  0  0  0  0  0  0  0  0  0
  -20.6798    3.9343   14.1063 C   0  0  0  0  0  0  0  0  0  0  0  0
  -22.6458    3.0563   15.4597 C   0  0  2  0  0  0  0  0  0  0  0  0
  -23.9381    2.3948   15.9453 C   0  0  0  0  0  0  0  0  0  0  0  0
  -25.0464    3.4050   16.2511 C   0  0  0  0  0  0  0  0  0  0  0  0
  -15.9602    4.0699   15.6875 N   0  0  0  0  0  0  0  0  0  0  0  0
  -20.6994    4.2920   15.3911 N   0  0  0  0  0  0  0  0  0  0  0  0
  -17.2298    2.4081   16.8066 N   0  0  0  0  0  0  0  0  0  0  0  0
  -17.0573    5.9419   14.9992 O   0  0  0  0  0  0  0  0  0  0  0  0
  -24.1052    4.7789   13.6680 O   0  5  0  0  0  0  0  0  0  0  0  0
  -25.7281    7.0324   12.4238 O   0  0  0  0  0  0  0  0  0  0  0  0
  -24.5664    4.7519   16.1961 O   0  0  0  0  0  0  0  0  0  0  0  0
  -26.3025    5.7234   14.5452 O   0  0  0  0  0  0  0  0  0  0  0  0
  -27.0887    4.8395   12.2454 O   0  5  0  0  0  0  0  0  0  0  0  0
  -24.1114    6.9885   15.0095 O   0  0  0  0  0  0  0  0  0  0  0  0
  -28.1481    6.9435   13.2646 O   0  0  0  0  0  0  0  0  0  0  0  0
  -22.0421    2.8799   13.8357 S   0  0  0  0  0  0  0  0  0  0  0  0
  -24.7291    5.6498   14.8692 P   0  0  2  0  0  0  0  0  0  0  0  0
  -26.8292    6.0466   13.0614 P   0  0  2  0  0  0  0  0  0  0  0  0
  2 16  2  0  0  0  0
  2  3  1  0  0  0  0
  2 13  1  0  0  0  0
  3  8  2  0  0  0  0
  3  4  1  0  0  0  0
  4 14  1  0  0  0  0
  5  1  1  6  0  0  0
  5 14  1  0  0  0  0
  5 10  1  0  0  0  0
  6  7  1  0  0  0  0
  7 13  1  0  0  0  0
  7 15  2  0  0  0  0
  8 15  1  0  0  0  0
  9 14  1  0  0  0  0
  9 24  1  0  0  0  0
 10 24  1  0  0  0  0
 10 11  1  1  0  0  0
 11 12  1  0  0  0  0
 12 19  1  0  0  0  0
 17 25  1  0  0  0  0
 19 25  1  0  0  0  0
 20 26  1  0  0  0  0
 21 26  1  0  0  0  0
 22 25  2  0  0  0  0
 23 26  2  0  0  0  0
 25 20  1  6  0  0  0
 26 18  1  6  0  0  0
M  CHG  2  17  -1  21  -1
M  END
>  <CHROM.1>
128.69160041,69.17279540,-8.28197138,109.07044883,96.00660302,-45.19184866
-52.96880331,-32.34477952,-22.23878487,4.55974671,14.96681695,0.33146477
0.08123741,2.56103637

>  <Name>
ligand

>  <RI>
0

>  <Rbt.Current_Directory>
/home/itssahil/PROJECTS/Mol_Feturizer/New_Systems/rnas/3D2X

>  <Rbt.Executable>
rbdock ($Id: //depot/dev/client3/rdock/2013.1/src/exe/rbdock.cxx#4 $)

>  <Rbt.Library>
libRbt.so (2013.1, Build901 2013/11/27)

>  <Rbt.Parameter_File>
/export/apps/rDock/src/rDock_2013.1_src/data/scripts/dock_solv.prm

>  <Rbt.Receptor>
prm/blind_docking_80.prm

>  <SCORE>
-3.10561

>  <SCORE.INTER>
-6.82723

>  <SCORE.INTER.CONST>
1

>  <SCORE.INTER.POLAR>
0

>  <SCORE.INTER.ROT>
8

>  <SCORE.INTER.SOLV>
17.087

>  <SCORE.INTER.VDW>
-19.1805

>  <SCORE.INTER.norm>
-0.262586

>  <SCORE.INTRA>
3.71211

>  <SCORE.INTRA.DIHEDRAL>
8.66087

>  <SCORE.INTRA.DIHEDRAL.0>
7.88077

>  <SCORE.INTRA.POLAR>
0

>  <SCORE.INTRA.POLAR.0>
0

>  <SCORE.INTRA.REPUL>
0

>  <SCORE.INTRA.REPUL.0>
0

>  <SCORE.INTRA.SOLV>
0.896689

>  <SCORE.INTRA.SOLV.lig_0>
-63.2542

>  <SCORE.INTRA.VDW>
-1.06667

>  <SCORE.INTRA.VDW.0>
-3.15072

>  <SCORE.INTRA.norm>
0.142773

>  <SCORE.RESTR>
0.00950899

>  <SCORE.RESTR.CAVITY>
0.00950899

>  <SCORE.RESTR.norm>
0.000365731

>  <SCORE.SYSTEM>
0

>  <SCORE.SYSTEM.CONST>
0

>  <SCORE.SYSTEM.DIHEDRAL>
0

>  <SCORE.SYSTEM.SOLV>
0

>  <SCORE.SYSTEM.norm>
0

>  <SCORE.heavy>
26

>  <SCORE.norm>
-0.119447

>  <RMSD>
26.164

$$$$
ligand
 OpenBabel11021811473D
libRbt.so/2013.1/901 2013/11/27
 26 27  0  0  0  0  0  0  0  0999 V2000
  -22.5984    3.7847   14.4817 C   0  0  0  0  0  0  0  0  0  0  0  0
  -18.2202    4.3303   17.7067 C   0  0  0  0  0  0  0  0  0  0  0  0
  -19.0854    4.5968   16.6508 C   0  0  0  0  0  0  0  0  0  0  0  0
  -20.4391    3.9040   16.4773 C   0  0  0  0  0  0  0  0  0  0  0  0
  -22.5251    4.8495   15.5801 C   0  0  1  0  0  0  0  0  0  0  0  0
  -15.3986    6.7748   16.9349 C   0  0  0  0  0  0  0  0  0  0  0  0
  -16.7058    5.9874   16.8327 C   0  0  0  0  0  0  0  0  0  0  0  0
  -18.7039    5.5596   15.7218 C   0  0  0  0  0  0  0  0  0  0  0  0
  -21.5904    5.8406   17.4041 C   0  0  0  0  0  0  0  0  0  0  0  0
  -23.4922    5.8383   15.7157 C   0  0  2  0  0  0  0  0  0  0  0  0
  -24.7647    6.1142   14.9107 C   0  0  0  0  0  0  0  0  0  0  0  0
  -24.4815    6.7464   13.5460 C   0  0  0  0  0  0  0  0  0  0  0  0
  -17.0153    5.0289   17.8069 N   0  0  0  0  0  0  0  0  0  0  0  0
  -21.5376    4.8809   16.4794 N   0  0  0  0  0  0  0  0  0  0  0  0
  -17.5625    6.2144   15.8266 N   0  0  0  0  0  0  0  0  0  0  0  0
  -18.5129    3.4858   18.5534 O   0  0  0  0  0  0  0  0  0  0  0  0
  -22.8172    8.1058   11.7216 O   0  5  0  0  0  0  0  0  0  0  0  0
  -21.1084    3.8895   10.9658 O   0  0  0  0  0  0  0  0  0  0  0  0
  -23.6687    5.8996   12.7275 O   0  0  0  0  0  0  0  0  0  0  0  0
  -21.1808    6.1878   12.0864 O   0  0  0  0  0  0  0  0  0  0  0  0
  -19.6903    5.8274   10.0039 O   0  5  0  0  0  0  0  0  0  0  0  0
  -22.9730    5.9848   10.2524 O   0  0  0  0  0  0  0  0  0  0  0  0
  -19.0686    4.7577   12.2528 O   0  0  0  0  0  0  0  0  0  0  0  0
  -22.9774    6.8355   17.0476 S   0  0  0  0  0  0  0  0  0  0  0  0
  -22.6827    6.5060   11.6080 P   0  0  2  0  0  0  0  0  0  0  0  0
  -20.2293    5.2103   11.2364 P   0  0  2  0  0  0  0  0  0  0  0  0
  2 16  2  0  0  0  0
  2  3  1  0  0  0  0
  2 13  1  0  0  0  0
  3  8  2  0  0  0  0
  3  4  1  0  0  0  0
  4 14  1  0  0  0  0
  5  1  1  1  0  0  0
  5 14  1  0  0  0  0
  5 10  1  0  0  0  0
  6  7  1  0  0  0  0
  7 13  1  0  0  0  0
  7 15  2  0  0  0  0
  8 15  1  0  0  0  0
  9 14  1  0  0  0  0
  9 24  1  0  0  0  0
 10 24  1  0  0  0  0
 10 11  1  6  0  0  0
 11 12  1  0  0  0  0
 12 19  1  0  0  0  0
 17 25  1  0  0  0  0
 19 25  1  0  0  0  0
 20 26  1  0  0  0  0
 21 26  1  0  0  0  0
 22 25  2  0  0  0  0
 23 26  2  0  0  0  0
 25 20  1  1  0  0  0
 26 18  1  6  0  0  0
M  CHG  2  17  -1  21  -1
M  END
>  <CHROM.1>
120.30154254,-75.24704034,60.41069241,134.05578370,-151.37682184,-132.55796363
2.28965698,-49.70350728,-20.91654269,5.59769257,14.33488035,2.22242789,0.14255301
-1.52535079

>  <Name>
ligand

>  <RI>
0

>  <Rbt.Current_Directory>
/home/itssahil/PROJECTS/Mol_Feturizer/New_Systems/rnas/3D2X

>  <Rbt.Executable>
rbdock ($Id: //depot/dev/client3/rdock/2013.1/src/exe/rbdock.cxx#4 $)

>  <Rbt.Library>
libRbt.so (2013.1, Build901 2013/11/27)

>  <Rbt.Parameter_File>
/export/apps/rDock/src/rDock_2013.1_src/data/scripts/dock_solv.prm

>  <Rbt.Receptor>
prm/blind_docking_60.prm

>  <SCORE>
-8.24351

>  <SCORE.INTER>
-9.64396

>  <SCORE.INTER.CONST>
1

>  <SCORE.INTER.POLAR>
0

>  <SCORE.INTER.ROT>
8

>  <SCORE.INTER.SOLV>
16.2254

>  <SCORE.INTER.VDW>
-20.7711

>  <SCORE.INTER.norm>
-0.370921

>  <SCORE.INTRA>
1.39326

>  <SCORE.INTRA.DIHEDRAL>
5.05057

>  <SCORE.INTRA.DIHEDRAL.0>
7.88077

>  <SCORE.INTRA.POLAR>
0

>  <SCORE.INTRA.POLAR.0>
0

>  <SCORE.INTRA.REPUL>
0

>  <SCORE.INTRA.REPUL.0>
0

>  <SCORE.INTRA.SOLV>
-0.940174

>  <SCORE.INTRA.SOLV.lig_0>
-63.2542

>  <SCORE.INTRA.VDW>
-0.661939

>  <SCORE.INTRA.VDW.0>
-3.15072

>  <SCORE.INTRA.norm>
0.053587

>  <SCORE.RESTR>
0.0071866

>  <SCORE.RESTR.CAVITY>
0.0071866

>  <SCORE.RESTR.norm>
0.000276408

>  <SCORE.SYSTEM>
0

>  <SCORE.SYSTEM.CONST>
0

>  <SCORE.SYSTEM.DIHEDRAL>
0

>  <SCORE.SYSTEM.SOLV>
0

>  <SCORE.SYSTEM.norm>
0

>  <SCORE.heavy>
26

>  <SCORE.norm>
-0.317058

>  <RMSD>
26.167

$$$$
ligand
 OpenBabel11021811473D
libRbt.so/2013.1/901 2013/11/27
 26 27  0  0  0  0  0  0  0  0999 V2000
  -23.9715    4.2729   16.6303 C   0  0  0  0  0  0  0  0  0  0  0  0
  -23.2164    5.8332   12.6696 C   0  0  0  0  0  0  0  0  0  0  0  0
  -24.0970    5.1323   13.4869 C   0  0  0  0  0  0  0  0  0  0  0  0
  -25.1190    5.8128   14.4008 C   0  0  0  0  0  0  0  0  0  0  0  0
  -23.9337    5.8022   16.5560 C   0  0  1  0  0  0  0  0  0  0  0  0
  -21.4115    2.9499   10.9488 C   0  0  0  0  0  0  0  0  0  0  0  0
  -22.3583    3.7331   11.8595 C   0  0  0  0  0  0  0  0  0  0  0  0
  -24.0561    3.7422   13.4491 C   0  0  0  0  0  0  0  0  0  0  0  0
  -24.3441    7.8091   15.5624 C   0  0  0  0  0  0  0  0  0  0  0  0
  -23.3378    6.5751   17.5455 C   0  0  2  0  0  0  0  0  0  0  0  0
  -22.6230    6.1731   18.8381 C   0  0  0  0  0  0  0  0  0  0  0  0
  -21.5063    5.1519   18.6091 C   0  0  0  0  0  0  0  0  0  0  0  0
  -22.3343    5.1341   11.8433 N   0  0  0  0  0  0  0  0  0  0  0  0
  -24.4565    6.4804   15.5306 N   0  0  0  0  0  0  0  0  0  0  0  0
  -23.2182    3.0915   12.6635 N   0  0  0  0  0  0  0  0  0  0  0  0
  -23.2138    7.0644   12.6689 O   0  0  0  0  0  0  0  0  0  0  0  0
  -19.8642    4.0465   15.7954 O   0  5  0  0  0  0  0  0  0  0  0  0
  -15.8025    6.3551   15.8912 O   0  0  0  0  0  0  0  0  0  0  0  0
  -20.5162    5.6435   17.7004 O   0  0  0  0  0  0  0  0  0  0  0  0
  -18.1301    5.6754   16.7059 O   0  0  0  0  0  0  0  0  0  0  0  0
  -16.1718    3.9958   16.8862 O   0  5  0  0  0  0  0  0  0  0  0  0
  -18.8952    3.7014   18.1669 O   0  0  0  0  0  0  0  0  0  0  0  0
  -17.1585    4.6068   14.5967 O   0  0  0  0  0  0  0  0  0  0  0  0
  -23.5740    8.2333   17.0683 S   0  0  0  0  0  0  0  0  0  0  0  0
  -19.3255    4.7018   17.1632 P   0  0  2  0  0  0  0  0  0  0  0  0
  -16.7717    5.0843   16.0825 P   0  0  2  0  0  0  0  0  0  0  0  0
  2 16  2  0  0  0  0
  2  3  1  0  0  0  0
  2 13  1  0  0  0  0
  3  8  2  0  0  0  0
  3  4  1  0  0  0  0
  4 14  1  0  0  0  0
  5  1  1  6  0  0  0
  5 14  1  0  0  0  0
  5 10  1  0  0  0  0
  6  7  1  0  0  0  0
  7 13  1  0  0  0  0
  7 15  2  0  0  0  0
  8 15  1  0  0  0  0
  9 14  1  0  0  0  0
  9 24  1  0  0  0  0
 10 24  1  0  0  0  0
 10 11  1  1  0  0  0
 11 12  1  0  0  0  0
 12 19  1  0  0  0  0
 17 25  1  0  0  0  0
 19 25  1  0  0  0  0
 20 26  1  0  0  0  0
 21 26  1  0  0  0  0
 22 25  2  0  0  0  0
 23 26  2  0  0  0  0
 25 20  1  6  0  0  0
 26 18  1  6  0  0  0
M  CHG  2  17  -1  21  -1
M  END
>  <CHROM.1>
-70.49076312,52.86162600,58.43772158,-73.66539316,-172.98774818,-66.73501104
91.74272790,-174.91381289,-21.15402141,5.33823111,15.58317579,2.89120899
0.24603664,-1.94678967

>  <Name>
ligand

>  <RI>
0

>  <Rbt.Current_Directory>
/home/itssahil/PROJECTS/Mol_Feturizer/New_Systems/rnas/3D2X

>  <Rbt.Executable>
rbdock ($Id: //depot/dev/client3/rdock/2013.1/src/exe/rbdock.cxx#4 $)

>  <Rbt.Library>
libRbt.so (2013.1, Build901 2013/11/27)

>  <Rbt.Parameter_File>
/export/apps/rDock/src/rDock_2013.1_src/data/scripts/dock_solv.prm

>  <Rbt.Receptor>
prm/blind_docking_80.prm

>  <SCORE>
-14.9178

>  <SCORE.INTER>
-13.8541

>  <SCORE.INTER.CONST>
1

>  <SCORE.INTER.POLAR>
0

>  <SCORE.INTER.ROT>
8

>  <SCORE.INTER.SOLV>
12.022

>  <SCORE.INTER.VDW>
-22.1768

>  <SCORE.INTER.norm>
-0.532851

>  <SCORE.INTRA>
-1.06364

>  <SCORE.INTRA.DIHEDRAL>
-1.8303

>  <SCORE.INTRA.DIHEDRAL.0>
7.88077

>  <SCORE.INTRA.POLAR>
0

>  <SCORE.INTRA.POLAR.0>
0

>  <SCORE.INTRA.REPUL>
0

>  <SCORE.INTRA.REPUL.0>
0

>  <SCORE.INTRA.SOLV>
0.97049

>  <SCORE.INTRA.SOLV.lig_0>
-63.2542

>  <SCORE.INTRA.VDW>
-0.633731

>  <SCORE.INTRA.VDW.0>
-3.15072

>  <SCORE.INTRA.norm>
-0.0409091

>  <SCORE.RESTR>
0

>  <SCORE.RESTR.CAVITY>
0

>  <SCORE.RESTR.norm>
0

>  <SCORE.SYSTEM>
0

>  <SCORE.SYSTEM.CONST>
0

>  <SCORE.SYSTEM.DIHEDRAL>
0

>  <SCORE.SYSTEM.SOLV>
0

>  <SCORE.SYSTEM.norm>
0

>  <SCORE.heavy>
26

>  <SCORE.norm>
-0.57376

>  <RMSD>
26.229

$$$$
ligand
 OpenBabel11021811473D
libRbt.so/2013.1/901 2013/11/27
 26 27  0  0  0  0  0  0  0  0999 V2000
  -21.6174    3.6513   16.1874 C   0  0  0  0  0  0  0  0  0  0  0  0
  -16.5378    4.3150   15.5761 C   0  0  0  0  0  0  0  0  0  0  0  0
  -17.8311    4.0654   16.0230 C   0  0  0  0  0  0  0  0  0  0  0  0
  -19.0286    4.9509   15.6698 C   0  0  0  0  0  0  0  0  0  0  0  0
  -20.9945    3.7611   14.7926 C   0  0  1  0  0  0  0  0  0  0  0  0
  -14.6879    1.3451   17.0896 C   0  0  0  0  0  0  0  0  0  0  0  0
  -15.8017    2.3243   16.7156 C   0  0  0  0  0  0  0  0  0  0  0  0
  -18.0427    2.9392   16.8119 C   0  0  0  0  0  0  0  0  0  0  0  0
  -19.3870    4.4172   13.3200 C   0  0  0  0  0  0  0  0  0  0  0  0
  -21.6238    3.2561   13.6610 C   0  0  2  0  0  0  0  0  0  0  0  0
  -22.9654    2.5376   13.4956 C   0  0  0  0  0  0  0  0  0  0  0  0
  -24.1589    3.4001   13.9127 C   0  0  0  0  0  0  0  0  0  0  0  0
  -15.5059    3.4398   15.9210 N   0  0  0  0  0  0  0  0  0  0  0  0
  -19.8198    4.3609   14.5804 N   0  0  0  0  0  0  0  0  0  0  0  0
  -17.0597    2.1183   17.1315 N   0  0  0  0  0  0  0  0  0  0  0  0
  -16.3002    5.2998   14.8764 O   0  0  0  0  0  0  0  0  0  0  0  0
  -24.4514    7.2899   13.4316 O   0  5  0  0  0  0  0  0  0  0  0  0
  -26.5476    7.0716   11.0766 O   0  0  0  0  0  0  0  0  0  0  0  0
  -23.9073    4.7926   13.6997 O   0  0  0  0  0  0  0  0  0  0  0  0
  -26.3070    5.5702   13.1336 O   0  0  0  0  0  0  0  0  0  0  0  0
  -28.6505    6.4063   12.4283 O   0  5  0  0  0  0  0  0  0  0  0  0
  -25.3343    5.9821   15.4790 O   0  0  0  0  0  0  0  0  0  0  0  0
  -26.9310    8.0323   13.4220 O   0  0  0  0  0  0  0  0  0  0  0  0
  -20.5415    3.5624   12.3314 S   0  0  0  0  0  0  0  0  0  0  0  0
  -25.0184    5.9092   14.0339 P   0  0  2  0  0  0  0  0  0  0  0  0
  -27.2110    6.7413   12.5054 P   0  0  2  0  0  0  0  0  0  0  0  0
  2 16  2  0  0  0  0
  2  3  1  0  0  0  0
  2 13  1  0  0  0  0
  3  8  2  0  0  0  0
  3  4  1  0  0  0  0
  4 14  1  0  0  0  0
  5  1  1  6  0  0  0
  5 14  1  0  0  0  0
  5 10  1  0  0  0  0
  6  7  1  0  0  0  0
  7 13  1  0  0  0  0
  7 15  2  0  0  0  0
  8 15  1  0  0  0  0
  9 14  1  0  0  0  0
  9 24  1  0  0  0  0
 10 24  1  0  0  0  0
 10 11  1  1  0  0  0
 11 12  1  0  0  0  0
 12 19  1  0  0  0  0
 17 25  1  0  0  0  0
 19 25  1  0  0  0  0
 20 26  1  0  0  0  0
 21 26  1  0  0  0  0
 22 25  2  0  0  0  0
 23 26  2  0  0  0  0
 25 20  1  6  0  0  0
 26 18  1  6  0  0  0
M  CHG  2  17  -1  21  -1
M  END
>  <CHROM.1>
100.09059488,61.79433501,30.22964364,104.61135863,178.87709760,-31.83301915
-170.69668231,89.09364019,-21.94556725,4.71418977,14.26240850,0.39300331
-0.17724738,1.99910708

>  <Name>
ligand

>  <RI>
0

>  <Rbt.Current_Directory>
/home/itssahil/PROJECTS/Mol_Feturizer/New_Systems/rnas/3D2X

>  <Rbt.Executable>
rbdock ($Id: //depot/dev/client3/rdock/2013.1/src/exe/rbdock.cxx#4 $)

>  <Rbt.Library>
libRbt.so (2013.1, Build901 2013/11/27)

>  <Rbt.Parameter_File>
/export/apps/rDock/src/rDock_2013.1_src/data/scripts/dock_solv.prm

>  <Rbt.Receptor>
prm/blind_docking_40.prm

>  <SCORE>
-9.26813

>  <SCORE.INTER>
-10.1906

>  <SCORE.INTER.CONST>
1

>  <SCORE.INTER.POLAR>
0

>  <SCORE.INTER.ROT>
8

>  <SCORE.INTER.SOLV>
11.816

>  <SCORE.INTER.VDW>
-19.6657

>  <SCORE.INTER.norm>
-0.391945

>  <SCORE.INTRA>
0.873639

>  <SCORE.INTRA.DIHEDRAL>
2.20011

>  <SCORE.INTRA.DIHEDRAL.0>
7.88077

>  <SCORE.INTRA.POLAR>
0

>  <SCORE.INTRA.POLAR.0>
0

>  <SCORE.INTRA.REPUL>
0

>  <SCORE.INTRA.REPUL.0>
0

>  <SCORE.INTRA.SOLV>
-0.0579241

>  <SCORE.INTRA.SOLV.lig_0>
-63.2542

>  <SCORE.INTRA.VDW>
-0.197456

>  <SCORE.INTRA.VDW.0>
-3.15072

>  <SCORE.INTRA.norm>
0.0336015

>  <SCORE.RESTR>
0.0488073

>  <SCORE.RESTR.CAVITY>
0.0488073

>  <SCORE.RESTR.norm>
0.0018772

>  <SCORE.SYSTEM>
0

>  <SCORE.SYSTEM.CONST>
0

>  <SCORE.SYSTEM.DIHEDRAL>
0

>  <SCORE.SYSTEM.SOLV>
0

>  <SCORE.SYSTEM.norm>
0

>  <SCORE.heavy>
26

>  <SCORE.norm>
-0.356467

>  <RMSD>
26.251

$$$$
ligand
 OpenBabel11021811473D
libRbt.so/2013.1/901 2013/11/27
 26 27  0  0  0  0  0  0  0  0999 V2000
  -21.9829    2.7712   15.6947 C   0  0  0  0  0  0  0  0  0  0  0  0
  -25.3335    3.5554   14.6299 C   0  0  0  0  0  0  0  0  0  0  0  0
  -25.1028    4.3579   15.7424 C   0  0  0  0  0  0  0  0  0  0  0  0
  -24.3825    3.8655   16.9999 C   0  0  0  0  0  0  0  0  0  0  0  0
  -21.9668    4.0300   16.5670 C   0  0  1  0  0  0  0  0  0  0  0  0
  -27.0566    6.0458   12.3144 C   0  0  0  0  0  0  0  0  0  0  0  0
  -26.3701    5.4355   13.5373 C   0  0  0  0  0  0  0  0  0  0  0  0
  -25.5314    5.6805   15.6928 C   0  0  0  0  0  0  0  0  0  0  0  0
  -22.9399    5.6283   17.8638 C   0  0  0  0  0  0  0  0  0  0  0  0
  -20.8035    4.7553   16.7954 C   0  0  2  0  0  0  0  0  0  0  0  0
  -19.3727    4.5403   16.2954 C   0  0  0  0  0  0  0  0  0  0  0  0
  -19.1993    4.8912   14.8158 C   0  0  0  0  0  0  0  0  0  0  0  0
  -25.9730    4.0920   13.5106 N   0  0  0  0  0  0  0  0  0  0  0  0
  -23.0703    4.5120   17.1455 N   0  0  0  0  0  0  0  0  0  0  0  0
  -26.1347    6.1775   14.6290 N   0  0  0  0  0  0  0  0  0  0  0  0
  -24.9738    2.3780   14.6264 O   0  0  0  0  0  0  0  0  0  0  0  0
  -19.8253    2.4161   11.8212 O   0  5  0  0  0  0  0  0  0  0  0  0
  -22.5018    5.9102   10.8834 O   0  0  0  0  0  0  0  0  0  0  0  0
  -19.6150    3.8190   13.9641 O   0  0  0  0  0  0  0  0  0  0  0  0
  -20.3002    4.9170   11.7262 O   0  0  0  0  0  0  0  0  0  0  0  0
  -22.3591    3.3829   11.4167 O   0  5  0  0  0  0  0  0  0  0  0  0
  -17.8856    4.1047   12.0814 O   0  0  0  0  0  0  0  0  0  0  0  0
  -22.2962    5.1135   13.3111 O   0  0  0  0  0  0  0  0  0  0  0  0
  -21.2493    6.0554   17.8651 S   0  0  0  0  0  0  0  0  0  0  0  0
  -19.3100    3.8336   12.3830 P   0  0  2  0  0  0  0  0  0  0  0  0
  -21.8955    4.7348   11.8008 P   0  0  2  0  0  0  0  0  0  0  0  0
  2 16  2  0  0  0  0
  2  3  1  0  0  0  0
  2 13  1  0  0  0  0
  3  8  2  0  0  0  0
  3  4  1  0  0  0  0
  4 14  1  0  0  0  0
  5  1  1  6  0  0  0
  5 14  1  0  0  0  0
  5 10  1  0  0  0  0
  6  7  1  0  0  0  0
  7 13  1  0  0  0  0
  7 15  2  0  0  0  0
  8 15  1  0  0  0  0
  9 14  1  0  0  0  0
  9 24  1  0  0  0  0
 10 24  1  0  0  0  0
 10 11  1  1  0  0  0
 11 12  1  0  0  0  0
 12 19  1  0  0  0  0
 17 25  1  0  0  0  0
 19 25  1  0  0  0  0
 20 26  1  0  0  0  0
 21 26  1  0  0  0  0
 22 25  2  0  0  0  0
 23 26  2  0  0  0  0
 25 20  1  6  0  0  0
 26 18  1  6  0  0  0
M  CHG  2  17  -1  21  -1
M  END
>  <CHROM.1>
111.30419620,73.32491775,-82.18824325,-86.81700860,-169.67475879,50.03426534
175.48152636,-173.15985892,-22.28512627,4.52105680,14.23070803,-2.70583217
0.10012514,-1.67135439

>  <Name>
ligand

>  <RI>
0

>  <Rbt.Current_Directory>
/home/itssahil/PROJECTS/Mol_Feturizer/New_Systems/rnas/3D2X

>  <Rbt.Executable>
rbdock ($Id: //depot/dev/client3/rdock/2013.1/src/exe/rbdock.cxx#4 $)

>  <Rbt.Library>
libRbt.so (2013.1, Build901 2013/11/27)

>  <Rbt.Parameter_File>
/export/apps/rDock/src/rDock_2013.1_src/data/scripts/dock_solv.prm

>  <Rbt.Receptor>
prm/blind_docking_80.prm

>  <SCORE>
-11.9593

>  <SCORE.INTER>
-10.56

>  <SCORE.INTER.CONST>
1

>  <SCORE.INTER.POLAR>
0

>  <SCORE.INTER.ROT>
8

>  <SCORE.INTER.SOLV>
19.093

>  <SCORE.INTER.VDW>
-22.3376

>  <SCORE.INTER.norm>
-0.406153

>  <SCORE.INTRA>
-1.41673

>  <SCORE.INTRA.DIHEDRAL>
-0.627718

>  <SCORE.INTRA.DIHEDRAL.0>
7.88077

>  <SCORE.INTRA.POLAR>
0

>  <SCORE.INTRA.POLAR.0>
0

>  <SCORE.INTRA.REPUL>
0

>  <SCORE.INTRA.REPUL.0>
0

>  <SCORE.INTRA.SOLV>
3.00072

>  <SCORE.INTRA.SOLV.lig_0>
-63.2542

>  <SCORE.INTRA.VDW>
-2.60324

>  <SCORE.INTRA.VDW.0>
-3.15072

>  <SCORE.INTRA.norm>
-0.0544898

>  <SCORE.RESTR>
0.0174433

>  <SCORE.RESTR.CAVITY>
0.0174433

>  <SCORE.RESTR.norm>
0.000670897

>  <SCORE.SYSTEM>
0

>  <SCORE.SYSTEM.CONST>
0

>  <SCORE.SYSTEM.DIHEDRAL>
0

>  <SCORE.SYSTEM.SOLV>
0

>  <SCORE.SYSTEM.norm>
0

>  <SCORE.heavy>
26

>  <SCORE.norm>
-0.459972

>  <RMSD>
26.254

$$$$
ligand
 OpenBabel11021811473D
libRbt.so/2013.1/901 2013/11/27
 26 27  0  0  0  0  0  0  0  0999 V2000
  -20.0292    6.4184   11.7710 C   0  0  0  0  0  0  0  0  0  0  0  0
  -24.0717    5.3133   13.6375 C   0  0  0  0  0  0  0  0  0  0  0  0
  -23.4534    6.2293   12.7930 C   0  0  0  0  0  0  0  0  0  0  0  0
  -22.8965    5.8608   11.4158 C   0  0  0  0  0  0  0  0  0  0  0  0
  -20.6056    5.0029   11.6724 C   0  0  1  0  0  0  0  0  0  0  0  0
  -25.0147    7.5766   16.5566 C   0  0  0  0  0  0  0  0  0  0  0  0
  -24.4502    7.0882   15.2216 C   0  0  0  0  0  0  0  0  0  0  0  0
  -23.3607    7.5503   13.2194 C   0  0  0  0  0  0  0  0  0  0  0  0
  -22.3022    3.4988   11.4668 C   0  0  0  0  0  0  0  0  0  0  0  0
  -19.8030    3.8713   11.7553 C   0  0  2  0  0  0  0  0  0  0  0  0
  -18.2923    3.7253   11.9545 C   0  0  0  0  0  0  0  0  0  0  0  0
  -17.8437    4.0608   13.3788 C   0  0  0  0  0  0  0  0  0  0  0  0
  -24.5790    5.7388   14.8669 N   0  0  0  0  0  0  0  0  0  0  0  0
  -21.9124    4.7734   11.5167 N   0  0  0  0  0  0  0  0  0  0  0  0
  -23.8443    7.9417   14.3837 N   0  0  0  0  0  0  0  0  0  0  0  0
  -24.1768    4.1325   13.3051 O   0  0  0  0  0  0  0  0  0  0  0  0
  -18.2965    5.4883   15.9684 O   0  5  0  0  0  0  0  0  0  0  0  0
  -21.1740    4.9293   14.5773 O   0  0  0  0  0  0  0  0  0  0  0  0
  -18.7481    3.5381   14.3568 O   0  0  0  0  0  0  0  0  0  0  0  0
  -20.0702    3.7607   16.5672 O   0  0  0  0  0  0  0  0  0  0  0  0
  -21.6697    2.4311   15.0302 O   0  5  0  0  0  0  0  0  0  0  0  0
  -17.5883    3.0861   16.6080 O   0  0  0  0  0  0  0  0  0  0  0  0
  -22.5808    4.2404   16.6064 O   0  0  0  0  0  0  0  0  0  0  0  0
  -20.8685    2.5094   11.5471 S   0  0  0  0  0  0  0  0  0  0  0  0
  -18.6069    3.9099   15.9173 P   0  0  2  0  0  0  0  0  0  0  0  0
  -21.3884    3.7464   15.6476 P   0  0  2  0  0  0  0  0  0  0  0  0
  2 16  2  0  0  0  0
  2  3  1  0  0  0  0
  2 13  1  0  0  0  0
  3  8  2  0  0  0  0
  3  4  1  0  0  0  0
  4 14  1  0  0  0  0
  5  1  1  1  0  0  0
  5 14  1  0  0  0  0
  5 10  1  0  0  0  0
  6  7  1  0  0  0  0
  7 13  1  0  0  0  0
  7 15  2  0  0  0  0
  8 15  1  0  0  0  0
  9 14  1  0  0  0  0
  9 24  1  0  0  0  0
 10 24  1  0  0  0  0
 10 11  1  6  0  0  0
 11 12  1  0  0  0  0
 12 19  1  0  0  0  0
 17 25  1  0  0  0  0
 19 25  1  0  0  0  0
 20 26  1  0  0  0  0
 21 26  1  0  0  0  0
 22 25  2  0  0  0  0
 23 26  2  0  0  0  0
 25 20  1  1  0  0  0
 26 18  1  6  0  0  0
M  CHG  2  17  -1  21  -1
M  END
>  <CHROM.1>
-56.60694363,72.51701008,41.13410482,-91.22774427,-172.11877532,93.75025567
42.79506651,-43.95969492,-21.23820721,4.63216327,14.05519745,-0.02994006
0.48239020,-1.69035623

>  <Name>
ligand

>  <RI>
0

>  <Rbt.Current_Directory>
/home/itssahil/PROJECTS/Mol_Feturizer/New_Systems/rnas/3D2X

>  <Rbt.Executable>
rbdock ($Id: //depot/dev/client3/rdock/2013.1/src/exe/rbdock.cxx#4 $)

>  <Rbt.Library>
libRbt.so (2013.1, Build901 2013/11/27)

>  <Rbt.Parameter_File>
/export/apps/rDock/src/rDock_2013.1_src/data/scripts/dock_solv.prm

>  <Rbt.Receptor>
prm/blind_docking_60.prm

>  <SCORE>
-11.5902

>  <SCORE.INTER>
-7.96561

>  <SCORE.INTER.CONST>
1

>  <SCORE.INTER.POLAR>
0

>  <SCORE.INTER.ROT>
8

>  <SCORE.INTER.SOLV>
12.9915

>  <SCORE.INTER.VDW>
-18.5742

>  <SCORE.INTER.norm>
-0.30637

>  <SCORE.INTRA>
-3.8257

>  <SCORE.INTRA.DIHEDRAL>
1.29437

>  <SCORE.INTRA.DIHEDRAL.0>
7.88077

>  <SCORE.INTRA.POLAR>
0

>  <SCORE.INTRA.POLAR.0>
0

>  <SCORE.INTRA.REPUL>
0

>  <SCORE.INTRA.REPUL.0>
0

>  <SCORE.INTRA.SOLV>
0.0882645

>  <SCORE.INTRA.SOLV.lig_0>
-63.2542

>  <SCORE.INTRA.VDW>
-4.51702

>  <SCORE.INTRA.VDW.0>
-3.15072

>  <SCORE.INTRA.norm>
-0.147142

>  <SCORE.RESTR>
0.201099

>  <SCORE.RESTR.CAVITY>
0.201099

>  <SCORE.RESTR.norm>
0.00773457

>  <SCORE.SYSTEM>
0

>  <SCORE.SYSTEM.CONST>
0

>  <SCORE.SYSTEM.DIHEDRAL>
0

>  <SCORE.SYSTEM.SOLV>
0

>  <SCORE.SYSTEM.norm>
0

>  <SCORE.heavy>
26

>  <SCORE.norm>
-0.445778

>  <RMSD>
26.266

$$$$
ligand
 OpenBabel11021811473D
libRbt.so/2013.1/901 2013/11/27
 26 27  0  0  0  0  0  0  0  0999 V2000
  -22.7238    2.2283   13.8086 C   0  0  0  0  0  0  0  0  0  0  0  0
  -26.4211    6.1530   14.5148 C   0  0  0  0  0  0  0  0  0  0  0  0
  -26.1076    5.1056   13.6550 C   0  0  0  0  0  0  0  0  0  0  0  0
  -25.0024    4.0857   13.9398 C   0  0  0  0  0  0  0  0  0  0  0  0
  -22.7051    3.6288   13.1888 C   0  0  1  0  0  0  0  0  0  0  0  0
  -29.3321    7.7501   12.6418 C   0  0  0  0  0  0  0  0  0  0  0  0
  -28.1746    6.8178   13.0027 C   0  0  0  0  0  0  0  0  0  0  0  0
  -26.8562    4.9716   12.4900 C   0  0  0  0  0  0  0  0  0  0  0  0
  -23.6314    5.6399   12.6593 C   0  0  0  0  0  0  0  0  0  0  0  0
  -21.5991    4.1189   12.5049 C   0  0  2  0  0  0  0  0  0  0  0  0
  -20.2431    3.4774   12.1994 C   0  0  0  0  0  0  0  0  0  0  0  0
  -19.1752    3.8157   13.2422 C   0  0  0  0  0  0  0  0  0  0  0  0
  -27.4648    7.0231   14.1933 N   0  0  0  0  0  0  0  0  0  0  0  0
  -23.7541    4.4533   13.2559 N   0  0  0  0  0  0  0  0  0  0  0  0
  -27.8412    5.7998   12.1963 N   0  0  0  0  0  0  0  0  0  0  0  0
  -25.7863    6.3138   15.5574 O   0  0  0  0  0  0  0  0  0  0  0  0
  -19.7976    3.8621   17.1208 O   0  5  0  0  0  0  0  0  0  0  0  0
  -16.1663    3.8067   14.0984 O   0  0  0  0  0  0  0  0  0  0  0  0
  -19.6349    3.5629   14.5735 O   0  0  0  0  0  0  0  0  0  0  0  0
  -17.5979    3.0904   16.0936 O   0  0  0  0  0  0  0  0  0  0  0  0
  -15.5396    4.6086   16.4767 O   0  5  0  0  0  0  0  0  0  0  0  0
  -18.3902    5.5071   15.7084 O   0  0  0  0  0  0  0  0  0  0  0  0
  -15.2384    2.1464   15.8170 O   0  0  0  0  0  0  0  0  0  0  0  0
  -22.0100    5.7421   12.0257 S   0  0  0  0  0  0  0  0  0  0  0  0
  -18.8272    4.1001   15.8589 P   0  0  2  0  0  0  0  0  0  0  0  0
  -16.0998    3.4968   15.6765 P   0  0  2  0  0  0  0  0  0  0  0  0
  2 16  2  0  0  0  0
  2  3  1  0  0  0  0
  2 13  1  0  0  0  0
  3  8  2  0  0  0  0
  3  4  1  0  0  0  0
  4 14  1  0  0  0  0
  5  1  1  6  0  0  0
  5 14  1  0  0  0  0
  5 10  1  0  0  0  0
  6  7  1  0  0  0  0
  7 13  1  0  0  0  0
  7 15  2  0  0  0  0
  8 15  1  0  0  0  0
  9 14  1  0  0  0  0
  9 24  1  0  0  0  0
 10 24  1  0  0  0  0
 10 11  1  1  0  0  0
 11 12  1  0  0  0  0
 12 19  1  0  0  0  0
 17 25  1  0  0  0  0
 19 25  1  0  0  0  0
 20 26  1  0  0  0  0
 21 26  1  0  0  0  0
 22 25  2  0  0  0  0
 23 26  2  0  0  0  0
 25 20  1  1  0  0  0
 26 18  1  6  0  0  0
M  CHG  2  17  -1  21  -1
M  END
>  <CHROM.1>
-96.84117498,-93.52066987,50.81049321,-170.09851927,-167.76749731,-144.18245525
169.40977944,-58.46322878,-21.55692376,4.60435766,14.22952288,-2.98217610
-0.28706419,1.33224401

>  <Name>
ligand

>  <RI>
0

>  <Rbt.Current_Directory>
/home/itssahil/PROJECTS/Mol_Feturizer/New_Systems/rnas/3D2X

>  <Rbt.Executable>
rbdock ($Id: //depot/dev/client3/rdock/2013.1/src/exe/rbdock.cxx#4 $)

>  <Rbt.Library>
libRbt.so (2013.1, Build901 2013/11/27)

>  <Rbt.Parameter_File>
/export/apps/rDock/src/rDock_2013.1_src/data/scripts/dock_solv.prm

>  <Rbt.Receptor>
prm/blind_docking_80.prm

>  <SCORE>
-16.3277

>  <SCORE.INTER>
-15.0606

>  <SCORE.INTER.CONST>
1

>  <SCORE.INTER.POLAR>
0

>  <SCORE.INTER.ROT>
8

>  <SCORE.INTER.SOLV>
14.4891

>  <SCORE.INTER.VDW>
-23.8035

>  <SCORE.INTER.norm>
-0.579256

>  <SCORE.INTRA>
-1.2982

>  <SCORE.INTRA.DIHEDRAL>
0.281395

>  <SCORE.INTRA.DIHEDRAL.0>
7.88077

>  <SCORE.INTRA.POLAR>
0

>  <SCORE.INTRA.POLAR.0>
0

>  <SCORE.INTRA.REPUL>
0

>  <SCORE.INTRA.REPUL.0>
0

>  <SCORE.INTRA.SOLV>
-2.10896

>  <SCORE.INTRA.SOLV.lig_0>
-63.2542

>  <SCORE.INTRA.VDW>
-0.384416

>  <SCORE.INTRA.VDW.0>
-3.15072

>  <SCORE.INTRA.norm>
-0.0499307

>  <SCORE.RESTR>
0.0311004

>  <SCORE.RESTR.CAVITY>
0.0311004

>  <SCORE.RESTR.norm>
0.00119617

>  <SCORE.SYSTEM>
0

>  <SCORE.SYSTEM.CONST>
0

>  <SCORE.SYSTEM.DIHEDRAL>
0

>  <SCORE.SYSTEM.SOLV>
0

>  <SCORE.SYSTEM.norm>
0

>  <SCORE.heavy>
26

>  <SCORE.norm>
-0.62799

>  <RMSD>
26.410

$$$$
ligand
 OpenBabel11021811473D
libRbt.so/2013.1/901 2013/11/27
 26 27  0  0  0  0  0  0  0  0999 V2000
  -22.0228    6.2441   17.4889 C   0  0  0  0  0  0  0  0  0  0  0  0
  -24.8737    7.1307   14.8140 C   0  0  0  0  0  0  0  0  0  0  0  0
  -24.9964    5.7756   15.1031 C   0  0  0  0  0  0  0  0  0  0  0  0
  -24.5399    5.1530   16.4247 C   0  0  0  0  0  0  0  0  0  0  0  0
  -22.1106    4.9166   16.7301 C   0  0  1  0  0  0  0  0  0  0  0  0
  -26.4638    7.2553   11.3515 C   0  0  0  0  0  0  0  0  0  0  0  0
  -25.9288    6.7320   12.6853 C   0  0  0  0  0  0  0  0  0  0  0  0
  -25.5856    4.9552   14.1465 C   0  0  0  0  0  0  0  0  0  0  0  0
  -23.2248    3.2600   15.6358 C   0  0  0  0  0  0  0  0  0  0  0  0
  -20.9936    4.1228   16.4990 C   0  0  2  0  0  0  0  0  0  0  0  0
  -19.5273    4.3144   16.8950 C   0  0  0  0  0  0  0  0  0  0  0  0
  -18.6018    3.2609   16.2821 C   0  0  0  0  0  0  0  0  0  0  0  0
  -25.3428    7.6229   13.5944 N   0  0  0  0  0  0  0  0  0  0  0  0
  -23.2660    4.4378   16.2605 N   0  0  0  0  0  0  0  0  0  0  0  0
  -26.0261    5.4315   12.9968 N   0  0  0  0  0  0  0  0  0  0  0  0
  -24.3579    7.8967   15.6282 O   0  0  0  0  0  0  0  0  0  0  0  0
  -17.6001    3.9953   12.6221 O   0  5  0  0  0  0  0  0  0  0  0  0
  -19.7277    5.0575   11.0506 O   0  0  0  0  0  0  0  0  0  0  0  0
  -18.6550    3.2755   14.8522 O   0  0  0  0  0  0  0  0  0  0  0  0
  -19.5301    5.3514   13.5840 O   0  0  0  0  0  0  0  0  0  0  0  0
  -20.8838    3.3653   12.6293 O   0  5  0  0  0  0  0  0  0  0  0  0
  -17.2375    5.4196   14.7485 O   0  0  0  0  0  0  0  0  0  0  0  0
  -21.7715    5.7652   12.4266 O   0  0  0  0  0  0  0  0  0  0  0  0
  -21.5559    2.7583   15.5742 S   0  0  0  0  0  0  0  0  0  0  0  0
  -18.1924    4.5651   14.0059 P   0  0  2  0  0  0  0  0  0  0  0  0
  -20.4997    4.7814   12.4358 P   0  0  2  0  0  0  0  0  0  0  0  0
  2 16  2  0  0  0  0
  2  3  1  0  0  0  0
  2 13  1  0  0  0  0
  3  8  2  0  0  0  0
  3  4  1  0  0  0  0
  4 14  1  0  0  0  0
  5  1  1  1  0  0  0
  5 14  1  0  0  0  0
  5 10  1  0  0  0  0
  6  7  1  0  0  0  0
  7 13  1  0  0  0  0
  7 15  2  0  0  0  0
  8 15  1  0  0  0  0
  9 14  1  0  0  0  0
  9 24  1  0  0  0  0
 10 24  1  0  0  0  0
 10 11  1  6  0  0  0
 11 12  1  0  0  0  0
 12 19  1  0  0  0  0
 17 25  1  0  0  0  0
 19 25  1  0  0  0  0
 20 26  1  0  0  0  0
 21 26  1  0  0  0  0
 22 25  2  0  0  0  0
 23 26  2  0  0  0  0
 25 20  1  6  0  0  0
 26 18  1  6  0  0  0
M  CHG  2  17  -1  21  -1
M  END
>  <CHROM.1>
-103.08870567,-173.11115233,59.26134984,106.42807722,62.89595725,38.48603754
148.43780298,-74.13258044,-21.68582158,4.97217952,14.36527300,3.02939802
0.30614917,-1.32859056

>  <Name>
ligand

>  <RI>
0

>  <Rbt.Current_Directory>
/home/itssahil/PROJECTS/Mol_Feturizer/New_Systems/rnas/3D2X

>  <Rbt.Executable>
rbdock ($Id: //depot/dev/client3/rdock/2013.1/src/exe/rbdock.cxx#4 $)

>  <Rbt.Library>
libRbt.so (2013.1, Build901 2013/11/27)

>  <Rbt.Parameter_File>
/export/apps/rDock/src/rDock_2013.1_src/data/scripts/dock_solv.prm

>  <Rbt.Receptor>
prm/blind_docking_40.prm

>  <SCORE>
-7.74051

>  <SCORE.INTER>
-5.52491

>  <SCORE.INTER.CONST>
1

>  <SCORE.INTER.POLAR>
0

>  <SCORE.INTER.ROT>
8

>  <SCORE.INTER.SOLV>
17.7518

>  <SCORE.INTER.VDW>
-18.5339

>  <SCORE.INTER.norm>
-0.212497

>  <SCORE.INTRA>
-2.21603

>  <SCORE.INTRA.DIHEDRAL>
-0.971493

>  <SCORE.INTRA.DIHEDRAL.0>
7.88077

>  <SCORE.INTRA.POLAR>
0

>  <SCORE.INTRA.POLAR.0>
0

>  <SCORE.INTRA.REPUL>
0

>  <SCORE.INTRA.REPUL.0>
0

>  <SCORE.INTRA.SOLV>
0.327476

>  <SCORE.INTRA.SOLV.lig_0>
-63.2542

>  <SCORE.INTRA.VDW>
-1.89403

>  <SCORE.INTRA.VDW.0>
-3.15072

>  <SCORE.INTRA.norm>
-0.0852321

>  <SCORE.RESTR>
0.000439183

>  <SCORE.RESTR.CAVITY>
0.000439183

>  <SCORE.RESTR.norm>
1.68917e-05

>  <SCORE.SYSTEM>
0

>  <SCORE.SYSTEM.CONST>
0

>  <SCORE.SYSTEM.DIHEDRAL>
0

>  <SCORE.SYSTEM.SOLV>
0

>  <SCORE.SYSTEM.norm>
0

>  <SCORE.heavy>
26

>  <SCORE.norm>
-0.297712

>  <RMSD>
26.415

$$$$
ligand
 OpenBabel11021811473D
libRbt.so/2013.1/901 2013/11/27
 26 27  0  0  0  0  0  0  0  0999 V2000
  -22.2172    1.8245   15.5763 C   0  0  0  0  0  0  0  0  0  0  0  0
  -17.4557    4.3886   15.0054 C   0  0  0  0  0  0  0  0  0  0  0  0
  -18.5120    4.1037   15.8644 C   0  0  0  0  0  0  0  0  0  0  0  0
  -19.5040    2.9624   15.6279 C   0  0  0  0  0  0  0  0  0  0  0  0
  -21.6899    2.7924   14.5129 C   0  0  1  0  0  0  0  0  0  0  0  0
  -15.8250    7.3039   16.8424 C   0  0  0  0  0  0  0  0  0  0  0  0
  -16.7859    6.1696   16.4827 C   0  0  0  0  0  0  0  0  0  0  0  0
  -18.6536    4.8862   17.0060 C   0  0  0  0  0  0  0  0  0  0  0  0
  -20.1138    4.1526   13.5916 C   0  0  0  0  0  0  0  0  0  0  0  0
  -22.4717    3.2116   13.4432 C   0  0  2  0  0  0  0  0  0  0  0  0
  -23.9168    2.8769   13.0649 C   0  0  0  0  0  0  0  0  0  0  0  0
  -24.9052    3.1277   14.2062 C   0  0  0  0  0  0  0  0  0  0  0  0
  -16.5779    5.4308   15.3104 N   0  0  0  0  0  0  0  0  0  0  0  0
  -20.4555    3.3012   14.5597 N   0  0  0  0  0  0  0  0  0  0  0  0
  -17.8174    5.8688   17.2847 N   0  0  0  0  0  0  0  0  0  0  0  0
  -17.2896    3.7251   13.9817 O   0  0  0  0  0  0  0  0  0  0  0  0
  -23.8136    5.7527   13.5299 O   0  5  0  0  0  0  0  0  0  0  0  0
  -27.0862    8.1096   14.6674 O   0  0  0  0  0  0  0  0  0  0  0  0
  -24.3213    3.9126   15.2506 O   0  0  0  0  0  0  0  0  0  0  0  0
  -25.5394    6.1906   15.3518 O   0  0  0  0  0  0  0  0  0  0  0  0
  -25.5983    8.3528   16.7696 O   0  5  0  0  0  0  0  0  0  0  0  0
  -23.0516    6.0259   15.9848 O   0  0  0  0  0  0  0  0  0  0  0  0
  -24.5460    8.3575   14.4284 O   0  0  0  0  0  0  0  0  0  0  0  0
  -21.4565    4.2517   12.4835 S   0  0  0  0  0  0  0  0  0  0  0  0
  -24.1101    5.5011   15.0917 P   0  0  2  0  0  0  0  0  0  0  0  0
  -25.6912    7.7899   15.4040 P   0  0  2  0  0  0  0  0  0  0  0  0
  2 16  2  0  0  0  0
  2  3  1  0  0  0  0
  2 13  1  0  0  0  0
  3  8  2  0  0  0  0
  3  4  1  0  0  0  0
  4 14  1  0  0  0  0
  5  1  1  1  0  0  0
  5 14  1  0  0  0  0
  5 10  1  0  0  0  0
  6  7  1  0  0  0  0
  7 13  1  0  0  0  0
  7 15  2  0  0  0  0
  8 15  1  0  0  0  0
  9 14  1  0  0  0  0
  9 24  1  0  0  0  0
 10 24  1  0  0  0  0
 10 11  1  6  0  0  0
 11 12  1  0  0  0  0
 12 19  1  0  0  0  0
 17 25  1  0  0  0  0
 19 25  1  0  0  0  0
 20 26  1  0  0  0  0
 21 26  1  0  0  0  0
 22 25  2  0  0  0  0
 23 26  2  0  0  0  0
 25 20  1  1  0  0  0
 26 18  1  6  0  0  0
M  CHG  2  17  -1  21  -1
M  END
>  <CHROM.1>
-74.96404759,53.22160074,14.05087127,-151.98024977,76.09453795,-73.34415195
-32.62796870,141.32308300,-21.93594367,5.18524692,14.95731952,0.17766483
0.17346332,-2.66996131

>  <Name>
ligand

>  <RI>
0

>  <Rbt.Current_Directory>
/home/itssahil/PROJECTS/Mol_Feturizer/New_Systems/rnas/3D2X

>  <Rbt.Executable>
rbdock ($Id: //depot/dev/client3/rdock/2013.1/src/exe/rbdock.cxx#4 $)

>  <Rbt.Library>
libRbt.so (2013.1, Build901 2013/11/27)

>  <Rbt.Parameter_File>
/export/apps/rDock/src/rDock_2013.1_src/data/scripts/dock_solv.prm

>  <Rbt.Receptor>
prm/blind_docking_60.prm

>  <SCORE>
-5.12481

>  <SCORE.INTER>
-9.69865

>  <SCORE.INTER.CONST>
1

>  <SCORE.INTER.POLAR>
0

>  <SCORE.INTER.ROT>
8

>  <SCORE.INTER.SOLV>
13.2919

>  <SCORE.INTER.VDW>
-19.8297

>  <SCORE.INTER.norm>
-0.373025

>  <SCORE.INTRA>
4.48912

>  <SCORE.INTRA.DIHEDRAL>
5.12319

>  <SCORE.INTRA.DIHEDRAL.0>
7.88077

>  <SCORE.INTRA.POLAR>
0

>  <SCORE.INTRA.POLAR.0>
0

>  <SCORE.INTRA.REPUL>
0

>  <SCORE.INTRA.REPUL.0>
0

>  <SCORE.INTRA.SOLV>
3.46359

>  <SCORE.INTRA.SOLV.lig_0>
-63.2542

>  <SCORE.INTRA.VDW>
0.195729

>  <SCORE.INTRA.VDW.0>
-3.15072

>  <SCORE.INTRA.norm>
0.172658

>  <SCORE.RESTR>
0.0847136

>  <SCORE.RESTR.CAVITY>
0.0847136

>  <SCORE.RESTR.norm>
0.00325822

>  <SCORE.SYSTEM>
0

>  <SCORE.SYSTEM.CONST>
0

>  <SCORE.SYSTEM.DIHEDRAL>
0

>  <SCORE.SYSTEM.SOLV>
0

>  <SCORE.SYSTEM.norm>
0

>  <SCORE.heavy>
26

>  <SCORE.norm>
-0.197108

>  <RMSD>
26.453

$$$$
ligand
 OpenBabel11021811473D
libRbt.so/2013.1/901 2013/11/27
 26 27  0  0  0  0  0  0  0  0999 V2000
  -18.3185    4.1818   14.2613 C   0  0  0  0  0  0  0  0  0  0  0  0
  -19.5480    3.0974   10.1419 C   0  0  0  0  0  0  0  0  0  0  0  0
  -19.1114    4.4143   10.2410 C   0  0  0  0  0  0  0  0  0  0  0  0
  -18.9930    5.1634   11.5704 C   0  0  0  0  0  0  0  0  0  0  0  0
  -19.7541    4.2822   13.7371 C   0  0  1  0  0  0  0  0  0  0  0  0
  -19.2398    2.5376    6.3837 C   0  0  0  0  0  0  0  0  0  0  0  0
  -19.2070    3.2046    7.7596 C   0  0  0  0  0  0  0  0  0  0  0  0
  -18.7438    5.0695    9.0700 C   0  0  0  0  0  0  0  0  0  0  0  0
  -21.3254    4.8016   12.1737 C   0  0  0  0  0  0  0  0  0  0  0  0
  -20.8500    3.9210   14.5117 C   0  0  2  0  0  0  0  0  0  0  0  0
  -20.9341    3.3900   15.9450 C   0  0  0  0  0  0  0  0  0  0  0  0
  -20.3044    4.3368   16.9694 C   0  0  0  0  0  0  0  0  0  0  0  0
  -19.5991    2.4778    8.8916 N   0  0  0  0  0  0  0  0  0  0  0  0
  -20.0371    4.7365   12.5131 N   0  0  0  0  0  0  0  0  0  0  0  0
  -18.7956    4.4737    7.8932 N   0  0  0  0  0  0  0  0  0  0  0  0
  -19.8854    2.4760   11.1498 O   0  0  0  0  0  0  0  0  0  0  0  0
  -22.6072    7.4222   17.6258 O   0  5  0  0  0  0  0  0  0  0  0  0
  -25.4634    4.8055   16.7526 O   0  0  0  0  0  0  0  0  0  0  0  0
  -20.8958    5.6390   16.9219 O   0  0  0  0  0  0  0  0  0  0  0  0
  -23.2475    5.7110   15.8507 O   0  0  0  0  0  0  0  0  0  0  0  0
  -25.2752    7.2986   16.0882 O   0  5  0  0  0  0  0  0  0  0  0  0
  -22.9616    4.9497   18.2910 O   0  0  0  0  0  0  0  0  0  0  0  0
  -25.2547    5.4711   14.2859 O   0  0  0  0  0  0  0  0  0  0  0  0
  -22.2502    4.1539   13.5026 S   0  0  0  0  0  0  0  0  0  0  0  0
  -22.4574    5.8662   17.2426 P   0  0  2  0  0  0  0  0  0  0  0  0
  -24.8393    5.9198   15.7730 P   0  0  2  0  0  0  0  0  0  0  0  0
  2 16  2  0  0  0  0
  2  3  1  0  0  0  0
  2 13  1  0  0  0  0
  3  8  2  0  0  0  0
  3  4  1  0  0  0  0
  4 14  1  0  0  0  0
  5  1  1  1  0  0  0
  5 14  1  0  0  0  0
  5 10  1  0  0  0  0
  6  7  1  0  0  0  0
  7 13  1  0  0  0  0
  7 15  2  0  0  0  0
  8 15  1  0  0  0  0
  9 14  1  0  0  0  0
  9 24  1  0  0  0  0
 10 24  1  0  0  0  0
 10 11  1  6  0  0  0
 11 12  1  0  0  0  0
 12 19  1  0  0  0  0
 17 25  1  0  0  0  0
 19 25  1  0  0  0  0
 20 26  1  0  0  0  0
 21 26  1  0  0  0  0
 22 25  2  0  0  0  0
 23 26  2  0  0  0  0
 25 20  1  6  0  0  0
 26 18  1  1  0  0  0
M  CHG  2  17  -1  21  -1
M  END
>  <CHROM.1>
-33.49926310,58.11415579,56.80152436,125.10212723,61.96750301,-65.99357893
159.31952250,-60.56391333,-21.51011213,4.73508153,13.71591397,-1.06120330
-0.22930813,1.41248907

>  <Name>
ligand

>  <RI>
0

>  <Rbt.Current_Directory>
/home/itssahil/PROJECTS/Mol_Feturizer/New_Systems/rnas/3D2X

>  <Rbt.Executable>
rbdock ($Id: //depot/dev/client3/rdock/2013.1/src/exe/rbdock.cxx#4 $)

>  <Rbt.Library>
libRbt.so (2013.1, Build901 2013/11/27)

>  <Rbt.Parameter_File>
/export/apps/rDock/src/rDock_2013.1_src/data/scripts/dock_solv.prm

>  <Rbt.Receptor>
prm/blind_docking_80.prm

>  <SCORE>
-12.9824

>  <SCORE.INTER>
-10.2837

>  <SCORE.INTER.CONST>
1

>  <SCORE.INTER.POLAR>
0

>  <SCORE.INTER.ROT>
8

>  <SCORE.INTER.SOLV>
15.8475

>  <SCORE.INTER.VDW>
-21.0717

>  <SCORE.INTER.norm>
-0.395528

>  <SCORE.INTRA>
-2.71501

>  <SCORE.INTRA.DIHEDRAL>
-2.35192

>  <SCORE.INTRA.DIHEDRAL.0>
7.88077

>  <SCORE.INTRA.POLAR>
0

>  <SCORE.INTRA.POLAR.0>
0

>  <SCORE.INTRA.REPUL>
0

>  <SCORE.INTRA.REPUL.0>
0

>  <SCORE.INTRA.SOLV>
0.174761

>  <SCORE.INTRA.SOLV.lig_0>
-63.2542

>  <SCORE.INTRA.VDW>
-1.62644

>  <SCORE.INTRA.VDW.0>
-3.15072

>  <SCORE.INTRA.norm>
-0.104424

>  <SCORE.RESTR>
0.0163066

>  <SCORE.RESTR.CAVITY>
0.0163066

>  <SCORE.RESTR.norm>
0.000627179

>  <SCORE.SYSTEM>
0

>  <SCORE.SYSTEM.CONST>
0

>  <SCORE.SYSTEM.DIHEDRAL>
0

>  <SCORE.SYSTEM.SOLV>
0

>  <SCORE.SYSTEM.norm>
0

>  <SCORE.heavy>
26

>  <SCORE.norm>
-0.499325

>  <RMSD>
26.705

$$$$
ligand
 OpenBabel11021811473D
libRbt.so/2013.1/901 2013/11/27
 26 27  0  0  0  0  0  0  0  0999 V2000
  -18.8400    4.4194   15.2920 C   0  0  0  0  0  0  0  0  0  0  0  0
  -18.7620    5.0154    9.8204 C   0  0  0  0  0  0  0  0  0  0  0  0
  -18.9955    4.1625   10.8941 C   0  0  0  0  0  0  0  0  0  0  0  0
  -18.9049    4.6065   12.3561 C   0  0  0  0  0  0  0  0  0  0  0  0
  -20.0682    4.0561   14.4523 C   0  0  1  0  0  0  0  0  0  0  0  0
  -19.4276    2.6607    6.8972 C   0  0  0  0  0  0  0  0  0  0  0  0
  -19.2610    3.1986    8.3192 C   0  0  0  0  0  0  0  0  0  0  0  0
  -19.3511    2.8465   10.6164 C   0  0  0  0  0  0  0  0  0  0  0  0
  -21.2107    3.8327   12.4958 C   0  0  0  0  0  0  0  0  0  0  0  0
  -21.2538    3.6173   15.0294 C   0  0  2  0  0  0  0  0  0  0  0  0
  -21.6366    3.4032   16.4961 C   0  0  0  0  0  0  0  0  0  0  0  0
  -23.0495    3.8935   16.8211 C   0  0  0  0  0  0  0  0  0  0  0  0
  -18.8944    4.5367    8.5154 N   0  0  0  0  0  0  0  0  0  0  0  0
  -20.0767    4.1542   13.1199 N   0  0  0  0  0  0  0  0  0  0  0  0
  -19.4739    2.4048    9.3785 N   0  0  0  0  0  0  0  0  0  0  0  0
  -18.4434    6.1885   10.0152 O   0  0  0  0  0  0  0  0  0  0  0  0
  -24.7084    7.3687   16.5970 O   0  5  0  0  0  0  0  0  0  0  0  0
  -26.2674    4.4238   13.3874 O   0  0  0  0  0  0  0  0  0  0  0  0
  -23.2184    5.2771   16.4977 O   0  0  0  0  0  0  0  0  0  0  0  0
  -24.5757    6.0335   14.4316 O   0  0  0  0  0  0  0  0  0  0  0  0
  -27.0201    6.8006   14.0776 O   0  5  0  0  0  0  0  0  0  0  0  0
  -25.7776    5.0189   16.4669 O   0  0  0  0  0  0  0  0  0  0  0  0
  -25.4548    6.4677   12.0708 O   0  0  0  0  0  0  0  0  0  0  0  0
  -22.3377    3.2834   13.7077 S   0  0  0  0  0  0  0  0  0  0  0  0
  -24.6429    5.8641   16.0293 P   0  0  2  0  0  0  0  0  0  0  0  0
  -25.9095    5.9860   13.5359 P   0  0  2  0  0  0  0  0  0  0  0  0
  2 16  2  0  0  0  0
  2  3  1  0  0  0  0
  2 13  1  0  0  0  0
  3  8  2  0  0  0  0
  3  4  1  0  0  0  0
  4 14  1  0  0  0  0
  5  1  1  1  0  0  0
  5 14  1  0  0  0  0
  5 10  1  0  0  0  0
  6  7  1  0  0  0  0
  7 13  1  0  0  0  0
  7 15  2  0  0  0  0
  8 15  1  0  0  0  0
  9 14  1  0  0  0  0
  9 24  1  0  0  0  0
 10 24  1  0  0  0  0
 10 11  1  6  0  0  0
 11 12  1  0  0  0  0
 12 19  1  0  0  0  0
 17 25  1  0  0  0  0
 19 25  1  0  0  0  0
 20 26  1  0  0  0  0
 21 26  1  0  0  0  0
 22 25  2  0  0  0  0
 23 26  2  0  0  0  0
 25 20  1  6  0  0  0
 26 18  1  6  0  0  0
M  CHG  2  17  -1  21  -1
M  END
>  <CHROM.1>
132.41654957,138.30113672,-56.94086865,159.68972309,148.88588254,-94.12411599
146.76040032,-79.08724438,-22.28100828,4.71960858,13.23247628,-0.71338632
-0.32668087,1.59896730

>  <Name>
ligand

>  <RI>
0

>  <Rbt.Current_Directory>
/home/itssahil/PROJECTS/Mol_Feturizer/New_Systems/rnas/3D2X

>  <Rbt.Executable>
rbdock ($Id: //depot/dev/client3/rdock/2013.1/src/exe/rbdock.cxx#4 $)

>  <Rbt.Library>
libRbt.so (2013.1, Build901 2013/11/27)

>  <Rbt.Parameter_File>
/export/apps/rDock/src/rDock_2013.1_src/data/scripts/dock_solv.prm

>  <Rbt.Receptor>
prm/blind_docking_60.prm

>  <SCORE>
-5.99697

>  <SCORE.INTER>
-7.63656

>  <SCORE.INTER.CONST>
1

>  <SCORE.INTER.POLAR>
0

>  <SCORE.INTER.ROT>
8

>  <SCORE.INTER.SOLV>
15.0909

>  <SCORE.INTER.VDW>
-19.0547

>  <SCORE.INTER.norm>
-0.293714

>  <SCORE.INTRA>
1.50416

>  <SCORE.INTRA.DIHEDRAL>
4.18311

>  <SCORE.INTRA.DIHEDRAL.0>
7.88077

>  <SCORE.INTRA.POLAR>
0

>  <SCORE.INTRA.POLAR.0>
0

>  <SCORE.INTRA.REPUL>
0

>  <SCORE.INTRA.REPUL.0>
0

>  <SCORE.INTRA.SOLV>
-1.43725

>  <SCORE.INTRA.SOLV.lig_0>
-63.2542

>  <SCORE.INTRA.VDW>
0.131231

>  <SCORE.INTRA.VDW.0>
-3.15072

>  <SCORE.INTRA.norm>
0.0578524

>  <SCORE.RESTR>
0.135431

>  <SCORE.RESTR.CAVITY>
0.135431

>  <SCORE.RESTR.norm>
0.00520889

>  <SCORE.SYSTEM>
0

>  <SCORE.SYSTEM.CONST>
0

>  <SCORE.SYSTEM.DIHEDRAL>
0

>  <SCORE.SYSTEM.SOLV>
0

>  <SCORE.SYSTEM.norm>
0

>  <SCORE.heavy>
26

>  <SCORE.norm>
-0.230653

>  <RMSD>
27.159

$$$$
ligand
 OpenBabel11021811473D
libRbt.so/2013.1/901 2013/11/27
 26 27  0  0  0  0  0  0  0  0999 V2000
  -22.6590    4.2323   13.6798 C   0  0  0  0  0  0  0  0  0  0  0  0
  -25.9759    7.8381   15.4835 C   0  0  0  0  0  0  0  0  0  0  0  0
  -25.0515    6.7989   15.4795 C   0  0  0  0  0  0  0  0  0  0  0  0
  -25.1195    5.6165   14.5099 C   0  0  0  0  0  0  0  0  0  0  0  0
  -23.3332    5.3246   12.8443 C   0  0  1  0  0  0  0  0  0  0  0  0
  -24.5447   10.0385   18.2480 C   0  0  0  0  0  0  0  0  0  0  0  0
  -24.7369    8.8812   17.2668 C   0  0  0  0  0  0  0  0  0  0  0  0
  -24.0020    6.8558   16.3910 C   0  0  0  0  0  0  0  0  0  0  0  0
  -24.9637    6.8552   12.4179 C   0  0  0  0  0  0  0  0  0  0  0  0
  -22.8265    5.7335   11.6165 C   0  0  2  0  0  0  0  0  0  0  0  0
  -21.6002    5.2630   10.8302 C   0  0  0  0  0  0  0  0  0  0  0  0
  -20.3750    6.1540   11.0474 C   0  0  0  0  0  0  0  0  0  0  0  0
  -25.8244    8.8951   16.3833 N   0  0  0  0  0  0  0  0  0  0  0  0
  -24.4537    5.9358   13.2387 N   0  0  0  0  0  0  0  0  0  0  0  0
  -23.8682    7.8603   17.2369 N   0  0  0  0  0  0  0  0  0  0  0  0
  -26.9229    7.8320   14.6967 O   0  0  0  0  0  0  0  0  0  0  0  0
  -18.4677    3.9635   10.2332 O   0  5  0  0  0  0  0  0  0  0  0  0
  -18.6500    3.1403   14.7197 O   0  0  0  0  0  0  0  0  0  0  0  0
  -19.4547    5.5732   11.9765 O   0  0  0  0  0  0  0  0  0  0  0  0
  -17.5084    3.9871   12.5930 O   0  0  0  0  0  0  0  0  0  0  0  0
  -16.1537    3.8155   14.7893 O   0  5  0  0  0  0  0  0  0  0  0  0
  -19.8694    3.0444   12.2009 O   0  0  0  0  0  0  0  0  0  0  0  0
  -17.9739    5.6046   14.5169 O   0  0  0  0  0  0  0  0  0  0  0  0
  -23.8768    7.0078   11.0629 S   0  0  0  0  0  0  0  0  0  0  0  0
  -18.8936    4.0764   11.7812 P   0  0  2  0  0  0  0  0  0  0  0  0
  -17.4770    4.1097   14.1953 P   0  0  2  0  0  0  0  0  0  0  0  0
  2 16  2  0  0  0  0
  2  3  1  0  0  0  0
  2 13  1  0  0  0  0
  3  8  2  0  0  0  0
  3  4  1  0  0  0  0
  4 14  1  0  0  0  0
  5  1  1  6  0  0  0
  5 14  1  0  0  0  0
  5 10  1  0  0  0  0
  6  7  1  0  0  0  0
  7 13  1  0  0  0  0
  7 15  2  0  0  0  0
  8 15  1  0  0  0  0
  9 14  1  0  0  0  0
  9 24  1  0  0  0  0
 10 24  1  0  0  0  0
 10 11  1  1  0  0  0
 11 12  1  0  0  0  0
 12 19  1  0  0  0  0
 17 25  1  0  0  0  0
 19 25  1  0  0  0  0
 20 26  1  0  0  0  0
 21 26  1  0  0  0  0
 22 25  2  0  0  0  0
 23 26  2  0  0  0  0
 25 20  1  1  0  0  0
 26 18  1  1  0  0  0
M  CHG  2  17  -1  21  -1
M  END
>  <CHROM.1>
85.83880320,-96.81723212,100.92336308,113.20492101,53.30693150,177.95903068
46.05341512,46.71714496,-21.68675560,5.76052120,13.60309154,2.69870949,-0.38837629
1.29073134

>  <Name>
ligand

>  <RI>
0

>  <Rbt.Current_Directory>
/home/itssahil/PROJECTS/Mol_Feturizer/New_Systems/rnas/3D2X

>  <Rbt.Executable>
rbdock ($Id: //depot/dev/client3/rdock/2013.1/src/exe/rbdock.cxx#4 $)

>  <Rbt.Library>
libRbt.so (2013.1, Build901 2013/11/27)

>  <Rbt.Parameter_File>
/export/apps/rDock/src/rDock_2013.1_src/data/scripts/dock_solv.prm

>  <Rbt.Receptor>
prm/blind_docking_40.prm

>  <SCORE>
-9.24387

>  <SCORE.INTER>
-9.63862

>  <SCORE.INTER.CONST>
1

>  <SCORE.INTER.POLAR>
0

>  <SCORE.INTER.ROT>
8

>  <SCORE.INTER.SOLV>
22.7741

>  <SCORE.INTER.VDW>
-22.9504

>  <SCORE.INTER.norm>
-0.370716

>  <SCORE.INTRA>
0.393052

>  <SCORE.INTRA.DIHEDRAL>
2.14801

>  <SCORE.INTRA.DIHEDRAL.0>
7.88077

>  <SCORE.INTRA.POLAR>
0

>  <SCORE.INTRA.POLAR.0>
0

>  <SCORE.INTRA.REPUL>
0

>  <SCORE.INTRA.REPUL.0>
0

>  <SCORE.INTRA.SOLV>
0.243328

>  <SCORE.INTRA.SOLV.lig_0>
-63.2542

>  <SCORE.INTRA.VDW>
-0.802618

>  <SCORE.INTRA.VDW.0>
-3.15072

>  <SCORE.INTRA.norm>
0.0151174

>  <SCORE.RESTR>
0.00170343

>  <SCORE.RESTR.CAVITY>
0.00170343

>  <SCORE.RESTR.norm>
6.55166e-05

>  <SCORE.SYSTEM>
0

>  <SCORE.SYSTEM.CONST>
0

>  <SCORE.SYSTEM.DIHEDRAL>
0

>  <SCORE.SYSTEM.SOLV>
0

>  <SCORE.SYSTEM.norm>
0

>  <SCORE.heavy>
26

>  <SCORE.norm>
-0.355533

>  <RMSD>
27.322

$$$$
ligand
 OpenBabel11021811473D
libRbt.so/2013.1/901 2013/11/27
 26 27  0  0  0  0  0  0  0  0999 V2000
  -23.1443    4.1015   13.3806 C   0  0  0  0  0  0  0  0  0  0  0  0
  -17.7071    4.3338   13.7019 C   0  0  0  0  0  0  0  0  0  0  0  0
  -19.0066    4.3251   14.1980 C   0  0  0  0  0  0  0  0  0  0  0  0
  -20.2130    3.8449   13.3876 C   0  0  0  0  0  0  0  0  0  0  0  0
  -22.2100    5.1032   12.6954 C   0  0  1  0  0  0  0  0  0  0  0  0
  -15.8054    5.6290   16.7414 C   0  0  0  0  0  0  0  0  0  0  0  0
  -16.9434    5.1740   15.8266 C   0  0  0  0  0  0  0  0  0  0  0  0
  -19.2085    4.7547   15.5057 C   0  0  0  0  0  0  0  0  0  0  0  0
  -20.1668    5.9160   12.1055 C   0  0  0  0  0  0  0  0  0  0  0  0
  -22.6903    6.2211   12.0240 C   0  0  2  0  0  0  0  0  0  0  0  0
  -24.1200    6.7233   11.8064 C   0  0  0  0  0  0  0  0  0  0  0  0
  -24.3848    8.0752   12.4731 C   0  0  0  0  0  0  0  0  0  0  0  0
  -16.6579    4.7609   14.5184 N   0  0  0  0  0  0  0  0  0  0  0  0
  -20.8809    4.9694   12.7164 N   0  0  0  0  0  0  0  0  0  0  0  0
  -18.2090    5.1559   16.2689 N   0  0  0  0  0  0  0  0  0  0  0  0
  -17.4780    3.9641   12.5502 O   0  0  0  0  0  0  0  0  0  0  0  0
  -25.5773    5.7918   14.2569 O   0  5  0  0  0  0  0  0  0  0  0  0
  -23.7676    9.4779   16.2280 O   0  0  0  0  0  0  0  0  0  0  0  0
  -24.2954    7.9902   13.8988 O   0  0  0  0  0  0  0  0  0  0  0  0
  -24.9050    7.1872   16.2793 O   0  0  0  0  0  0  0  0  0  0  0  0
  -25.8535    9.1178   17.7151 O   0  5  0  0  0  0  0  0  0  0  0  0
  -26.7389    8.0581   14.6998 O   0  0  0  0  0  0  0  0  0  0  0  0
  -23.6183    8.0145   18.3274 O   0  0  0  0  0  0  0  0  0  0  0  0
  -21.2915    7.0305   11.3749 S   0  0  0  0  0  0  0  0  0  0  0  0
  -25.4625    7.3109   14.7761 P   0  0  2  0  0  0  0  0  0  0  0  0
  -24.6261    8.4954   17.1706 P   0  0  2  0  0  0  0  0  0  0  0  0
  2 16  2  0  0  0  0
  2  3  1  0  0  0  0
  2 13  1  0  0  0  0
  3  8  2  0  0  0  0
  3  4  1  0  0  0  0
  4 14  1  0  0  0  0
  5  1  1  1  0  0  0
  5 14  1  0  0  0  0
  5 10  1  0  0  0  0
  6  7  1  0  0  0  0
  7 13  1  0  0  0  0
  7 15  2  0  0  0  0
  8 15  1  0  0  0  0
  9 14  1  0  0  0  0
  9 24  1  0  0  0  0
 10 24  1  0  0  0  0
 10 11  1  6  0  0  0
 11 12  1  0  0  0  0
 12 19  1  0  0  0  0
 17 25  1  0  0  0  0
 19 25  1  0  0  0  0
 20 26  1  0  0  0  0
 21 26  1  0  0  0  0
 22 25  2  0  0  0  0
 23 26  2  0  0  0  0
 25 20  1  1  0  0  0
 26 18  1  6  0  0  0
M  CHG  2  17  -1  21  -1
M  END
>  <CHROM.1>
-94.34683555,115.97221102,-64.83113870,-136.15843234,-75.10216382,179.33497657
59.75838558,-48.63359099,-22.12188381,6.46095336,14.47167259,0.29579360,0.35069660
-1.87138004

>  <Name>
ligand

>  <RI>
0

>  <Rbt.Current_Directory>
/home/itssahil/PROJECTS/Mol_Feturizer/New_Systems/rnas/3D2X

>  <Rbt.Executable>
rbdock ($Id: //depot/dev/client3/rdock/2013.1/src/exe/rbdock.cxx#4 $)

>  <Rbt.Library>
libRbt.so (2013.1, Build901 2013/11/27)

>  <Rbt.Parameter_File>
/export/apps/rDock/src/rDock_2013.1_src/data/scripts/dock_solv.prm

>  <Rbt.Receptor>
prm/blind_docking_40.prm

>  <SCORE>
-11.4403

>  <SCORE.INTER>
-10.0715

>  <SCORE.INTER.CONST>
1

>  <SCORE.INTER.POLAR>
0

>  <SCORE.INTER.ROT>
8

>  <SCORE.INTER.SOLV>
18.1491

>  <SCORE.INTER.VDW>
-21.6974

>  <SCORE.INTER.norm>
-0.387365

>  <SCORE.INTRA>
-1.37326

>  <SCORE.INTRA.DIHEDRAL>
-0.995244

>  <SCORE.INTRA.DIHEDRAL.0>
7.88077

>  <SCORE.INTRA.POLAR>
0

>  <SCORE.INTRA.POLAR.0>
0

>  <SCORE.INTRA.REPUL>
0

>  <SCORE.INTRA.REPUL.0>
0

>  <SCORE.INTRA.SOLV>
-0.320539

>  <SCORE.INTRA.SOLV.lig_0>
-63.2542

>  <SCORE.INTRA.VDW>
-0.715368

>  <SCORE.INTRA.VDW.0>
-3.15072

>  <SCORE.INTRA.norm>
-0.0528177

>  <SCORE.RESTR>
0.00442113

>  <SCORE.RESTR.CAVITY>
0.00442113

>  <SCORE.RESTR.norm>
0.000170043

>  <SCORE.SYSTEM>
0

>  <SCORE.SYSTEM.CONST>
0

>  <SCORE.SYSTEM.DIHEDRAL>
0

>  <SCORE.SYSTEM.SOLV>
0

>  <SCORE.SYSTEM.norm>
0

>  <SCORE.heavy>
26

>  <SCORE.norm>
-0.440013

>  <RMSD>
27.688

$$$$
ligand
 OpenBabel11021811473D
libRbt.so/2013.1/901 2013/11/27
 26 27  0  0  0  0  0  0  0  0999 V2000
  -22.5870    2.4847   12.8280 C   0  0  0  0  0  0  0  0  0  0  0  0
  -18.7162    5.5637   14.3135 C   0  0  0  0  0  0  0  0  0  0  0  0
  -19.1435    4.3670   14.8794 C   0  0  0  0  0  0  0  0  0  0  0  0
  -20.1917    3.4581   14.2331 C   0  0  0  0  0  0  0  0  0  0  0  0
  -22.6449    3.3649   14.0801 C   0  0  1  0  0  0  0  0  0  0  0  0
  -16.1092    6.6569   16.8710 C   0  0  0  0  0  0  0  0  0  0  0  0
  -17.1988    5.8509   16.1624 C   0  0  0  0  0  0  0  0  0  0  0  0
  -18.5674    3.9721   16.0826 C   0  0  0  0  0  0  0  0  0  0  0  0
  -21.7167    4.5326   15.7999 C   0  0  0  0  0  0  0  0  0  0  0  0
  -23.8493    3.7598   14.6500 C   0  0  2  0  0  0  0  0  0  0  0  0
  -25.2956    3.4598   14.2479 C   0  0  0  0  0  0  0  0  0  0  0  0
  -25.9616    4.6217   13.5071 C   0  0  0  0  0  0  0  0  0  0  0  0
  -17.7332    6.3200   14.9549 N   0  0  0  0  0  0  0  0  0  0  0  0
  -21.5437    3.7907   14.7051 N   0  0  0  0  0  0  0  0  0  0  0  0
  -17.6383    4.6948   16.6800 N   0  0  0  0  0  0  0  0  0  0  0  0
  -19.1972    5.9561   13.2503 O   0  0  0  0  0  0  0  0  0  0  0  0
  -28.2687    6.7386   13.2889 O   0  5  0  0  0  0  0  0  0  0  0  0
  -24.8220    7.4683   16.1951 O   0  0  0  0  0  0  0  0  0  0  0  0
  -26.1487    5.7563   14.3589 O   0  0  0  0  0  0  0  0  0  0  0  0
  -27.0469    8.0691   15.0851 O   0  0  0  0  0  0  0  0  0  0  0  0
  -25.1670    9.8400   15.2213 O   0  5  0  0  0  0  0  0  0  0  0  0
  -25.9566    7.7734   12.7742 O   0  0  0  0  0  0  0  0  0  0  0  0
  -26.4262    9.1104   17.3356 O   0  0  0  0  0  0  0  0  0  0  0  0
  -23.4318    4.7722   16.0043 S   0  0  0  0  0  0  0  0  0  0  0  0
  -26.7950    7.1245   13.8083 P   0  0  2  0  0  0  0  0  0  0  0  0
  -25.8170    8.6998   15.9054 P   0  0  2  0  0  0  0  0  0  0  0  0
  2 16  2  0  0  0  0
  2  3  1  0  0  0  0
  2 13  1  0  0  0  0
  3  8  2  0  0  0  0
  3  4  1  0  0  0  0
  4 14  1  0  0  0  0
  5  1  1  1  0  0  0
  5 14  1  0  0  0  0
  5 10  1  0  0  0  0
  6  7  1  0  0  0  0
  7 13  1  0  0  0  0
  7 15  2  0  0  0  0
  8 15  1  0  0  0  0
  9 14  1  0  0  0  0
  9 24  1  0  0  0  0
 10 24  1  0  0  0  0
 10 11  1  6  0  0  0
 11 12  1  0  0  0  0
 12 19  1  0  0  0  0
 17 25  1  0  0  0  0
 19 25  1  0  0  0  0
 20 26  1  0  0  0  0
 21 26  1  0  0  0  0
 22 25  2  0  0  0  0
 23 26  2  0  0  0  0
 25 20  1  1  0  0  0
 26 18  1  1  0  0  0
M  CHG  2  17  -1  21  -1
M  END
>  <CHROM.1>
-91.51671206,-101.53779624,-67.11730570,164.34743749,178.37297095,-179.25370975
60.33938987,-49.19035731,-23.11487691,5.94517955,14.92171820,0.23177151,0.20286276
-2.70999023

>  <Name>
ligand

>  <RI>
0

>  <Rbt.Current_Directory>
/home/itssahil/PROJECTS/Mol_Feturizer/New_Systems/rnas/3D2X

>  <Rbt.Executable>
rbdock ($Id: //depot/dev/client3/rdock/2013.1/src/exe/rbdock.cxx#4 $)

>  <Rbt.Library>
libRbt.so (2013.1, Build901 2013/11/27)

>  <Rbt.Parameter_File>
/export/apps/rDock/src/rDock_2013.1_src/data/scripts/dock_solv.prm

>  <Rbt.Receptor>
prm/blind_docking_40.prm

>  <SCORE>
-12.8987

>  <SCORE.INTER>
-9.78926

>  <SCORE.INTER.CONST>
1

>  <SCORE.INTER.POLAR>
0

>  <SCORE.INTER.ROT>
8

>  <SCORE.INTER.SOLV>
14.2855

>  <SCORE.INTER.VDW>
-20.2213

>  <SCORE.INTER.norm>
-0.37651

>  <SCORE.INTRA>
-3.11979

>  <SCORE.INTRA.DIHEDRAL>
-2.17848

>  <SCORE.INTRA.DIHEDRAL.0>
7.88077

>  <SCORE.INTRA.POLAR>
0

>  <SCORE.INTRA.POLAR.0>
0

>  <SCORE.INTRA.REPUL>
0

>  <SCORE.INTRA.REPUL.0>
0

>  <SCORE.INTRA.SOLV>
-2.86211

>  <SCORE.INTRA.SOLV.lig_0>
-63.2542

>  <SCORE.INTRA.VDW>
-0.599503

>  <SCORE.INTRA.VDW.0>
-3.15072

>  <SCORE.INTRA.norm>
-0.119992

>  <SCORE.RESTR>
0.0103851

>  <SCORE.RESTR.CAVITY>
0.0103851

>  <SCORE.RESTR.norm>
0.000399428

>  <SCORE.SYSTEM>
0

>  <SCORE.SYSTEM.CONST>
0

>  <SCORE.SYSTEM.DIHEDRAL>
0

>  <SCORE.SYSTEM.SOLV>
0

>  <SCORE.SYSTEM.norm>
0

>  <SCORE.heavy>
26

>  <SCORE.norm>
-0.496103

>  <RMSD>
27.702

$$$$
ligand
 OpenBabel11021811473D
libRbt.so/2013.1/901 2013/11/27
 26 27  0  0  0  0  0  0  0  0999 V2000
  -22.9212    7.3035   11.3298 C   0  0  0  0  0  0  0  0  0  0  0  0
  -18.6608    4.1542   11.6517 C   0  0  0  0  0  0  0  0  0  0  0  0
  -19.8152    4.7478   12.1514 C   0  0  0  0  0  0  0  0  0  0  0  0
  -21.0533    5.0300   11.2969 C   0  0  0  0  0  0  0  0  0  0  0  0
  -23.1353    6.0262   12.1472 C   0  0  1  0  0  0  0  0  0  0  0  0
  -16.5365    3.9826   14.8125 C   0  0  0  0  0  0  0  0  0  0  0  0
  -17.6973    4.2631   13.8569 C   0  0  0  0  0  0  0  0  0  0  0  0
  -19.8466    5.0780   13.5025 C   0  0  0  0  0  0  0  0  0  0  0  0
  -22.5783    3.9329   12.8480 C   0  0  0  0  0  0  0  0  0  0  0  0
  -24.2467    5.8489   12.9626 C   0  0  2  0  0  0  0  0  0  0  0  0
  -25.4421    6.7634   13.2420 C   0  0  0  0  0  0  0  0  0  0  0  0
  -26.1960    6.3855   14.5192 C   0  0  0  0  0  0  0  0  0  0  0  0
  -17.5854    3.9050   12.5069 N   0  0  0  0  0  0  0  0  0  0  0  0
  -22.2762    5.0037   12.1123 N   0  0  0  0  0  0  0  0  0  0  0  0
  -18.8241    4.8374   14.3020 N   0  0  0  0  0  0  0  0  0  0  0  0
  -18.5845    3.8449   10.4625 O   0  0  0  0  0  0  0  0  0  0  0  0
  -26.4911    8.8401   16.4091 O   0  5  0  0  0  0  0  0  0  0  0  0
  -22.9724    6.7645   19.3613 O   0  0  0  0  0  0  0  0  0  0  0  0
  -25.4084    6.6230   15.6900 O   0  0  0  0  0  0  0  0  0  0  0  0
  -24.4450    7.9866   17.6639 O   0  0  0  0  0  0  0  0  0  0  0  0
  -22.5194    6.4743   16.8309 O   0  5  0  0  0  0  0  0  0  0  0  0
  -24.1797    8.8402   15.2519 O   0  0  0  0  0  0  0  0  0  0  0  0
  -22.0144    8.7075   17.9910 O   0  0  0  0  0  0  0  0  0  0  0  0
  -24.0449    4.2934   13.7196 S   0  0  0  0  0  0  0  0  0  0  0  0
  -25.0704    8.1167   16.1881 P   0  0  2  0  0  0  0  0  0  0  0  0
  -22.9608    7.4118   17.8877 P   0  0  2  0  0  0  0  0  0  0  0  0
  2 16  2  0  0  0  0
  2  3  1  0  0  0  0
  2 13  1  0  0  0  0
  3  8  2  0  0  0  0
  3  4  1  0  0  0  0
  4 14  1  0  0  0  0
  5  1  1  6  0  0  0
  5 14  1  0  0  0  0
  5 10  1  0  0  0  0
  6  7  1  0  0  0  0
  7 13  1  0  0  0  0
  7 15  2  0  0  0  0
  8 15  1  0  0  0  0
  9 14  1  0  0  0  0
  9 24  1  0  0  0  0
 10 24  1  0  0  0  0
 10 11  1  1  0  0  0
 11 12  1  0  0  0  0
 12 19  1  0  0  0  0
 17 25  1  0  0  0  0
 19 25  1  0  0  0  0
 20 26  1  0  0  0  0
 21 26  1  0  0  0  0
 22 25  2  0  0  0  0
 23 26  2  0  0  0  0
 25 20  1  1  0  0  0
 26 18  1  1  0  0  0
M  CHG  2  17  -1  21  -1
M  END
>  <CHROM.1>
151.38130251,-161.51559355,67.61443027,125.18145493,70.22345735,-175.29507260
57.36783346,-152.59300420,-22.44509053,6.12513897,14.57773547,0.72268532
0.29349337,-1.93300778

>  <Name>
ligand

>  <RI>
0

>  <Rbt.Current_Directory>
/home/itssahil/PROJECTS/Mol_Feturizer/New_Systems/rnas/3D2X

>  <Rbt.Executable>
rbdock ($Id: //depot/dev/client3/rdock/2013.1/src/exe/rbdock.cxx#4 $)

>  <Rbt.Library>
libRbt.so (2013.1, Build901 2013/11/27)

>  <Rbt.Parameter_File>
/export/apps/rDock/src/rDock_2013.1_src/data/scripts/dock_solv.prm

>  <Rbt.Receptor>
prm/blind_docking_40.prm

>  <SCORE>
-12.1177

>  <SCORE.INTER>
-11.8002

>  <SCORE.INTER.CONST>
1

>  <SCORE.INTER.POLAR>
0

>  <SCORE.INTER.ROT>
8

>  <SCORE.INTER.SOLV>
21.7393

>  <SCORE.INTER.VDW>
-24.0466

>  <SCORE.INTER.norm>
-0.453854

>  <SCORE.INTRA>
-0.317493

>  <SCORE.INTRA.DIHEDRAL>
-0.819321

>  <SCORE.INTRA.DIHEDRAL.0>
7.88077

>  <SCORE.INTRA.POLAR>
0

>  <SCORE.INTRA.POLAR.0>
0

>  <SCORE.INTRA.REPUL>
0

>  <SCORE.INTRA.REPUL.0>
0

>  <SCORE.INTRA.SOLV>
0.601286

>  <SCORE.INTRA.SOLV.lig_0>
-63.2542

>  <SCORE.INTRA.VDW>
-0.208475

>  <SCORE.INTRA.VDW.0>
-3.15072

>  <SCORE.INTRA.norm>
-0.0122113

>  <SCORE.RESTR>
0

>  <SCORE.RESTR.CAVITY>
0

>  <SCORE.RESTR.norm>
0

>  <SCORE.SYSTEM>
0

>  <SCORE.SYSTEM.CONST>
0

>  <SCORE.SYSTEM.DIHEDRAL>
0

>  <SCORE.SYSTEM.SOLV>
0

>  <SCORE.SYSTEM.norm>
0

>  <SCORE.heavy>
26

>  <SCORE.norm>
-0.466065

>  <RMSD>
27.813

$$$$
