@<TRIPOS>MOLECULE
3D2X_rdock.pdb
 1655 1852 0 0 0
SMALL
GASTEIGER

@<TRIPOS>ATOM
      1  P        -20.9120    8.9950   14.9610 P.3     1  G1          0.1280
      2  C5'      -19.1840    8.5440   16.9640 C.3     1  G1          0.1795
      3  O5'      -19.4830    9.2240   15.7250 O.3     1  G1         -0.3259
      4  C4'      -18.3880    9.4500   17.8720 C.3     1  G1          0.1772
      5  O4'      -19.0070   10.7640   17.8920 O.3     1  G1         -0.3307
      6  C3'      -18.3330    9.0260   19.3340 C.3     1  G1          0.1860
      7  O3'      -17.3020    8.0800   19.5900 O.3     1  G1         -0.3112
      8  C2'      -18.1080   10.3470   20.0670 C.3     1  G1          0.2309
      9  O2'      -16.7530   10.7410   20.1260 O.3     1  G1         -0.2156
     10  C1'      -18.8950   11.3270   19.1940 C.3     1  G1          0.2408
     11  N1       -21.6560   12.9790   23.1430 N.ar    1  G1         -0.1709
     12  C2       -20.2910   12.8560   23.0150 C.ar    1  G1          0.2606
     13  N2       -19.5620   13.2270   24.0710 N.pl3   1  G1         -0.0859
     14  N3       -19.6830   12.4030   21.9250 N.ar    1  G1         -0.1918
     15  C4       -20.5590   12.0900   20.9530 C.ar    1  G1          0.1723
     16  C5       -21.9330   12.1780   20.9760 C.ar    1  G1          0.1748
     17  C6       -22.5750   12.6510   22.1530 C.ar    1  G1          0.3023
     18  O6       -23.7840   12.7860   22.3630 O.2     1  G1         -0.2633
     19  N7       -22.4720   11.7610   19.7670 N.ar    1  G1         -0.2173
     20  C8       -21.4360   11.4300   19.0430 C.ar    1  G1          0.1817
     21  N9       -20.2410   11.6030   19.7000 N.ar    1  G1         -0.2693
     22  OP1      -20.8940    7.5470   14.4930 O.3     1  G1         -0.1955
     23  OP2      -20.9660    9.9990   13.8150 O.co2   1  G1         -0.7863
     24  P        -17.6450    6.7350   20.4020 P.3     2  G2          0.2141
     25  C5'      -18.8070    6.4470   22.7340 C.3     2  G2          0.1812
     26  O5'      -17.9800    7.2400   21.8750 O.3     2  G2         -0.3114
     27  C4'      -19.3560    7.2810   23.8630 C.3     2  G2          0.1773
     28  O4'      -19.8070    8.5700   23.3710 O.3     2  G2         -0.3307
     29  C3'      -20.5870    6.6570   24.4850 C.3     2  G2          0.1860
     30  O3'      -20.2510    5.6700   25.4360 O.3     2  G2         -0.3112
     31  C2'      -21.3410    7.8530   25.0500 C.3     2  G2          0.2309
     32  O2'      -20.8830    8.2410   26.3300 O.3     2  G2         -0.2156
     33  C1'      -21.0290    8.9310   24.0060 C.3     2  G2          0.2408
     34  N1       -25.9710    9.6350   22.9620 N.ar    2  G2         -0.1709
     35  C2       -25.3330    9.6820   24.1750 C.ar    2  G2          0.2606
     36  N2       -26.1100    9.9280   25.2440 N.pl3   2  G2         -0.0859
     37  N3       -24.0280    9.5030   24.3310 N.ar    2  G2         -0.1918
     38  C4       -23.4060    9.2790   23.1500 C.ar    2  G2          0.1723
     39  C5       -23.9580    9.2240   21.8870 C.ar    2  G2          0.1748
     40  C6       -25.3490    9.4000   21.7390 C.ar    2  G2          0.3023
     41  O6       -26.0160    9.3560   20.7060 O.2     2  G2         -0.2633
     42  N7       -22.9830    8.9810   20.9310 N.ar    2  G2         -0.2173
     43  C8       -21.8760    8.8810   21.6140 C.ar    2  G2          0.1817
     44  N9       -22.0590    9.0350   22.9700 N.ar    2  G2         -0.2693
     45  OP1      -16.4240    5.8840   20.4890 O.3     2  G2         -0.4373
     46  OP2      -18.8950    6.1740   19.8030 O.co2   2  G2         -0.5172
     47  P        -20.8550    4.1970   25.2680 P.3     3  G3          0.2141
     48  C5'      -22.8980    4.8460   26.8270 C.3     3  G3          0.1812
     49  O5'      -22.4140    4.3990   25.5400 O.3     3  G3         -0.3114
     50  C4'      -24.3580    5.2300   26.7330 C.3     3  G3          0.1773
     51  O4'      -24.4910    6.3890   25.8730 O.3     3  G3         -0.3307
     52  C3'      -25.2760    4.1850   26.1120 C.3     3  G3          0.1860
     53  O3'      -25.7240    3.2310   27.0620 O.3     3  G3         -0.3112
     54  C2'      -26.4180    5.0250   25.5610 C.3     3  G3          0.2309
     55  O2'      -27.3870    5.3670   26.5300 O.3     3  G3         -0.2156
     56  C1'      -25.6810    6.2860   25.1150 C.3     3  G3          0.2408
     57  N1       -27.4260    6.2850   20.3780 N.ar    3  G3         -0.1709
     58  C2       -28.1060    6.3940   21.5630 C.ar    3  G3          0.2606
     59  N2       -29.4310    6.4990   21.4760 N.pl3   3  G3         -0.0859
     60  N3       -27.5320    6.3920   22.7430 N.ar    3  G3         -0.1918
     61  C4       -26.1950    6.2570   22.6500 C.ar    3  G3          0.1723
     62  C5       -25.4160    6.1320   21.5210 C.ar    3  G3          0.1748
     63  C6       -26.0480    6.1450   20.2570 C.ar    3  G3          0.3023
     64  O6       -25.5320    6.0470   19.1350 O.2     3  G3         -0.2633
     65  N7       -24.0750    6.0070   21.8580 N.ar    3  G3         -0.2173
     66  C8       -24.0650    6.0580   23.1620 C.ar    3  G3          0.1817
     67  N9       -25.3210    6.2080   23.7050 N.ar    3  G3         -0.2693
     68  OP1      -20.2800    3.3340   26.3340 O.3     3  G3         -0.4373
     69  OP2      -20.6970    3.8090   23.8400 O.co2   3  G3         -0.5172
     70  P        -25.9410    1.7020   26.6120 P.3     4  A4          0.2141
     71  C5'      -28.5560    1.9510   26.8080 C.3     4  A4          0.1812
     72  O5'      -27.4070    1.6780   25.9890 O.3     4  A4         -0.3114
     73  C4'      -29.7850    2.1220   25.9490 C.3     4  A4          0.1773
     74  O4'      -29.6240    3.2790   25.0870 O.3     4  A4         -0.3307
     75  C3'      -30.0840    0.9680   25.0100 C.3     4  A4          0.1860
     76  O3'      -30.8270   -0.0410   25.6790 O.3     4  A4         -0.3112
     77  C2'      -30.8770    1.6390   23.8950 C.3     4  A4          0.2309
     78  O2'      -32.2420    1.7910   24.2060 O.3     4  A4         -0.2156
     79  C1'      -30.2220    3.0200   23.8300 C.3     4  A4          0.2408
     80  N1       -29.2310    3.4170   18.8090 N.ar    4  A4         -0.2040
     81  C2       -30.3750    3.4150   19.5060 C.ar    4  A4          0.2016
     82  N3       -30.5620    3.3170   20.8170 N.ar    4  A4         -0.2048
     83  C4       -29.3850    3.2140   21.4540 C.ar    4  A4          0.1692
     84  C5       -28.1270    3.2020   20.8790 C.ar    4  A4          0.1518
     85  C6       -28.0660    3.3080   19.4810 C.ar    4  A4          0.1919
     86  N6       -26.9260    3.3030   18.7890 N.pl3   4  A4         -0.1054
     87  N7       -27.1420    3.0800   21.8500 N.ar    4  A4         -0.2193
     88  C8       -27.8140    3.0160   22.9720 C.ar    4  A4          0.1816
     89  N9       -29.1790    3.0860   22.8050 N.ar    4  A4         -0.2693
     90  OP1      -25.9390    0.8570   27.8360 O.3     4  A4         -0.4373
     91  OP2      -24.9750    1.4220   25.5210 O.co2   4  A4         -0.5172
     92  P        -30.7070   -1.5710   25.1990 P.3     5  C5          0.2141
     93  C5'      -33.0670   -1.2840   24.0920 C.3     5  C5          0.1812
     94  O5'      -31.6930   -1.6570   23.9550 O.3     5  C5         -0.3114
     95  C4'      -33.6750   -1.0760   22.7340 C.3     5  C5          0.1773
     96  O4'      -33.0550    0.0670   22.0920 O.3     5  C5         -0.3307
     97  C3'      -33.4470   -2.2260   21.7750 C.3     5  C5          0.1860
     98  O3'      -34.4110   -3.2460   21.9480 O.3     5  C5         -0.3112
     99  C2'      -33.5220   -1.5560   20.4110 C.3     5  C5          0.2309
    100  O2'      -34.8510   -1.4050   19.9480 O.3     5  C5         -0.2156
    101  C1'      -32.9050   -0.1870   20.7050 C.3     5  C5          0.2420
    102  N1       -31.4690   -0.1140   20.3750 N.ar    5  C5         -0.2535
    103  C2       -31.0820    0.2410   19.0720 C.ar    5  C5          0.3532
    104  O2       -31.9560    0.4740   18.2210 O.2     5  C5         -0.2443
    105  N3       -29.7610    0.3170   18.7740 N.ar    5  C5         -0.1739
    106  C4       -28.8480    0.0470   19.7090 C.ar    5  C5          0.1759
    107  N4       -27.5660    0.1290   19.3680 N.pl3   5  C5         -0.1070
    108  C5       -29.2110   -0.3220   21.0340 C.ar    5  C5          0.0566
    109  C6       -30.5190   -0.3880   21.3220 C.ar    5  C5          0.0850
    110  OP1      -31.2400   -2.4370   26.2860 O.3     5  C5         -0.4373
    111  OP2      -29.3330   -1.7930   24.6870 O.co2   5  C5         -0.5172
    112  P        -33.9850   -4.7770   21.7110 P.3     6  C6          0.2141
    113  C5'      -35.0610   -4.5770   19.3250 C.3     6  C6          0.1812
    114  O5'      -33.9170   -4.9110   20.1260 O.3     6  C6         -0.3114
    115  C4'      -34.6980   -4.5260   17.8580 C.3     6  C6          0.1773
    116  O4'      -33.8980   -3.3500   17.5600 O.3     6  C6         -0.3307
    117  C3'      -33.8900   -5.6860   17.3060 C.3     6  C6          0.1860
    118  O3'      -34.7020   -6.8310   17.0470 O.3     6  C6         -0.3112
    119  C2'      -33.2760   -5.0830   16.0440 C.3     6  C6          0.2309
    120  O2'      -34.1380   -5.1030   14.9220 O.3     6  C6         -0.2156
    121  C1'      -33.0430   -3.6280   16.4640 C.3     6  C6          0.2420
    122  N1       -31.6440   -3.3760   16.8560 N.ar    6  C6         -0.2535
    123  C2       -30.7100   -3.0490   15.8560 C.ar    6  C6          0.3532
    124  O2       -31.0940   -2.9410   14.6800 O.2     6  C6         -0.2443
    125  N3       -29.4160   -2.8620   16.1940 N.ar    6  C6         -0.1739
    126  C4       -29.0360   -2.9880   17.4670 C.ar    6  C6          0.1759
    127  N4       -27.7430   -2.8290   17.7490 N.pl3   6  C6         -0.1070
    128  C5       -29.9650   -3.2930   18.5060 C.ar    6  C6          0.0566
    129  C6       -31.2470   -3.4740   18.1610 C.ar    6  C6          0.0850
    130  OP1      -35.0860   -5.6340   22.2180 O.2     6  C6         -0.5172
    131  OP2      -32.6040   -4.9520   22.2430 O.co2   6  C6         -0.4373
    132  P        -34.0640   -8.3060   17.1870 P.3     7  A7          0.2141
    133  C5'      -33.6480   -8.1960   14.6050 C.3     7  A7          0.1812
    134  O5'      -33.1160   -8.4040   15.9170 O.3     7  A7         -0.3114
    135  C4'      -32.5320   -7.9400   13.6300 C.3     7  A7          0.1773
    136  O4'      -31.8760   -6.6840   13.9510 O.3     7  A7         -0.3307
    137  C3'      -31.4110   -8.9620   13.6500 C.3     7  A7          0.1860
    138  O3'      -31.7160  -10.1350   12.9120 O.3     7  A7         -0.3112
    139  C2'      -30.2400   -8.1730   13.0790 C.3     7  A7          0.2309
    140  O2'      -30.2730   -8.0880   11.6660 O.3     7  A7         -0.2156
    141  C1'      -30.4860   -6.7880   13.6800 C.3     7  A7          0.2408
    142  N1       -25.9870   -5.6170   15.8700 N.ar    7  A7         -0.2040
    143  C2       -26.3810   -5.6580   14.5950 C.ar    7  A7          0.2016
    144  N3       -27.5690   -5.9640   14.0920 N.ar    7  A7         -0.2048
    145  C4       -28.4390   -6.2540   15.0720 C.ar    7  A7          0.1692
    146  C5       -28.1830   -6.2540   16.4290 C.ar    7  A7          0.1518
    147  C6       -26.8790   -5.9230   16.8320 C.ar    7  A7          0.1919
    148  N6       -26.4770   -5.9010   18.1030 N.pl3   7  A7         -0.1054
    149  N7       -29.3200   -6.6030   17.1430 N.ar    7  A7         -0.2193
    150  C8       -30.2240   -6.8050   16.2160 C.ar    7  A7          0.1816
    151  N9       -29.7580   -6.6180   14.9390 N.ar    7  A7         -0.2693
    152  OP1      -35.1270   -9.3380   17.0270 O.2     7  A7         -0.5172
    153  OP2      -33.2090   -8.3190   18.4100 O.co2   7  A7         -0.4373
    154  P        -30.8060  -11.4420   13.1140 P.3     8  G8          0.2141
    155  C5'      -28.2250  -11.6370   12.6700 C.3     8  G8          0.1812
    156  O5'      -29.4760  -11.0360   12.3480 O.3     8  G8         -0.3114
    157  C4'      -27.1080  -10.7830   12.1400 C.3     8  G8          0.1773
    158  O4'      -27.1170   -9.5050   12.8300 O.3     8  G8         -0.3307
    159  C3'      -25.7280  -11.3480   12.3900 C.3     8  G8          0.1860
    160  O3'      -25.3770  -12.2740   11.3680 O.3     8  G8         -0.3112
    161  C2'      -24.8650  -10.0940   12.4100 C.3     8  G8          0.2309
    162  O2'      -24.5700   -9.6490   11.1020 O.3     8  G8         -0.2156
    163  C1'      -25.7900   -9.0950   13.1080 C.3     8  G8          0.2408
    164  N1       -22.6500   -8.2380   17.0340 N.ar    8  G8         -0.1709
    165  C2       -22.4310   -8.0420   15.6990 C.ar    8  G8          0.2606
    166  N2       -21.2260   -7.5610   15.3770 N.pl3   8  G8         -0.0859
    167  N3       -23.3260   -8.2900   14.7550 N.ar    8  G8         -0.1918
    168  C4       -24.4900   -8.7340   15.2730 C.ar    8  G8          0.1723
    169  C5       -24.8110   -8.9450   16.5980 C.ar    8  G8          0.1748
    170  C6       -23.8330   -8.6980   17.5890 C.ar    8  G8          0.3023
    171  O6       -23.9200   -8.8460   18.8070 O.2     8  G8         -0.2633
    172  N7       -26.1170   -9.3940   16.7240 N.ar    8  G8         -0.2173
    173  C8       -26.5590   -9.4610   15.4970 C.ar    8  G8          0.1817
    174  N9       -25.6210   -9.0890   14.5620 N.ar    8  G8         -0.2693
    175  OP1      -31.4250  -12.5970   12.4010 O.2     8  G8         -0.5172
    176  OP2      -30.4730  -11.5540   14.5650 O.co2   8  G8         -0.4373
    177  P        -24.6080  -13.6340   11.7560 P.3     9  G9          0.2141
    178  C5'      -22.6940  -11.9520   12.3500 C.3     9  G9          0.1812
    179  O5'      -23.0750  -13.2030   11.7850 O.3     9  G9         -0.3114
    180  C4'      -21.2040  -11.8000   12.3830 C.3     9  G9          0.1773
    181  O4'      -20.9340  -10.6670   13.2540 O.3     9  G9         -0.3307
    182  C3'      -20.4750  -12.9780   13.0160 C.3     9  G9          0.1860
    183  O3'      -20.0230  -13.8980   12.0350 O.3     9  G9         -0.3112
    184  C2'      -19.3440  -12.3080   13.7790 C.3     9  G9          0.2309
    185  O2'      -18.2880  -11.9450   12.9160 O.3     9  G9         -0.2156
    186  C1'      -20.0540  -11.0560   14.2910 C.3     9  G9          0.2408
    187  N1       -20.1600  -11.2820   19.3600 N.ar    9  G9         -0.1709
    188  C2       -19.1270  -10.9440   18.5180 C.ar    9  G9          0.2606
    189  N2       -17.9720  -10.6260   19.0910 N.pl3   9  G9         -0.0859
    190  N3       -19.2220  -10.9170   17.2070 N.ar    9  G9         -0.1918
    191  C4       -20.4530  -11.2590   16.7870 C.ar    9  G9          0.1723
    192  C5       -21.5550  -11.6130   17.5410 C.ar    9  G9          0.1748
    193  C6       -21.4400  -11.6350   18.9470 C.ar    9  G9          0.3023
    194  O6       -22.3020  -11.9120   19.7830 O.2     9  G9         -0.2633
    195  N7       -22.6390  -11.8990   16.7260 N.ar    9  G9         -0.2173
    196  C8       -22.1900  -11.7120   15.5140 C.ar    9  G9          0.1817
    197  N9       -20.8660  -11.3270   15.4790 N.ar    9  G9         -0.2693
    198  OP1      -24.7760  -14.5930   10.6370 O.2     9  G9         -0.5172
    199  OP2      -25.0220  -14.0250   13.1290 O.co2   9  G9         -0.4373
    200  P        -19.3790  -15.2910   12.5000 P.3    10  G10         0.2141
    201  C5'      -17.4070  -15.7340   14.1580 C.3    10  G10         0.1812
    202  O5'      -18.0630  -14.8390   13.2690 O.3    10  G10        -0.3114
    203  C4'      -16.5770  -14.9730   15.1560 C.3    10  G10         0.1773
    204  O4'      -17.3760  -13.9570   15.8140 O.3    10  G10        -0.3307
    205  C3'      -16.0850  -15.8720   16.2690 C.3    10  G10         0.1860
    206  O3'      -14.8760  -16.4920   15.8640 O.3    10  G10        -0.3112
    207  C2'      -15.9240  -14.9130   17.4420 C.3    10  G10         0.2309
    208  O2'      -14.6970  -14.2170   17.3880 O.3    10  G10        -0.2156
    209  C1'      -17.0790  -13.9350   17.2040 C.3    10  G10         0.2408
    210  N1       -19.3960  -14.3390   21.7320 N.ar   10  G10        -0.1709
    211  C2       -18.1380  -13.8930   21.4520 C.ar   10  G10         0.2606
    212  N2       -17.4070  -13.5130   22.5110 N.pl3  10  G10        -0.0859
    213  N3       -17.6320  -13.8200   20.2300 N.ar   10  G10        -0.1918
    214  C4       -18.5150  -14.2300   19.2960 C.ar   10  G10         0.1723
    215  C5       -19.8010  -14.6890   19.4800 C.ar   10  G10         0.1748
    216  C6       -20.3170  -14.7710   20.7900 C.ar   10  G10         0.3023
    217  O6       -21.4280  -15.1660   21.1520 O.2    10  G10        -0.2633
    218  N7       -20.3920  -15.0060   18.2680 N.ar   10  G10        -0.2173
    219  C8       -19.4730  -14.7480   17.3820 C.ar   10  G10         0.1817
    220  N9       -18.3020  -14.2830   17.9320 N.ar   10  G10        -0.2693
    221  OP1      -18.9670  -16.0410   11.2870 O.2    10  G10        -0.5172
    222  OP2      -20.2950  -15.9240   13.4890 O.co2  10  G10        -0.4373
    223  P        -14.8450  -18.0720   15.5650 P.3    11  G11         0.2141
    224  C5'      -12.5440  -17.8210   16.7880 C.3    11  G11         0.1812
    225  O5'      -13.7360  -18.5860   16.5770 O.3    11  G11        -0.3114
    226  C4'      -12.2500  -17.7130   18.2590 C.3    11  G11         0.1773
    227  O4'      -13.2170  -16.8630   18.9240 O.3    11  G11        -0.3307
    228  C3'      -12.3270  -19.0250   18.9960 C.3    11  G11         0.1860
    229  O3'      -11.1050  -19.7090   18.8230 O.3    11  G11        -0.3112
    230  C2'      -12.5910  -18.5940   20.4310 C.3    11  G11         0.2309
    231  O2'      -11.3940  -18.2030   21.0580 O.3    11  G11        -0.2156
    232  C1'      -13.4540  -17.3460   20.2320 C.3    11  G11         0.2408
    233  N1       -17.4950  -16.8050   23.2840 N.ar   11  G11        -0.1709
    234  C2       -16.1740  -16.5370   23.5380 C.ar   11  G11         0.2606
    235  N2       -15.9020  -16.0520   24.7580 N.pl3  11  G11        -0.0859
    236  N3       -15.1930  -16.7350   22.6650 N.ar   11  G11        -0.1918
    237  C4       -15.6520  -17.2380   21.4960 C.ar   11  G11         0.1723
    238  C5       -16.9520  -17.5490   21.1460 C.ar   11  G11         0.1748
    239  C6       -17.9910  -17.3260   22.0960 C.ar   11  G11         0.3023
    240  O6       -19.2050  -17.5360   21.9790 O.2    11  G11        -0.2633
    241  N7       -17.0070  -18.0520   19.8520 N.ar   11  G11        -0.2173
    242  C8       -15.7660  -18.0340   19.4440 C.ar   11  G11         0.1817
    243  N9       -14.8910  -17.5410   20.3860 N.ar   11  G11        -0.2693
    244  OP1      -14.3230  -18.2640   14.1920 O.2    11  G11        -0.5172
    245  OP2      -16.1410  -18.6890   15.9480 O.co2  11  G11        -0.4373
    246  P        -11.0480  -21.2800   19.0860 P.3    12  U12         0.2141
    247  C5'      -10.9210  -22.5700   21.3480 C.3    12  U12         0.1812
    248  O5'      -11.0290  -21.3340   20.6680 O.3    12  U12        -0.3114
    249  C4'      -11.4320  -22.4200   22.7500 C.3    12  U12         0.1773
    250  O4'      -12.3300  -21.2870   22.8340 O.3    12  U12        -0.3307
    251  C3'      -12.2280  -23.6210   23.2130 C.3    12  U12         0.1860
    252  O3'      -11.3410  -24.5350   23.8310 O.3    12  U12        -0.3112
    253  C2'      -13.1750  -23.0210   24.2460 C.3    12  U12         0.2309
    254  O2'      -12.5710  -22.9480   25.5190 O.3    12  U12        -0.2156
    255  C1'      -13.3770  -21.5920   23.7270 C.3    12  U12         0.2420
    256  N1       -14.6660  -21.3110   23.0760 N.ar   12  U12        -0.2534
    257  C2       -15.6630  -20.7500   23.8590 C.ar   12  U12         0.3546
    258  O2       -15.5180  -20.5050   25.0450 O.2    12  U12        -0.2443
    259  N3       -16.8420  -20.4960   23.2090 N.ar   12  U12        -0.1530
    260  C4       -17.1300  -20.7470   21.8890 C.ar   12  U12         0.2846
    261  O4       -18.2610  -20.4950   21.4610 O.2    12  U12        -0.2650
    262  C5       -16.0540  -21.3300   21.1400 C.ar   12  U12         0.0814
    263  C6       -14.8880  -21.5850   21.7450 C.ar   12  U12         0.0870
    264  OP1       -9.7570  -21.8130   18.5820 O.2    12  U12        -0.5172
    265  OP2      -12.3210  -21.8400   18.5860 O.co2  12  U12        -0.4373
    266  P        -10.6490  -25.7070   22.9790 P.3    13  G13         0.2141
    267  C5'       -8.3230  -24.8930   22.0160 C.3    13  G13         0.1812
    268  O5'       -9.0910  -25.4020   23.1140 O.3    13  G13        -0.3114
    269  C4'       -7.0740  -24.2160   22.5270 C.3    13  G13         0.1773
    270  O4'       -7.4450  -23.0410   23.2960 O.3    13  G13        -0.3307
    271  C3'       -6.2290  -25.0310   23.4890 C.3    13  G13         0.1860
    272  O3'       -5.3500  -25.9180   22.8450 O.3    13  G13        -0.3112
    273  C2'       -5.4880  -23.9610   24.2700 C.3    13  G13         0.2309
    274  O2'       -4.3850  -23.4570   23.5490 O.3    13  G13        -0.2156
    275  C1'       -6.5650  -22.8890   24.4020 C.3    13  G13         0.2408
    276  N1        -6.6250  -22.4050   29.4580 N.ar   13  G13        -0.1709
    277  C2        -5.6210  -22.1080   28.5730 C.ar   13  G13         0.2606
    278  N2        -4.4930  -21.6190   29.1000 N.pl3  13  G13        -0.0859
    279  N3        -5.7160  -22.2820   27.2660 N.ar   13  G13        -0.1918
    280  C4        -6.9190  -22.7890   26.9130 C.ar   13  G13         0.1723
    281  C5        -7.9800  -23.1260   27.7250 C.ar   13  G13         0.1748
    282  C6        -7.8630  -22.9350   29.1170 C.ar   13  G13         0.3023
    283  O6        -8.6940  -23.1790   29.9970 O.2    13  G13        -0.2633
    284  N7        -9.0370  -23.6200   26.9760 N.ar   13  G13        -0.2173
    285  C8        -8.6100  -23.5710   25.7430 C.ar   13  G13         0.1817
    286  N9        -7.3340  -23.0740   25.6310 N.ar   13  G13        -0.2693
    287  OP1      -11.0570  -25.6330   21.5540 O.2    13  G13        -0.5172
    288  OP2      -10.8850  -26.9590   23.7530 O.co2  13  G13        -0.4373
    289  P         -4.9780  -27.2990   23.5570 P.3    14  C14         0.2141
    290  C5'       -2.8200  -26.2000   24.6170 C.3    14  C14         0.1812
    291  O5'       -4.0950  -26.8480   24.8060 O.3    14  C14        -0.3114
    292  C4'       -2.1940  -25.8390   25.9500 C.3    14  C14         0.1773
    293  O4'       -3.0310  -24.8760   26.6340 O.3    14  C14        -0.3307
    294  C3'       -2.0040  -26.9670   26.9540 C.3    14  C14         0.1860
    295  O3'       -0.8070  -27.7030   26.7390 O.3    14  C14        -0.3112
    296  C2'       -1.9690  -26.2280   28.2830 C.3    14  C14         0.2309
    297  O2'       -0.6960  -25.6900   28.5750 O.3    14  C14        -0.2156
    298  C1'       -2.9470  -25.0850   28.0290 C.3    14  C14         0.2420
    299  N1        -4.2860  -25.3830   28.5350 N.ar   14  C14        -0.2535
    300  C2        -4.5630  -25.1420   29.8850 C.ar   14  C14         0.3532
    301  O2        -3.6660  -24.6840   30.6160 O.2    14  C14        -0.2443
    302  N3        -5.8000  -25.4050   30.3600 N.ar   14  C14        -0.1739
    303  C4        -6.7410  -25.8710   29.5420 C.ar   14  C14         0.1759
    304  N4        -7.9570  -26.0850   30.0450 N.pl3  14  C14        -0.1070
    305  C5        -6.4820  -26.1320   28.1680 C.ar   14  C14         0.0566
    306  C6        -5.2530  -25.8790   27.7120 C.ar   14  C14         0.0850
    307  OP1       -4.1690  -28.1070   22.6130 O.2    14  C14        -0.5172
    308  OP2       -6.2480  -27.8500   24.1050 O.co2  14  C14        -0.4373
    309  P         -0.8140  -29.3000   26.9240 P.3    15  U15         0.2141
    310  C5'        0.1640  -29.2010   29.3600 C.3    15  U15         0.1812
    311  O5'       -0.9300  -29.5180   28.4910 O.3    15  U15        -0.3114
    312  C4'       -0.2860  -29.2600   30.7970 C.3    15  U15         0.1773
    313  O4'       -1.3450  -28.2880   31.0180 O.3    15  U15        -0.3307
    314  C3'       -0.8890  -30.5830   31.2430 C.3    15  U15         0.1860
    315  O3'        0.1030  -31.5380   31.5940 O.3    15  U15        -0.3112
    316  C2'       -1.7460  -30.1630   32.4270 C.3    15  U15         0.2309
    317  O2'       -0.9890  -30.0050   33.6120 O.3    15  U15        -0.2156
    318  C1'       -2.2640  -28.7990   31.9640 C.3    15  U15         0.2420
    319  N1        -3.5810  -28.9330   31.3250 N.ar   15  U15        -0.2534
    320  C2        -4.6870  -28.9860   32.1600 C.ar   15  U15         0.3546
    321  O2        -4.6060  -28.8870   33.3720 O.2    15  U15        -0.2443
    322  N3        -5.8890  -29.1690   31.5250 N.ar   15  U15        -0.1530
    323  C4        -6.0990  -29.3060   30.1700 C.ar   15  U15         0.2846
    324  O4        -7.2410  -29.5270   29.7590 O.2    15  U15        -0.2650
    325  C5        -4.9110  -29.2200   29.3670 C.ar   15  U15         0.0814
    326  C6        -3.7240  -29.0360   29.9560 C.ar   15  U15         0.0870
    327  OP1        0.5020  -29.8250   26.4980 O.3    15  U15        -0.4373
    328  OP2       -2.0500  -29.8350   26.3040 O.co2  15  U15        -0.5172
    329  P         -0.2920  -33.0930   31.6900 P.3    16  U16         0.2141
    330  C5'       -0.2160  -33.1170   34.3290 C.3    16  U16         0.1812
    331  O5'       -0.9940  -33.2260   33.1180 O.3    16  U16        -0.3114
    332  C4'       -1.0570  -33.4470   35.5430 C.3    16  U16         0.1773
    333  O4'       -2.0920  -32.4410   35.7050 O.3    16  U16        -0.3307
    334  C3'       -1.8170  -34.7640   35.5000 C.3    16  U16         0.1860
    335  O3'       -1.0370  -35.9000   35.8430 O.3    16  U16        -0.3112
    336  C2'       -2.9730  -34.5220   36.4610 C.3    16  U16         0.2309
    337  O2'       -2.6370  -34.7230   37.8200 O.3    16  U16        -0.2156
    338  C1'       -3.2730  -33.0450   36.2110 C.3    16  U16         0.2420
    339  N1        -4.3400  -32.8760   35.2160 N.ar   16  U16        -0.2534
    340  C2        -5.6510  -32.9010   35.6590 C.ar   16  U16         0.3546
    341  O2        -5.9640  -33.0550   36.8340 O.2    16  U16        -0.2443
    342  N3        -6.5900  -32.7420   34.6720 N.ar   16  U16        -0.1530
    343  C4        -6.3640  -32.5640   33.3280 C.ar   16  U16         0.2846
    344  O4        -7.3180  -32.3790   32.5810 O.2    16  U16        -0.2650
    345  C5        -4.9910  -32.5530   32.9490 C.ar   16  U16         0.0814
    346  C6        -4.0490  -32.7030   33.8800 C.ar   16  U16         0.0870
    347  OP1        0.9600  -33.8820   31.7220 O.3    16  U16        -0.4373
    348  OP2       -1.3140  -33.3880   30.6470 O.co2  16  U16        -0.5172
    349  P         -1.3260  -37.2960   35.1000 P.3    17  G17         0.2141
    350  C5'       -2.4980  -38.1500   37.2990 C.3    17  G17         0.1812
    351  O5'       -2.5840  -37.8890   35.8870 O.3    17  G17        -0.3114
    352  C4'       -3.8680  -38.1190   37.9480 C.3    17  G17         0.1773
    353  O4'       -4.5320  -36.8680   37.6420 O.3    17  G17        -0.3307
    354  C3'       -4.8760  -39.1900   37.5600 C.3    17  G17         0.1860
    355  O3'       -4.6850  -40.3750   38.3260 O.3    17  G17        -0.3112
    356  C2'       -6.2030  -38.5390   37.9320 C.3    17  G17         0.2309
    357  O2'       -6.4950  -38.6810   39.3070 O.3    17  G17        -0.2156
    358  C1'       -5.9340  -37.0660   37.6210 C.3    17  G17         0.2408
    359  N1       -10.0480  -36.0270   34.8400 N.ar   17  G17        -0.1709
    360  C2        -9.9520  -36.3520   36.1680 C.ar   17  G17         0.2606
    361  N2       -11.1040  -36.4340   36.8340 N.pl3  17  G17        -0.0859
    362  N3        -8.8140  -36.5810   36.7920 N.ar   17  G17        -0.1918
    363  C4        -7.7530  -36.4640   35.9680 C.ar   17  G17         0.1723
    364  C5        -7.7370  -36.1450   34.6280 C.ar   17  G17         0.1748
    365  C6        -8.9720  -35.8980   33.9680 C.ar   17  G17         0.3023
    366  O6        -9.1730  -35.6100   32.7790 O.2    17  G17        -0.2633
    367  N7        -6.4380  -36.1390   34.1380 N.ar   17  G17        -0.2173
    368  C8        -5.7010  -36.4510   35.1690 C.ar   17  G17         0.1817
    369  N9        -6.4360  -36.6720   36.3090 N.ar   17  G17        -0.2693
    370  OP1       -0.1390  -38.1710   35.2870 O.3    17  G17        -0.4373
    371  OP2       -1.7820  -36.9780   33.7190 O.co2  17  G17        -0.5172
    372  P         -5.2680  -41.7740   37.7910 P.3    18  U18         0.2141
    373  C5'       -4.6890  -41.5440   35.2250 C.3    18  U18         0.1812
    374  O5'       -4.3690  -42.1000   36.5130 O.3    18  U18        -0.3114
    375  C4'       -4.7510  -42.6350   34.1760 C.3    18  U18         0.1773
    376  O4'       -5.2760  -43.8550   34.7590 O.3    18  U18        -0.3307
    377  C3'       -5.6630  -42.2850   33.0100 C.3    18  U18         0.1860
    378  O3'       -5.1260  -42.8510   31.8280 O.3    18  U18        -0.3112
    379  C2'       -6.9780  -42.9580   33.3930 C.3    18  U18         0.2309
    380  O2'       -7.8090  -43.2940   32.2990 O.3    18  U18        -0.2156
    381  C1'       -6.4930  -44.2070   34.1300 C.3    18  U18         0.2420
    382  N1        -7.4370  -44.6580   35.1690 N.ar   18  U18        -0.2534
    383  C2        -8.6050  -45.2980   34.7640 C.ar   18  U18         0.3546
    384  O2        -8.8680  -45.5380   33.5940 O.2    18  U18        -0.2443
    385  N3        -9.4570  -45.6390   35.7830 N.ar   18  U18        -0.1530
    386  C4        -9.2760  -45.4160   37.1320 C.ar   18  U18         0.2846
    387  O4       -10.2060  -45.6390   37.9100 O.2    18  U18        -0.2650
    388  C5        -8.0380  -44.7870   37.4700 C.ar   18  U18         0.0814
    389  C6        -7.1850  -44.4400   36.5050 C.ar   18  U18         0.0870
    390  OP1       -6.6680  -41.5390   37.3550 O.2    18  U18        -0.5172
    391  OP2       -4.9880  -42.8160   38.8160 O.co2  18  U18        -0.4373
    392  P         -4.4410  -41.9010   30.7380 P.3    19  U19         0.2141
    393  C5'       -6.1520  -41.2980   28.7970 C.3    19  U19         0.1812
    394  O5'       -5.6540  -41.0600   30.1310 O.3    19  U19        -0.3114
    395  C4'       -7.0180  -40.1420   28.3580 C.3    19  U19         0.1773
    396  O4'       -8.0750  -39.9740   29.3330 O.3    19  U19        -0.3307
    397  C3'       -6.3010  -38.7960   28.2730 C.3    19  U19         0.1860
    398  O3'       -6.9070  -37.9490   27.2800 O.3    19  U19        -0.3112
    399  C2'       -6.5930  -38.1760   29.6370 C.3    19  U19         0.2309
    400  O2'       -6.5820  -36.7660   29.6220 O.3    19  U19        -0.2156
    401  C1'       -8.0060  -38.6880   29.9080 C.3    19  U19         0.2420
    402  N1        -8.3890  -38.8200   31.3220 N.ar   19  U19        -0.2534
    403  C2        -9.7150  -38.5600   31.6570 C.ar   19  U19         0.3546
    404  O2       -10.5450  -38.1520   30.8550 O.2    19  U19        -0.2443
    405  N3       -10.0320  -38.7890   32.9720 N.ar   19  U19        -0.1530
    406  C4        -9.1800  -39.2220   33.9690 C.ar   19  U19         0.2846
    407  O4        -9.6290  -39.4450   35.0950 O.2    19  U19        -0.2650
    408  C5        -7.8220  -39.4220   33.5530 C.ar   19  U19         0.0814
    409  C6        -7.4820  -39.2190   32.2780 C.ar   19  U19         0.0870
    410  OP1       -3.8400  -42.7910   29.7130 O.2    19  U19        -0.5172
    411  OP2       -3.5780  -40.9430   31.4650 O.co2  19  U19        -0.4373
    412  P         -7.3290  -38.5380   25.8390 P.3    20  C20         0.2141
    413  C5'       -9.7780  -38.4150   26.8360 C.3    20  C20         0.1812
    414  O5'       -8.7740  -39.1580   26.1080 O.3    20  C20        -0.3114
    415  C4'      -11.1270  -39.0900   26.7140 C.3    20  C20         0.1773
    416  O4'      -11.0080  -40.4780   27.1190 O.3    20  C20        -0.3307
    417  C3'      -12.2260  -38.5160   27.5960 C.3    20  C20         0.1860
    418  O3'      -12.8720  -37.4050   26.9690 O.3    20  C20        -0.3112
    419  C2'      -13.1580  -39.7100   27.8100 C.3    20  C20         0.2309
    420  O2'      -14.0990  -39.8980   26.7720 O.3    20  C20        -0.2156
    421  C1'      -12.1790  -40.8860   27.8080 C.3    20  C20         0.2420
    422  N1       -11.7850  -41.3640   29.1480 N.ar   20  C20        -0.2535
    423  C2       -12.7710  -41.8410   30.0270 C.ar   20  C20         0.3532
    424  O2       -13.9630  -41.8350   29.6670 O.2    20  C20        -0.2443
    425  N3       -12.3970  -42.2890   31.2460 N.ar   20  C20        -0.1739
    426  C4       -11.1120  -42.2700   31.6080 C.ar   20  C20         0.1759
    427  N4       -10.7900  -42.7190   32.8270 N.pl3  20  C20        -0.1070
    428  C5       -10.0990  -41.7910   30.7430 C.ar   20  C20         0.0566
    429  C6       -10.4740  -41.3530   29.5350 C.ar   20  C20         0.0850
    430  OP1       -6.3870  -39.6280   25.4720 O.3    20  C20        -0.4373
    431  OP2       -7.5150  -37.3950   24.9170 O.co2  20  C20        -0.5172
    432  P        -13.4790  -36.2210   27.8750 P.3    21  A21         0.2141
    433  C5'      -15.7770  -37.4780   28.1080 C.3    21  A21         0.1812
    434  O5'      -14.6010  -36.9520   28.7330 O.3    21  A21        -0.3114
    435  C4'      -16.6540  -38.1370   29.1400 C.3    21  A21         0.1773
    436  O4'      -15.9400  -39.2460   29.7350 O.3    21  A21        -0.3307
    437  C3'      -17.0440  -37.2650   30.3210 C.3    21  A21         0.1860
    438  O3'      -18.1910  -36.4900   30.0330 O.3    21  A21        -0.3112
    439  C2'      -17.3260  -38.2790   31.4180 C.3    21  A21         0.2309
    440  O2'      -18.6340  -38.8070   31.3500 O.3    21  A21        -0.2156
    441  C1'      -16.3200  -39.3830   31.0930 C.3    21  A21         0.2408
    442  N1       -14.4340  -40.0490   35.8230 N.ar   21  A21        -0.2040
    443  C2       -15.6760  -40.1220   35.3350 C.ar   21  A21         0.2016
    444  N3       -16.1020  -39.9280   34.0870 N.ar   21  A21        -0.2048
    445  C4       -15.0720  -39.6160   33.2780 C.ar   21  A21         0.1692
    446  C5       -13.7430  -39.5010   33.6380 C.ar   21  A21         0.1518
    447  C6       -13.4250  -39.7330   34.9790 C.ar   21  A21         0.1919
    448  N6       -12.1860  -39.6590   35.4580 N.pl3  21  A21        -0.1054
    449  N7       -12.9650  -39.1590   32.5430 N.ar   21  A21        -0.2193
    450  C8       -13.8250  -39.0810   31.5570 C.ar   21  A21         0.1816
    451  N9       -15.1190  -39.3540   31.9280 N.ar   21  A21        -0.2693
    452  OP1      -14.1460  -35.2120   27.0020 O.2    21  A21        -0.5172
    453  OP2      -12.3950  -35.7840   28.8000 O.co2  21  A21        -0.4373
    454  P        -18.2230  -34.9380   30.4480 P.3    22  C22         0.2141
    455  C5'      -19.0150  -35.4570   32.9160 C.3    22  C22         0.1812
    456  O5'      -17.9930  -34.9580   32.0240 O.3    22  C22        -0.3114
    457  C4'      -18.4410  -35.6780   34.2960 C.3    22  C22         0.1773
    458  O4'      -17.4140  -36.7010   34.2190 O.3    22  C22        -0.3307
    459  C3'      -17.7440  -34.4690   34.8950 C.3    22  C22         0.1860
    460  O3'      -18.6430  -33.5930   35.5590 O.3    22  C22        -0.3112
    461  C2'      -16.7170  -35.0960   35.8270 C.3    22  C22         0.2309
    462  O2'      -17.2680  -35.4590   37.0780 O.3    22  C22        -0.2156
    463  C1'      -16.3120  -36.3480   35.0390 C.3    22  C22         0.2420
    464  N1       -15.1410  -36.1180   34.1580 N.ar   22  C22        -0.2535
    465  C2       -13.8320  -36.2230   34.6880 C.ar   22  C22         0.3532
    466  O2       -13.6760  -36.5600   35.8750 O.2    22  C22        -0.2443
    467  N3       -12.7760  -35.9540   33.8820 N.ar   22  C22        -0.1739
    468  C4       -12.9790  -35.6020   32.6080 C.ar   22  C22         0.1759
    469  N4       -11.9160  -35.3180   31.8600 N.pl3  22  C22        -0.1070
    470  C5       -14.2820  -35.5190   32.0450 C.ar   22  C22         0.0566
    471  C6       -15.3210  -35.7840   32.8430 C.ar   22  C22         0.0850
    472  OP1      -19.5920  -34.4300   30.1880 O.3    22  C22        -0.4373
    473  OP2      -17.0610  -34.2720   29.8040 O.co2  22  C22        -0.5172
    474  P        -18.2570  -32.0420   35.7100 P.3    23  A23         0.2141
    475  C5'      -17.2400  -32.5410   38.0600 C.3    23  A23         0.1812
    476  O5'      -17.0300  -32.0860   36.7200 O.3    23  A23        -0.3114
    477  C4'      -15.9490  -32.5690   38.8250 C.3    23  A23         0.1773
    478  O4'      -15.0670  -33.5810   38.2760 O.3    23  A23        -0.3307
    479  C3'      -15.1150  -31.3080   38.8090 C.3    23  A23         0.1860
    480  O3'      -15.5850  -30.3430   39.7260 O.3    23  A23        -0.3112
    481  C2'      -13.7430  -31.8410   39.1900 C.3    23  A23         0.2309
    482  O2'      -13.6330  -32.0640   40.5810 O.3    23  A23        -0.2156
    483  C1'      -13.7210  -33.1810   38.4540 C.3    23  A23         0.2408
    484  N1        -9.3170  -33.0600   35.8190 N.ar   23  A23        -0.2040
    485  C2        -9.5960  -33.3620   37.0950 C.ar   23  A23         0.2016
    486  N3       -10.7750  -33.4100   37.7100 N.ar   23  A23        -0.2048
    487  C4       -11.7680  -33.1020   36.8560 C.ar   23  A23         0.1692
    488  C5       -11.6420  -32.7780   35.5180 C.ar   23  A23         0.1518
    489  C6       -10.3410  -32.7520   34.9880 C.ar   23  A23         0.1919
    490  N6       -10.0670  -32.4320   33.7210 N.pl3  23  A23        -0.1054
    491  N7       -12.8860  -32.5380   34.9530 N.ar   23  A23        -0.2193
    492  C8       -13.7220  -32.7060   35.9460 C.ar   23  A23         0.1816
    493  N9       -13.1100  -33.0200   37.1350 N.ar   23  A23        -0.2693
    494  OP1      -19.3910  -31.3480   36.3770 O.3    23  A23        -0.4373
    495  OP2      -17.7690  -31.5370   34.4010 O.co2  23  A23        -0.5172
    496  P        -15.0220  -28.8390   39.6410 P.3    24  G24         0.2141
    497  C5'      -12.5390  -28.0400   39.9420 C.3    24  G24         0.1812
    498  O5'      -13.5620  -28.9820   40.2520 O.3    24  G24        -0.3114
    499  C4'      -11.2030  -28.6070   40.3180 C.3    24  G24         0.1773
    500  O4'      -10.9680  -29.8340   39.5780 O.3    24  G24        -0.3307
    501  C3'      -10.0380  -27.7180   39.9540 C.3    24  G24         0.1860
    502  O3'       -9.8260  -26.7250   40.9370 O.3    24  G24        -0.3112
    503  C2'       -8.8890  -28.7060   39.8140 C.3    24  G24         0.2309
    504  O2'       -8.3050  -29.0520   41.0500 O.3    24  G24        -0.2156
    505  C1'       -9.6000  -29.9170   39.2010 C.3    24  G24         0.2408
    506  N1        -6.5570  -29.6180   35.1550 N.ar   24  G24        -0.1709
    507  C2        -6.2270  -29.7430   36.4770 C.ar   24  G24         0.2606
    508  N2        -4.9130  -29.7600   36.7610 N.pl3  24  G24        -0.0859
    509  N3        -7.1150  -29.8450   37.4480 N.ar   24  G24        -0.1918
    510  C4        -8.3790  -29.8240   36.9790 C.ar   24  G24         0.1723
    511  C5        -8.8090  -29.7150   35.6780 C.ar   24  G24         0.1748
    512  C6        -7.8490  -29.5890   34.6520 C.ar   24  G24         0.3023
    513  O6        -8.0320  -29.4560   33.4390 O.2    24  G24        -0.2633
    514  N7       -10.1940  -29.7400   35.6120 N.ar   24  G24        -0.2173
    515  C8       -10.5770  -29.8490   36.8550 C.ar   24  G24         0.1817
    516  N9        -9.5270  -29.8810   37.7400 N.ar   24  G24        -0.2693
    517  OP1      -15.8130  -27.9780   40.5510 O.3    24  G24        -0.4373
    518  OP2      -14.8940  -28.4680   38.2100 O.co2  24  G24        -0.5172
    519  P         -9.7150  -25.1910   40.4860 P.3    25  G25         0.2141
    520  C5'       -7.1440  -25.3570   40.9460 C.3    25  G25         0.1812
    521  O5'       -8.1990  -25.0640   40.0280 O.3    25  G25        -0.3114
    522  C4'       -5.8300  -25.4510   40.2200 C.3    25  G25         0.1773
    523  O4'       -5.8280  -26.6250   39.3680 O.3    25  G25        -0.3307
    524  C3'       -5.5050  -24.3080   39.2770 C.3    25  G25         0.1860
    525  O3'       -4.9730  -23.1740   39.9370 O.3    25  G25        -0.3112
    526  C2'       -4.5040  -24.9520   38.3370 C.3    25  G25         0.2309
    527  O2'       -3.2140  -25.0130   38.9070 O.3    25  G25        -0.2156
    528  C1'       -5.0940  -26.3550   38.1850 C.3    25  G25         0.2408
    529  N1        -5.6020  -25.6980   33.1820 N.ar   25  G25        -0.1709
    530  C2        -4.4570  -25.8170   33.9380 C.ar   25  G25         0.2606
    531  N2        -3.2960  -25.6860   33.2910 N.pl3  25  G25        -0.0859
    532  N3        -4.4510  -26.0510   35.2380 N.ar   25  G25        -0.1918
    533  C4        -5.7010  -26.1730   35.7360 C.ar   25  G25         0.1723
    534  C5        -6.9090  -26.0930   35.0690 C.ar   25  G25         0.1748
    535  C6        -6.9030  -25.8170   33.6770 C.ar   25  G25         0.3023
    536  O6        -7.8700  -25.6660   32.9230 O.2    25  G25        -0.2633
    537  N7        -7.9710  -26.2910   35.9420 N.ar   25  G25        -0.2173
    538  C8        -7.4030  -26.4560   37.1070 C.ar   25  G25         0.1817
    539  N9        -6.0280  -26.3540   37.0590 N.ar   25  G25        -0.2693
    540  OP1       -9.9240  -24.3210   41.6690 O.3    25  G25        -0.4373
    541  OP2      -10.5900  -25.0260   39.2930 O.co2  25  G25        -0.5172
    542  P         -5.3360  -21.6980   39.3980 P.3    26  C26         0.2141
    543  C5'       -3.0460  -21.5590   38.1270 C.3    26  C26         0.1812
    544  O5'       -4.4780  -21.5780   38.0640 O.3    26  C26        -0.3114
    545  C4'       -2.4750  -21.0500   36.8310 C.3    26  C26         0.1773
    546  O4'       -2.6530  -22.0430   35.7890 O.3    26  C26        -0.3307
    547  C3'       -3.1230  -19.7910   36.2770 C.3    26  C26         0.1860
    548  O3'       -2.5990  -18.6140   36.8730 O.3    26  C26        -0.3112
    549  C2'       -2.8010  -19.8890   34.7930 C.3    26  C26         0.2309
    550  O2'       -1.4780  -19.4910   34.5160 O.3    26  C26        -0.2156
    551  C1'       -2.9100  -21.3960   34.5530 C.3    26  C26         0.2420
    552  N1        -4.2650  -21.7710   34.1000 N.ar   26  C26        -0.2535
    553  C2        -4.5880  -21.6550   32.7390 C.ar   26  C26         0.3532
    554  O2        -3.7080  -21.2960   31.9330 O.2    26  C26        -0.2443
    555  N3        -5.8450  -21.9450   32.3360 N.ar   26  C26        -0.1739
    556  C4        -6.7520  -22.3580   33.2210 C.ar   26  C26         0.1759
    557  N4        -7.9790  -22.6320   32.7780 N.pl3  26  C26        -0.1070
    558  C5        -6.4440  -22.5110   34.5980 C.ar   26  C26         0.0566
    559  C6        -5.2020  -22.2100   34.9920 C.ar   26  C26         0.0850
    560  OP1       -4.8040  -20.7020   40.3630 O.3    26  C26        -0.4373
    561  OP2       -6.7830  -21.6700   39.0400 O.co2  26  C26        -0.5172
    562  P         -3.5450  -17.3250   37.0410 P.3    27  U27         0.2141
    563  C5'       -2.5750  -16.2420   34.8450 C.3    27  U27         0.1812
    564  O5'       -3.7050  -16.7660   35.5590 O.3    27  U27        -0.3114
    565  C4'       -2.9560  -15.9130   33.4230 C.3    27  U27         0.1773
    566  O4'       -3.2320  -17.1320   32.6870 O.3    27  U27        -0.3307
    567  C3'       -4.2120  -15.0780   33.2340 C.3    27  U27         0.1860
    568  O3'       -4.0060  -13.6890   33.4200 O.3    27  U27        -0.3112
    569  C2'       -4.6140  -15.4020   31.8030 C.3    27  U27         0.2309
    570  O2'       -3.9290  -14.6150   30.8430 O.3    27  U27        -0.2156
    571  C1'       -4.2200  -16.8790   31.6990 C.3    27  U27         0.2420
    572  N1        -5.3840  -17.7390   31.9600 N.ar   27  U27        -0.2534
    573  C2        -6.1960  -18.0860   30.8820 C.ar   27  U27         0.3546
    574  O2        -5.9480  -17.7670   29.7260 O.2    27  U27        -0.2443
    575  N3        -7.3070  -18.8180   31.2110 N.ar   27  U27        -0.1530
    576  C4        -7.6740  -19.2380   32.4690 C.ar   27  U27         0.2846
    577  O4        -8.7300  -19.8510   32.6200 O.2    27  U27        -0.2650
    578  C5        -6.7700  -18.8710   33.5100 C.ar   27  U27         0.0814
    579  C6        -5.6850  -18.1580   33.2290 C.ar   27  U27         0.0870
    580  OP1       -2.8150  -16.3040   37.8350 O.3    27  U27        -0.4373
    581  OP2       -4.8660  -17.8120   37.5100 O.co2  27  U27        -0.5172
    582  P         -5.1040  -12.8330   34.2170 P.3    28  G28         0.2141
    583  C5'       -5.8610  -11.8620   31.8620 C.3    28  G28         0.1812
    584  O5'       -6.2130  -12.4540   33.1320 O.3    28  G28        -0.3114
    585  C4'       -6.9490  -12.1210   30.8370 C.3    28  G28         0.1773
    586  O4'       -7.0640  -13.5520   30.5860 O.3    28  G28        -0.3307
    587  C3'       -8.3520  -11.6970   31.2420 C.3    28  G28         0.1860
    588  O3'       -8.5910  -10.3120   31.0080 O.3    28  G28        -0.3112
    589  C2'       -9.2420  -12.5990   30.3910 C.3    28  G28         0.2309
    590  O2'       -9.4360  -12.0980   29.0860 O.3    28  G28        -0.2156
    591  C1'       -8.4210  -13.8920   30.3320 C.3    28  G28         0.2408
    592  N1       -11.6170  -17.7300   31.3890 N.ar   28  G28        -0.1709
    593  C2       -11.4190  -17.0740   30.2060 C.ar   28  G28         0.2606
    594  N2       -12.1850  -17.4820   29.1860 N.pl3  28  G28        -0.0859
    595  N3       -10.5360  -16.0960   30.0340 N.ar   28  G28        -0.1918
    596  C4        -9.8400  -15.8360   31.1660 C.ar   28  G28         0.1723
    597  C5        -9.9540  -16.4480   32.3970 C.ar   28  G28         0.1748
    598  C6       -10.9260  -17.4790   32.5660 C.ar   28  G28         0.3023
    599  O6       -11.2050  -18.1180   33.5830 O.2    28  G28        -0.2633
    600  N7        -9.0430  -15.9130   33.2990 N.ar   28  G28        -0.2173
    601  C8        -8.4150  -14.9890   32.6210 C.ar   28  G28         0.1817
    602  N9        -8.8610  -14.8700   31.3260 N.ar   28  G28        -0.2693
    603  OP1       -4.4430  -11.5960   34.7020 O.2    28  G28        -0.5172
    604  OP2       -5.7470  -13.7510   35.1920 O.co2  28  G28        -0.4373
    605  P         -9.5540   -9.4920   32.0060 P.3    29  A29         0.2141
    606  C5'      -12.0990   -9.8090   32.6300 C.3    29  A29         0.1812
    607  O5'      -11.0060  -10.0770   31.7230 O.3    29  A29        -0.3114
    608  C4'      -13.4200  -10.1910   31.9920 C.3    29  A29         0.1773
    609  O4'      -13.6220   -9.3900   30.8030 O.3    29  A29        -0.3307
    610  C3'      -13.5280  -11.6340   31.5330 C.3    29  A29         0.1860
    611  O3'      -14.0240  -12.4110   32.6180 O.3    29  A29        -0.3112
    612  C2'      -14.5240  -11.5460   30.3810 C.3    29  A29         0.2309
    613  O2'      -15.8590  -11.5000   30.8310 O.3    29  A29        -0.2156
    614  C1'      -14.2030  -10.1760   29.7840 C.3    29  A29         0.2408
    615  N1       -13.4860  -11.3380   24.7980 N.ar   29  A29        -0.2040
    616  C2       -14.5000  -11.5780   25.6270 C.ar   29  A29         0.2016
    617  N3       -14.6240  -11.2750   26.9180 N.ar   29  A29        -0.2048
    618  C4       -13.5250  -10.6430   27.3670 C.ar   29  A29         0.1692
    619  C5       -12.3960  -10.3350   26.6320 C.ar   29  A29         0.1518
    620  C6       -12.3960  -10.7020   25.2780 C.ar   29  A29         0.1919
    621  N6       -11.3810  -10.4530   24.4490 N.pl3  29  A29        -0.1054
    622  N7       -11.4500   -9.6970   27.4250 N.ar   29  A29        -0.2193
    623  C8       -12.0210   -9.6250   28.6010 C.ar   29  A29         0.1816
    624  N9       -13.2890  -10.1610   28.6370 N.ar   29  A29        -0.2693
    625  OP1       -9.5250   -8.0570   31.6250 O.2    29  A29        -0.5172
    626  OP2       -9.1950   -9.8940   33.3810 O.co2  29  A29        -0.4373
    627  P        -13.4230  -13.8770   32.9060 P.3    30  G30         0.2141
    628  C5'      -15.5680  -14.8720   31.7530 C.3    30  G30         0.1812
    629  O5'      -14.1370  -14.7870   31.8160 O.3    30  G30        -0.3114
    630  C4'      -15.9840  -15.3390   30.3860 C.3    30  G30         0.1773
    631  O4'      -15.6330  -14.3190   29.4230 O.3    30  G30        -0.3307
    632  C3'      -15.2570  -16.5900   29.9190 C.3    30  G30         0.1860
    633  O3'      -15.9450  -17.7590   30.3190 O.3    30  G30        -0.3112
    634  C2'      -15.2610  -16.4420   28.4100 C.3    30  G30         0.2309
    635  O2'      -16.4870  -16.8740   27.8640 O.3    30  G30        -0.2156
    636  C1'      -15.1370  -14.9270   28.2450 C.3    30  G30         0.2408
    637  N1       -11.4940  -13.8840   24.8580 N.ar   30  G30        -0.1709
    638  C2       -12.7380  -14.4250   24.6550 C.ar   30  G30         0.2606
    639  N2       -13.0650  -14.6970   23.3870 N.pl3  30  G30        -0.0859
    640  N3       -13.5970  -14.6810   25.6240 N.ar   30  G30        -0.1918
    641  C4       -13.1060  -14.3500   26.8390 C.ar   30  G30         0.1723
    642  C5       -11.8770  -13.8130   27.1490 C.ar   30  G30         0.1748
    643  C6       -10.9690  -13.5300   26.0940 C.ar   30  G30         0.3023
    644  O6        -9.8500  -13.0230   26.1610 O.2    30  G30        -0.2633
    645  N7       -11.7530  -13.6260   28.5180 N.ar   30  G30        -0.2173
    646  C8       -12.8930  -14.0310   29.0040 C.ar   30  G30         0.1817
    647  N9       -13.7670  -14.4640   28.0400 N.ar   30  G30        -0.2693
    648  OP1      -13.9290  -14.3160   34.2380 O.3    30  G30        -0.4373
    649  OP2      -11.9490  -13.8690   32.6410 O.co2  30  G30        -0.5172
    650  P        -15.1580  -18.9130   31.1050 P.3    31  A31         0.2141
    651  C5'      -14.8610  -19.8790   28.6910 C.3    31  A31         0.1812
    652  O5'      -14.3040  -19.6550   29.9850 O.3    31  A31        -0.3114
    653  C4'      -14.0590  -20.9030   27.9310 C.3    31  A31         0.1773
    654  O4'      -12.7760  -20.3520   27.5400 O.3    31  A31        -0.3307
    655  C3'      -13.7820  -22.2380   28.6150 C.3    31  A31         0.1860
    656  O3'      -14.0450  -23.2930   27.7040 O.3    31  A31        -0.3112
    657  C2'      -12.2800  -22.1900   28.8920 C.3    31  A31         0.2309
    658  O2'      -11.6660  -23.4640   28.8290 O.3    31  A31        -0.2156
    659  C1'      -11.7870  -21.3310   27.7310 C.3    31  A31         0.2408
    660  N1        -7.6650  -19.5910   25.2670 N.ar   31  A31        -0.2040
    661  C2        -8.8280  -20.0970   24.8440 C.ar   31  A31         0.2016
    662  N3        -9.8760  -20.5050   25.5530 N.ar   31  A31        -0.2048
    663  C4        -9.6480  -20.3500   26.8680 C.ar   31  A31         0.1692
    664  C5        -8.5100  -19.8400   27.4560 C.ar   31  A31         0.1518
    665  C6        -7.4670  -19.4460   26.5930 C.ar   31  A31         0.1919
    666  N6        -6.3020  -18.9440   27.0070 N.pl3  31  A31        -0.1054
    667  N7        -8.6400  -19.8280   28.8360 N.ar   31  A31        -0.2193
    668  C8        -9.8300  -20.3290   29.0450 C.ar   31  A31         0.1816
    669  N9       -10.4860  -20.6870   27.9000 N.ar   31  A31        -0.2693
    670  OP1      -16.1950  -19.8570   31.6000 O.2    31  A31        -0.5172
    671  OP2      -14.2060  -18.2870   32.0630 O.co2  31  A31        -0.4373
    672  P        -15.1520  -24.3990   28.0640 P.3    32  A32         0.2141
    673  C5'      -17.0630  -22.9600   26.9730 C.3    32  A32         0.1812
    674  O5'      -16.2740  -24.1600   26.9590 O.3    32  A32        -0.3114
    675  C4'      -18.4300  -23.2170   26.3830 C.3    32  A32         0.1773
    676  O4'      -18.4320  -23.0100   24.9490 O.3    32  A32        -0.3307
    677  C3'      -19.0190  -24.6020   26.6220 C.3    32  A32         0.1860
    678  O3'      -20.4090  -24.4450   26.8510 O.3    32  A32        -0.3112
    679  C2'      -18.8370  -25.2770   25.2660 C.3    32  A32         0.2309
    680  O2'      -19.7590  -26.3220   25.0290 O.3    32  A32        -0.2156
    681  C1'      -19.0910  -24.0920   24.3360 C.3    32  A32         0.2408
    682  N1       -15.3060  -25.2350   21.0090 N.ar   32  A32        -0.2040
    683  C2       -15.3670  -25.3010   22.3450 C.ar   32  A32         0.2016
    684  N3       -16.3750  -25.0000   23.1570 N.ar   32  A32        -0.2048
    685  C4       -17.4430  -24.5880   22.4510 C.ar   32  A32         0.1692
    686  C5       -17.5360  -24.4740   21.0750 C.ar   32  A32         0.1518
    687  C6       -16.3980  -24.8140   20.3300 C.ar   32  A32         0.1919
    688  N6       -16.3380  -24.7390   18.9970 N.pl3  32  A32        -0.1054
    689  N7       -18.7940  -24.0250   20.7020 N.ar   32  A32        -0.2193
    690  C8       -19.4210  -23.8710   21.8410 C.ar   32  A32         0.1816
    691  N9       -18.6620  -24.1880   22.9410 N.ar   32  A32        -0.2693
    692  OP1      -15.7470  -24.0810   29.3830 O.3    32  A32        -0.4373
    693  OP2      -14.5240  -25.7290   27.8460 O.co2  32  A32        -0.5172
    694  P        -20.9550  -24.3120   28.3470 P.3    33  A33         0.2141
    695  C5'      -19.6660  -22.8790   30.1550 C.3    33  A33         0.1812
    696  O5'      -20.3310  -22.9450   28.8760 O.3    33  A33        -0.3114
    697  C4'      -19.3180  -21.4480   30.4800 C.3    33  A33         0.1773
    698  O4'      -18.4510  -20.9340   29.4410 O.3    33  A33        -0.3307
    699  C3'      -20.5130  -20.5120   30.5140 C.3    33  A33         0.1860
    700  O3'      -21.0570  -20.4850   31.8350 O.3    33  A33        -0.3112
    701  C2'      -19.9220  -19.1740   30.0740 C.3    33  A33         0.2309
    702  O2'      -19.3030  -18.4690   31.1300 O.3    33  A33        -0.2156
    703  C1'      -18.8320  -19.6200   29.0960 C.3    33  A33         0.2408
    704  N1       -22.5480  -20.1240   25.5180 N.ar   33  A33        -0.2040
    705  C2       -22.6070  -20.0340   26.8520 C.ar   33  A33         0.2016
    706  N3       -21.6210  -19.8720   27.7310 N.ar   33  A33        -0.2048
    707  C4       -20.4350  -19.7890   27.1050 C.ar   33  A33         0.1692
    708  C5       -20.2140  -19.8530   25.7420 C.ar   33  A33         0.1518
    709  C6       -21.3390  -20.0400   24.9190 C.ar   33  A33         0.1919
    710  N6       -21.2730  -20.1470   23.5880 N.pl3  33  A33        -0.1054
    711  N7       -18.8650  -19.7160   25.4560 N.ar   33  A33        -0.2193
    712  C8       -18.3060  -19.5890   26.6310 C.ar   33  A33         0.1816
    713  N9       -19.1920  -19.6490   27.6770 N.ar   33  A33        -0.2693
    714  OP1      -20.3990  -25.4500   29.1450 O.3    33  A33        -0.4373
    715  OP2      -22.4290  -24.1270   28.2360 O.co2  33  A33        -0.5172
    716  P        -22.6520  -20.5420   32.0490 P.3    34  G34         0.2141
    717  C5'      -24.1910  -18.4000   31.9650 C.3    34  G34         0.1812
    718  O5'      -23.1760  -19.2040   31.3480 O.3    34  G34        -0.3114
    719  C4'      -23.8450  -16.9270   31.8760 C.3    34  G34         0.1773
    720  O4'      -22.4100  -16.7500   31.7350 O.3    34  G34        -0.3307
    721  C3'      -24.4230  -16.1420   30.7070 C.3    34  G34         0.1860
    722  O3'      -25.7650  -15.7320   30.9710 O.3    34  G34        -0.3112
    723  C2'      -23.4930  -14.9350   30.6190 C.3    34  G34         0.2309
    724  O2'      -23.8550  -13.9140   31.5220 O.3    34  G34        -0.2156
    725  C1'      -22.1530  -15.5250   31.0670 C.3    34  G34         0.2408
    726  N1       -21.3790  -16.4750   26.1120 N.ar   34  G34        -0.1709
    727  C2       -22.5620  -16.3380   26.7900 C.ar   34  G34         0.2606
    728  N2       -23.6710  -16.4600   26.0600 N.pl3  34  G34        -0.0859
    729  N3       -22.6480  -16.0950   28.0890 N.ar   34  G34        -0.1918
    730  C4       -21.4260  -15.9960   28.6680 C.ar   34  G34         0.1723
    731  C5       -20.1860  -16.1120   28.0780 C.ar   34  G34         0.1748
    732  C6       -20.1150  -16.3750   26.6810 C.ar   34  G34         0.3023
    733  O6       -19.1160  -16.5140   25.9760 O.2    34  G34        -0.2633
    734  N7       -19.1760  -15.9370   29.0150 N.ar   34  G34        -0.2173
    735  C8       -19.8060  -15.7230   30.1370 C.ar   34  G34         0.1817
    736  N9       -21.1740  -15.7430   30.0030 N.ar   34  G34        -0.2693
    737  OP1      -22.8720  -20.4630   33.5170 O.3    34  G34        -0.4373
    738  OP2      -23.1820  -21.7060   31.2900 O.co2  34  G34        -0.5172
    739  P        -26.7240  -15.2900   29.7510 P.3    35  U35         0.2141
    740  C5'      -26.4950  -13.2630   28.0850 C.3    35  U35         0.1812
    741  O5'      -26.2250  -13.8190   29.3830 O.3    35  U35        -0.3114
    742  C4'      -25.4200  -12.2790   27.7010 C.3    35  U35         0.1773
    743  O4'      -25.3950  -12.1550   26.2570 O.3    35  U35        -0.3307
    744  C3'      -25.5600  -10.8650   28.2640 C.3    35  U35         0.1860
    745  O3'      -24.2530  -10.3340   28.5120 O.3    35  U35        -0.3112
    746  C2'      -26.1720  -10.0990   27.0870 C.3    35  U35         0.2309
    747  O2'      -25.8540   -8.7220   27.0690 O.3    35  U35        -0.2156
    748  C1'      -25.5020  -10.7950   25.9060 C.3    35  U35         0.2420
    749  N1       -26.1390  -10.6730   24.5830 N.ar   35  U35        -0.2534
    750  C2       -27.0900  -11.6120   24.1850 C.ar   35  U35         0.3546
    751  O2       -27.5060  -12.5000   24.9120 O.2    35  U35        -0.2443
    752  N3       -27.5410  -11.4610   22.8980 N.ar   35  U35        -0.1530
    753  C4       -27.1730  -10.4820   21.9970 C.ar   35  U35         0.2846
    754  O4       -27.5870  -10.5390   20.8360 O.2    35  U35        -0.2650
    755  C5       -26.2370   -9.5260   22.5030 C.ar   35  U35         0.0814
    756  C6       -25.7650   -9.6540   23.7450 C.ar   35  U35         0.0870
    757  OP1      -28.1110  -15.1870   30.2630 O.3    35  U35        -0.4373
    758  OP2      -26.4360  -16.1820   28.5910 O.co2  35  U35        -0.5172
    759  P        -23.5610  -10.5120   29.9580 P.3    36  C36         0.2141
    760  C5'      -21.0320  -11.0860   30.5310 C.3    36  C36         0.1812
    761  O5'      -22.1510  -11.1770   29.6170 O.3    36  C36        -0.3114
    762  C4'      -19.7160  -11.2610   29.7860 C.3    36  C36         0.1773
    763  O4'      -19.6930  -12.5660   29.1440 O.3    36  C36        -0.3307
    764  C3'      -19.4170  -10.2700   28.6650 C.3    36  C36         0.1860
    765  O3'      -18.7790   -9.0960   29.1560 O.3    36  C36        -0.3112
    766  C2'      -18.4660  -11.0560   27.7760 C.3    36  C36         0.2309
    767  O2'      -17.1580  -11.0340   28.3020 O.3    36  C36        -0.2156
    768  C1'      -19.0230  -12.4750   27.8990 C.3    36  C36         0.2420
    769  N1       -19.9840  -12.8120   26.8290 N.ar   36  C36        -0.2535
    770  C2       -19.5010  -13.1140   25.5430 C.ar   36  C36         0.3532
    771  O2       -18.2790  -13.0880   25.3320 O.2    36  C36        -0.2443
    772  N3       -20.3820  -13.4180   24.5610 N.ar   36  C36        -0.1739
    773  C4       -21.6920  -13.4190   24.8150 C.ar   36  C36         0.1759
    774  N4       -22.5230  -13.7090   23.8100 N.pl3  36  C36        -0.1070
    775  C5       -22.2070  -13.1170   26.1090 C.ar   36  C36         0.0566
    776  C6       -21.3280  -12.8250   27.0760 C.ar   36  C36         0.0850
    777  OP1      -24.3480  -11.4800   30.7660 O.3    36  C36        -0.4373
    778  OP2      -23.3050   -9.1410   30.4920 O.co2  36  C36        -0.5172
    779  P        -18.9560   -7.7030   28.3710 P.3    37  C37         0.2141
    780  C5'      -16.6820   -7.8880   27.0440 C.3    37  C37         0.1812
    781  O5'      -18.1210   -7.8910   27.0280 O.3    37  C37        -0.3114
    782  C4'      -16.1420   -8.1760   25.6640 C.3    37  C37         0.1773
    783  O4'      -16.5650   -9.4980   25.2500 O.3    37  C37        -0.3307
    784  C3'      -16.6420   -7.2740   24.5510 C.3    37  C37         0.1860
    785  O3'      -15.9220   -6.0660   24.4570 O.3    37  C37        -0.3112
    786  C2'      -16.4460   -8.1270   23.3100 C.3    37  C37         0.2309
    787  O2'      -15.1130   -8.0790   22.8430 O.3    37  C37        -0.2156
    788  C1'      -16.7620   -9.5220   23.8460 C.3    37  C37         0.2420
    789  N1       -18.1490   -9.9400   23.5520 N.ar   37  C37        -0.2535
    790  C2       -18.4160  -10.5410   22.3190 C.ar   37  C37         0.3532
    791  O2       -17.4790  -10.7340   21.5360 O.2    37  C37        -0.2443
    792  N3       -19.6840  -10.9000   22.0140 N.ar   37  C37        -0.1739
    793  C4       -20.6650  -10.6930   22.8950 C.ar   37  C37         0.1759
    794  N4       -21.9060  -11.0570   22.5530 N.pl3  37  C37        -0.1070
    795  C5       -20.4220  -10.1000   24.1670 C.ar   37  C37         0.0566
    796  C6       -19.1610   -9.7400   24.4510 C.ar   37  C37         0.0850
    797  OP1      -18.3100   -6.6200   29.1560 O.3    37  C37        -0.4373
    798  OP2      -20.3930   -7.5960   28.0040 O.co2  37  C37        -0.5172
    799  P        -16.5860   -4.8270   23.6930 P.3    38  C38         0.2141
    800  C5'      -15.3220   -5.3600   21.4420 C.3    38  C38         0.1812
    801  O5'      -16.5620   -5.2670   22.1640 O.3    38  C38        -0.3114
    802  C4'      -15.5810   -5.7660   20.0100 C.3    38  C38         0.1773
    803  O4'      -16.2530   -7.0540   19.9980 O.3    38  C38        -0.3307
    804  C3'      -16.4910   -4.8450   19.2130 C.3    38  C38         0.1860
    805  O3'      -15.7600   -3.7760   18.6280 O.3    38  C38        -0.3112
    806  C2'      -17.0820   -5.7840   18.1710 C.3    38  C38         0.2309
    807  O2'      -16.1790   -6.0270   17.1090 O.3    38  C38        -0.2156
    808  C1'      -17.2290   -7.0770   18.9720 C.3    38  C38         0.2420
    809  N1       -18.5570   -7.2180   19.6080 N.ar   38  C38        -0.2535
    810  C2       -19.6350   -7.6740   18.8440 C.ar   38  C38         0.3532
    811  O2       -19.4580   -7.9370   17.6490 O.2    38  C38        -0.2443
    812  N3       -20.8450   -7.8140   19.4320 N.ar   38  C38        -0.1739
    813  C4       -21.0000   -7.5190   20.7260 C.ar   38  C38         0.1759
    814  N4       -22.2100   -7.6850   21.2680 N.pl3  38  C38        -0.1070
    815  C5       -19.9230   -7.0460   21.5220 C.ar   38  C38         0.0566
    816  C6       -18.7330   -6.9110   20.9310 C.ar   38  C38         0.0850
    817  OP1      -15.7110   -3.6400   23.8670 O.2    38  C38        -0.5172
    818  OP2      -18.0020   -4.7670   24.1220 O.co2  38  C38        -0.4373
    819  P        -16.5150   -2.4090   18.2530 P.3    39  U39         0.2141
    820  C5'      -16.9540   -3.1260   15.7730 C.3    39  U39         0.1812
    821  O5'      -17.4810   -2.8200   17.0640 O.3    39  U39        -0.3114
    822  C4'      -18.0750   -3.4350   14.8220 C.3    39  U39         0.1773
    823  O4'      -18.8310   -4.5600   15.3250 O.3    39  U39        -0.3307
    824  C3'      -19.1050   -2.3320   14.6460 C.3    39  U39         0.1860
    825  O3'      -18.6830   -1.4240   13.6420 O.3    39  U39        -0.3112
    826  C2'      -20.3480   -3.0950   14.2010 C.3    39  U39         0.2309
    827  O2'      -20.3580   -3.3430   12.8110 O.3    39  U39        -0.2156
    828  C1'      -20.1860   -4.4240   14.9380 C.3    39  U39         0.2420
    829  N1       -21.0540   -4.5910   16.1150 N.ar   39  U39        -0.2534
    830  C2       -22.3860   -4.9110   15.8800 C.ar   39  U39         0.3546
    831  O2       -22.8540   -5.0230   14.7520 O.2    39  U39        -0.2443
    832  N3       -23.1460   -5.0990   17.0100 N.ar   39  U39        -0.1530
    833  C4       -22.7270   -5.0020   18.3200 C.ar   39  U39         0.2846
    834  O4       -23.5190   -5.2730   19.2300 O.2    39  U39        -0.2650
    835  C5       -21.3450   -4.6450   18.4820 C.ar   39  U39         0.0814
    836  C6       -20.5760   -4.4560   17.4020 C.ar   39  U39         0.0870
    837  OP1      -15.5350   -1.4420   17.7180 O.2    39  U39        -0.5172
    838  OP2      -17.3590   -2.0350   19.4110 O.co2  39  U39        -0.4373
    839  P        -18.7220    0.1520   13.9270 P.3    40  U40         0.2141
    840  C5'      -16.4840    0.9810   12.8080 C.3    40  U40         0.1812
    841  O5'      -17.9040    0.7720   12.7040 O.3    40  U40        -0.3114
    842  C4'      -15.8140    0.8080   11.4630 C.3    40  U40         0.1773
    843  O4'      -15.9690   -0.5610   10.9990 O.3    40  U40        -0.3307
    844  C3'      -16.3040    1.7060   10.3290 C.3    40  U40         0.1860
    845  O3'      -15.1760    2.1040    9.5480 O.3    40  U40        -0.3112
    846  C2'      -17.1660    0.7580    9.4990 C.3    40  U40         0.2309
    847  O2'      -17.2920    1.1000    8.1310 O.3    40  U40        -0.2156
    848  C1'      -16.3850   -0.5400    9.6540 C.3    40  U40         0.2420
    849  N1       -17.1160   -1.7720    9.3230 N.ar   40  U40        -0.2534
    850  C2       -16.9730   -2.2470    8.0320 C.ar   40  U40         0.3546
    851  O2       -16.2710   -1.7020    7.1960 O.2    40  U40        -0.2443
    852  N3       -17.6730   -3.3870    7.7490 N.ar   40  U40        -0.1530
    853  C4       -18.4740   -4.0980    8.6050 C.ar   40  U40         0.2846
    854  O4       -18.9940   -5.1440    8.2090 O.2    40  U40        -0.2650
    855  C5       -18.5740   -3.5480    9.9290 C.ar   40  U40         0.0814
    856  C6       -17.9080   -2.4310   10.2330 C.ar   40  U40         0.0870
    857  OP1      -17.9760    0.4050   15.1950 O.3    40  U40        -0.4373
    858  OP2      -20.1450    0.5690   13.8140 O.co2  40  U40        -0.5172
    859  P        -14.7980    3.6590    9.4240 P.3    41  U41         0.2141
    860  C5'      -12.6810    3.7670   11.0170 C.3    41  U41         0.1812
    861  O5'      -14.0930    4.0110   10.8080 O.3    41  U41        -0.3114
    862  C4'      -12.2500    4.3460   12.3470 C.3    41  U41         0.1773
    863  O4'      -12.5420    5.7660   12.2970 O.3    41  U41        -0.3307
    864  C3'      -13.0340    3.7980   13.5390 C.3    41  U41         0.1860
    865  O3'      -12.4350    2.7110   14.2920 O.3    41  U41        -0.3112
    866  C2'      -13.1060    4.9930   14.4890 C.3    41  U41         0.2309
    867  O2'      -12.0010    5.0620   15.3690 O.3    41  U41        -0.2156
    868  C1'      -13.0790    6.1890   13.5320 C.3    41  U41         0.2420
    869  N1       -14.3820    6.8270   13.2850 N.ar   41  U41        -0.2534
    870  C2       -14.6410    8.0410   13.9260 C.ar   41  U41         0.3546
    871  O2       -13.8430    8.5800   14.6830 O.2    41  U41        -0.2443
    872  N3       -15.8720    8.5960   13.6440 N.ar   41  U41        -0.1530
    873  C4       -16.8550    8.0780   12.8070 C.ar   41  U41         0.2846
    874  O4       -17.9040    8.7110   12.6330 O.2    41  U41        -0.2650
    875  C5       -16.5150    6.8210   12.1890 C.ar   41  U41         0.0814
    876  C6       -15.3220    6.2530   12.4420 C.ar   41  U41         0.0870
    877  OP1      -16.0600    4.4390    9.3360 O.3    41  U41        -0.4373
    878  OP2      -13.7880    3.7680    8.3440 O.co2  41  U41        -0.5172
    879  P        -11.1320    1.8990   13.7580 P.3    42  G42         0.2141
    880  C5'      -12.2770   -0.0240   15.1550 C.3    42  G42         0.1812
    881  O5'      -11.5290    0.3750   13.9940 O.3    42  G42        -0.3114
    882  C4'      -12.9960   -1.3250   14.8920 C.3    42  G42         0.1773
    883  O4'      -13.9390   -1.1310   13.8050 O.3    42  G42        -0.3307
    884  C3'      -12.1470   -2.4940   14.4140 C.3    42  G42         0.1860
    885  O3'      -11.4430   -3.1730   15.4320 O.3    42  G42        -0.3112
    886  C2'      -13.1730   -3.3700   13.7200 C.3    42  G42         0.2309
    887  O2'      -13.9620   -4.0990   14.6460 O.3    42  G42        -0.2156
    888  C1'      -14.0340   -2.3170   13.0280 C.3    42  G42         0.2408
    889  N1       -13.6910   -3.9330    8.2240 N.ar   42  G42        -0.1709
    890  C2       -14.3360   -4.5020    9.2910 C.ar   42  G42         0.2606
    891  N2       -14.9830   -5.6490    9.0480 N.pl3  42  G42        -0.0859
    892  N3       -14.3510   -3.9850   10.5060 N.ar   42  G42        -0.1918
    893  C4       -13.6760   -2.8210   10.5700 C.ar   42  G42         0.1723
    894  C5       -13.0030   -2.1630    9.5640 C.ar   42  G42         0.1748
    895  C6       -12.9740   -2.7390    8.2680 C.ar   42  G42         0.3023
    896  O6       -12.4090   -2.3170    7.2490 O.2    42  G42        -0.2633
    897  N7       -12.4430   -0.9850   10.0340 N.ar   42  G42        -0.2173
    898  C8       -12.7770   -0.9490   11.2950 C.ar   42  G42         0.1817
    899  N9       -13.5210   -2.0350   11.6890 N.ar   42  G42        -0.2693
    900  OP1       -9.9990    2.1860   14.6840 O.3    42  G42        -0.4373
    901  OP2      -10.9260    2.0390   12.2960 O.co2  42  G42        -0.5172
    902  P         -9.8580   -3.3460   15.2800 P.3    43  A43         0.2141
    903  C5'      -10.0100   -5.2690   17.0120 C.3    43  A43         0.1812
    904  O5'       -9.3960   -4.0580   16.6150 O.3    43  A43        -0.3114
    905  C4'       -8.9950   -6.1620   17.6410 C.3    43  A43         0.1773
    906  O4'       -7.9930   -6.4880   16.6470 O.3    43  A43        -0.3307
    907  C3'       -8.2730   -5.5710   18.8390 C.3    43  A43         0.1860
    908  O3'       -8.1670   -6.5380   19.8650 O.3    43  A43        -0.3112
    909  C2'       -6.8970   -5.2120   18.2940 C.3    43  A43         0.2309
    910  O2'       -5.8790   -5.4210   19.2560 O.3    43  A43        -0.2156
    911  C1'       -6.7130   -6.2190   17.1610 C.3    43  A43         0.2408
    912  N1        -3.8640   -7.4680   13.0350 N.ar   43  A43        -0.2040
    913  C2        -4.6620   -8.1900   13.8280 C.ar   43  A43         0.2016
    914  N3        -5.4000   -7.8000   14.8750 N.ar   43  A43        -0.2048
    915  C4        -5.2710   -6.4810   15.0870 C.ar   43  A43         0.1692
    916  C5        -4.4960   -5.6030   14.3520 C.ar   43  A43         0.1518
    917  C6        -3.7460   -6.1460   13.2800 C.ar   43  A43         0.1919
    918  N6        -2.9240   -5.4290   12.5140 N.pl3  43  A43        -0.1054
    919  N7        -4.6180   -4.3120   14.8470 N.ar   43  A43        -0.2193
    920  C8        -5.4360   -4.4380   15.8590 C.ar   43  A43         0.1816
    921  N9        -5.8560   -5.7280   16.0770 N.ar   43  A43        -0.2693
    922  OP1       -9.2370   -2.0070   15.2370 O.3    43  A43        -0.4373
    923  OP2       -9.6310   -4.2930   14.1690 O.co2  43  A43        -0.5172
    924  P         -9.1420   -6.4480   21.1410 P.3    44  A44         0.2141
    925  C5'      -11.1630   -7.5310   19.8970 C.3    44  A44         0.1812
    926  O5'      -10.1790   -7.6320   20.9170 O.3    44  A44        -0.3114
    927  C4'      -12.3660   -8.3590   20.2440 C.3    44  A44         0.1773
    928  O4'      -13.4410   -7.9210   19.3850 O.3    44  A44        -0.3307
    929  C3'      -12.2320   -9.8550   20.0050 C.3    44  A44         0.1860
    930  O3'      -11.7430  -10.5280   21.1680 O.3    44  A44        -0.3112
    931  C2'      -13.6660  -10.2630   19.6800 C.3    44  A44         0.2309
    932  O2'      -14.4580  -10.4560   20.8380 O.3    44  A44        -0.2156
    933  C1'      -14.1890   -9.0280   18.9400 C.3    44  A44         0.2408
    934  N1       -16.2770  -10.5440   14.4710 N.ar   44  A44        -0.2040
    935  C2       -16.6890  -10.6710   15.7340 C.ar   44  A44         0.2016
    936  N3       -16.1070  -10.2590   16.8570 N.ar   44  A44        -0.2048
    937  C4       -14.9430   -9.6370   16.5860 C.ar   44  A44         0.1692
    938  C5       -14.3900   -9.4280   15.3340 C.ar   44  A44         0.1518
    939  C6       -15.1060   -9.9130   14.2320 C.ar   44  A44         0.1919
    940  N6       -14.6960   -9.7840   12.9700 N.pl3  44  A44        -0.1054
    941  N7       -13.1890   -8.7440   15.4350 N.ar   44  A44        -0.2193
    942  C8       -13.0380   -8.5610   16.7220 C.ar   44  A44         0.1816
    943  N9       -14.0620   -9.0750   17.4820 N.ar   44  A44        -0.2693
    944  OP1       -9.8940   -5.1670   21.1110 O.2    44  A44        -0.5172
    945  OP2       -8.3320   -6.8000   22.3300 O.co2  44  A44        -0.4373
    946  P        -10.8360  -11.8510   21.0140 P.3    45  C45         0.2141
    947  C5'      -10.7540  -13.4180   18.9570 C.3    45  C45         0.1812
    948  O5'      -11.5270  -12.6280   19.8260 O.3    45  C45        -0.3114
    949  C4'      -11.5540  -13.7480   17.7440 C.3    45  C45         0.1773
    950  O4'      -12.1740  -12.5430   17.2320 O.3    45  C45        -0.3307
    951  C3'      -10.7100  -14.2600   16.6030 C.3    45  C45         0.1860
    952  O3'      -10.4280  -15.6290   16.7690 O.3    45  C45        -0.3112
    953  C2'      -11.5390  -13.8930   15.3800 C.3    45  C45         0.2309
    954  O2'      -12.5900  -14.7990   15.1230 O.3    45  C45        -0.2156
    955  C1'      -12.1140  -12.5410   15.8140 C.3    45  C45         0.2420
    956  N1       -11.2430  -11.4250   15.4020 N.ar   45  C45        -0.2535
    957  C2       -11.2860  -10.9950   14.0800 C.ar   45  C45         0.3532
    958  O2       -12.1030  -11.5210   13.3090 O.2    45  C45        -0.2443
    959  N3       -10.4430  -10.0170   13.6740 N.ar   45  C45        -0.1739
    960  C4        -9.5970   -9.4640   14.5430 C.ar   45  C45         0.1759
    961  N4        -8.7680   -8.5200   14.0980 N.pl3  45  C45        -0.1070
    962  C5        -9.5580   -9.8600   15.9060 C.ar   45  C45         0.0566
    963  C6       -10.3900  -10.8330   16.2910 C.ar   45  C45         0.0850
    964  OP1      -10.9830  -12.7160   22.2020 O.3    45  C45        -0.4373
    965  OP2       -9.4730  -11.4460   20.5630 O.co2  45  C45        -0.5172
    966  P         -8.9830  -16.1730   16.3750 P.3    46  C46         0.2141
    967  C5'      -10.1770  -17.0440   14.2100 C.3    46  C46         0.1812
    968  O5'       -9.1130  -16.2810   14.7990 O.3    46  C46        -0.3114
    969  C4'      -10.1290  -16.9240   12.7180 C.3    46  C46         0.1773
    970  O4'      -10.4900  -15.5790   12.3340 O.3    46  C46        -0.3307
    971  C3'       -8.7490  -17.1240   12.1280 C.3    46  C46         0.1860
    972  O3'       -8.4720  -18.4760   11.9100 O.3    46  C46        -0.3112
    973  C2'       -8.8200  -16.3510   10.8290 C.3    46  C46         0.2309
    974  O2'       -9.4560  -17.1010    9.8200 O.3    46  C46        -0.2156
    975  C1'       -9.6990  -15.1730   11.2350 C.3    46  C46         0.2420
    976  N1        -8.9140  -13.9970   11.6390 N.ar   46  C46        -0.2535
    977  C2        -8.3530  -13.1980   10.6430 C.ar   46  C46         0.3532
    978  O2        -8.4750  -13.5490    9.4570 O.2    46  C46        -0.2443
    979  N3        -7.6890  -12.0710   10.9940 N.ar   46  C46        -0.1739
    980  C4        -7.5600  -11.7500   12.2830 C.ar   46  C46         0.1759
    981  N4        -6.9280  -10.6240   12.5800 N.pl3  46  C46        -0.1070
    982  C5        -8.0860  -12.5720   13.3210 C.ar   46  C46         0.0566
    983  C6        -8.7490  -13.6750   12.9590 C.ar   46  C46         0.0850
    984  OP1       -8.7970  -17.5440   16.8990 O.3    46  C46        -0.4373
    985  OP2       -8.0000  -15.1190   16.7140 O.co2  46  C46        -0.5172
    986  P         -6.9560  -18.9610   11.8710 P.3    47  U47         0.2141
    987  C5'       -6.7580  -18.7360    9.2590 C.3    47  U47         0.1812
    988  O5'       -6.3790  -18.2810   10.5570 O.3    47  U47        -0.3114
    989  C4'       -5.8930  -18.0740    8.2160 C.3    47  U47         0.1773
    990  O4'       -6.1850  -16.6590    8.1600 O.3    47  U47        -0.3307
    991  C3'       -4.3950  -18.1400    8.4590 C.3    47  U47         0.1860
    992  O3'       -3.8520  -19.3340    7.9520 O.3    47  U47        -0.3112
    993  C2'       -3.8690  -16.9510    7.6740 C.3    47  U47         0.2309
    994  O2'       -3.6840  -17.2280    6.3080 O.3    47  U47        -0.2156
    995  C1'       -5.0070  -15.9480    7.8280 C.3    47  U47         0.2420
    996  N1        -4.7340  -14.9530    8.8750 N.ar   47  U47        -0.2534
    997  C2        -3.8880  -13.9170    8.5460 C.ar   47  U47         0.3546
    998  O2        -3.3230  -13.8410    7.4630 O.2    47  U47        -0.2443
    999  N3        -3.7090  -12.9850    9.5320 N.ar   47  U47        -0.1530
   1000  C4        -4.2560  -13.0000   10.7900 C.ar   47  U47         0.2846
   1001  O4        -4.0420  -12.0590   11.5490 O.2    47  U47        -0.2650
   1002  C5        -5.0880  -14.1230   11.0670 C.ar   47  U47         0.0814
   1003  C6        -5.2970  -15.0350   10.1260 C.ar   47  U47         0.0870
   1004  OP1       -6.9920  -20.4340   11.6960 O.2    47  U47        -0.5172
   1005  OP2       -6.2360  -18.3690   13.0190 O.co2  47  U47        -0.4373
   1006  P         -2.5690  -19.9800    8.6510 P.3    48  G48         0.2141
   1007  C5'       -0.8370  -18.7580    7.0750 C.3    48  G48         0.1812
   1008  O5'       -1.4030  -18.9270    8.3880 O.3    48  G48        -0.3114
   1009  C4'        0.1520  -17.6240    7.0750 C.3    48  G48         0.1773
   1010  O4'       -0.5450  -16.4090    7.4380 O.3    48  G48        -0.3307
   1011  C3'        1.3000  -17.7200    8.0710 C.3    48  G48         0.1860
   1012  O3'        2.4130  -18.4090    7.5220 O.3    48  G48        -0.3112
   1013  C2'        1.6760  -16.2560    8.2600 C.3    48  G48         0.2309
   1014  O2'        2.4740  -15.7940    7.1830 O.3    48  G48        -0.2156
   1015  C1'        0.3160  -15.5630    8.1750 C.3    48  G48         0.2408
   1016  N1        -0.5090  -12.1750   11.8490 N.ar   48  G48        -0.1709
   1017  C2         0.2000  -12.0370   10.6880 C.ar   48  G48         0.2606
   1018  N2         0.7500  -10.8300   10.4740 N.pl3  48  G48        -0.0859
   1019  N3         0.3590  -13.0030    9.8020 N.ar   48  G48        -0.1918
   1020  C4        -0.2600  -14.1360   10.1820 C.ar   48  G48         0.1723
   1021  C5        -0.9910  -14.3750   11.3260 C.ar   48  G48         0.1748
   1022  C6        -1.1520  -13.3330   12.2580 C.ar   48  G48         0.3023
   1023  O6        -1.7660  -13.3490   13.3210 O.2    48  G48        -0.2633
   1024  N7        -1.4700  -15.6770   11.3470 N.ar   48  G48        -0.2173
   1025  C8        -1.0320  -16.1970   10.2330 C.ar   48  G48         0.1817
   1026  N9        -0.2960  -15.3120    9.4750 N.ar   48  G48        -0.2693
   1027  OP1       -2.2650  -21.2400    7.9270 O.2    48  G48        -0.5172
   1028  OP2       -2.8370  -20.0190   10.0900 O.co2  48  G48        -0.4373
   1029  P          2.5620  -19.9940    7.7200 P.3    49  A49         0.2141
   1030  C5'        2.4740  -21.5620    9.8550 C.3    49  A49         0.1812
   1031  O5'        2.1580  -20.2880    9.2320 O.3    49  A49        -0.3114
   1032  C4'        1.8320  -21.6470   11.2290 C.3    49  A49         0.1773
   1033  O4'        2.3170  -20.5340   12.0200 O.3    49  A49        -0.3307
   1034  C3'        0.3090  -21.5540   11.2490 C.3    49  A49         0.1860
   1035  O3'       -0.1830  -22.2330   12.4040 O.3    49  A49        -0.3112
   1036  C2'        0.0670  -20.0680   11.4840 C.3    49  A49         0.2309
   1037  O2'       -1.1540  -19.8030   12.1490 O.3    49  A49        -0.2156
   1038  C1'        1.2420  -19.7050   12.3900 C.3    49  A49         0.2408
   1039  N1         0.9300  -14.9020   14.1920 N.ar   49  A49        -0.2040
   1040  C2         0.3300  -16.0390   14.5640 C.ar   49  A49         0.2016
   1041  N3         0.4460  -17.2580   14.0490 N.ar   49  A49        -0.2048
   1042  C4         1.3090  -17.2540   13.0210 C.ar   49  A49         0.1692
   1043  C5         2.0030  -16.1710   12.5260 C.ar   49  A49         0.1518
   1044  C6         1.7920  -14.9360   13.1530 C.ar   49  A49         0.1919
   1045  N6         2.3900  -13.8010   12.7790 N.pl3  49  A49        -0.1054
   1046  N7         2.7970  -16.5460   11.4550 N.ar   49  A49        -0.2193
   1047  C8         2.5720  -17.8270   11.3310 C.ar   49  A49         0.1816
   1048  N9         1.6870  -18.3220   12.2490 N.ar   49  A49        -0.2693
   1049  OP1        3.9970  -20.3090    7.5730 O.3    49  A49        -0.4373
   1050  OP2        1.5680  -20.6370    6.8230 O.co2  49  A49        -0.5172
   1051  P         -0.4410  -23.8190   12.3820 P.3    50  A50         0.2141
   1052  C5'        0.8220  -23.8830   14.6960 C.3    50  A50         0.1812
   1053  O5'        0.7070  -24.3690   13.3400 O.3    50  A50        -0.3114
   1054  C4'        2.2050  -24.1500   15.2350 C.3    50  A50         0.1773
   1055  O4'        2.4520  -25.5740   15.1490 O.3    50  A50        -0.3307
   1056  C3'        3.3300  -23.4660   14.4700 C.3    50  A50         0.1860
   1057  O3'        4.3900  -23.1700   15.3640 O.3    50  A50        -0.3112
   1058  C2'        3.7960  -24.5510   13.5110 C.3    50  A50         0.2309
   1059  O2'        5.1520  -24.4350   13.1510 O.3    50  A50        -0.2156
   1060  C1'        3.5750  -25.8150   14.3340 C.3    50  A50         0.2408
   1061  N1         5.3400  -30.2870   12.5510 N.ar   50  A50        -0.2040
   1062  C2         5.8630  -29.3820   13.3840 C.ar   50  A50         0.2016
   1063  N3         5.3470  -28.2400   13.8090 N.ar   50  A50        -0.2048
   1064  C4         4.1260  -28.0480   13.2840 C.ar   50  A50         0.1692
   1065  C5         3.4550  -28.8840   12.4130 C.ar   50  A50         0.1518
   1066  C6         4.1120  -30.0580   12.0310 C.ar   50  A50         0.1919
   1067  N6         3.5940  -30.9560   11.1840 N.pl3  50  A50        -0.1054
   1068  N7         2.2120  -28.3610   12.0860 N.ar   50  A50        -0.2193
   1069  C8         2.1600  -27.2320   12.7550 C.ar   50  A50         0.1816
   1070  N9         3.2890  -26.9780   13.4960 N.ar   50  A50        -0.2693
   1071  OP1       -0.2800  -24.3800   11.0220 O.2    50  A50        -0.5172
   1072  OP2       -1.7120  -24.0150   13.0950 O.co2  50  A50        -0.4373
   1073  P          4.5550  -21.6920   15.9580 P.3    51  C51         0.2141
   1074  C5'        5.4150  -21.0900   13.5320 C.3    51  C51         0.1812
   1075  O5'        4.5880  -20.7600   14.6700 O.3    51  C51        -0.3114
   1076  C4'        6.2410  -19.8980   13.1190 C.3    51  C51         0.1773
   1077  O4'        5.3530  -18.7990   12.8010 O.3    51  C51        -0.3307
   1078  C3'        7.1790  -19.3500   14.1850 C.3    51  C51         0.1860
   1079  O3'        8.4230  -20.0550   14.1760 O.3    51  C51        -0.3112
   1080  C2'        7.3180  -17.8890   13.7720 C.3    51  C51         0.2309
   1081  O2'        8.2160  -17.7100   12.6950 O.3    51  C51        -0.2156
   1082  C1'        5.9110  -17.5810   13.2620 C.3    51  C51         0.2420
   1083  N1         5.0300  -17.0530   14.3180 N.ar   51  C51        -0.2535
   1084  C2         5.1310  -15.7050   14.6890 C.ar   51  C51         0.3532
   1085  O2         5.9750  -14.9830   14.1290 O.2    51  C51        -0.2443
   1086  N3         4.3090  -15.2290   15.6570 N.ar   51  C51        -0.1739
   1087  C4         3.4310  -16.0440   16.2490 C.ar   51  C51         0.1759
   1088  N4         2.6510  -15.5460   17.1970 N.pl3  51  C51        -0.1070
   1089  C5         3.3170  -17.4100   15.8940 C.ar   51  C51         0.0566
   1090  C6         4.1240  -17.8680   14.9360 C.ar   51  C51         0.0850
   1091  OP1        5.8790  -21.6210   16.6190 O.2    51  C51        -0.5172
   1092  OP2        3.3440  -21.3690   16.7370 O.co2  51  C51        -0.4373
   1093  P          9.3370  -20.1080   15.5040 P.3    52  A52         0.2141
   1094  C5'       10.6600  -17.9560   14.7430 C.3    52  A52         0.1812
   1095  O5'        9.8150  -18.6040   15.7040 O.3    52  A52        -0.3114
   1096  C4'       10.9490  -16.5480   15.1910 C.3    52  A52         0.1773
   1097  O4'        9.7210  -15.7750   15.1770 O.3    52  A52        -0.3307
   1098  C3'       11.4510  -16.4320   16.6200 C.3    52  A52         0.1860
   1099  O3'       12.8540  -16.6420   16.6820 O.3    52  A52        -0.3112
   1100  C2'       11.0280  -15.0250   17.0270 C.3    52  A52         0.2309
   1101  O2'       11.9050  -14.0350   16.5520 O.3    52  A52        -0.2156
   1102  C1'        9.7170  -14.8630   16.2650 C.3    52  A52         0.2408
   1103  N1         6.4250  -12.8240   19.6280 N.ar   52  A52        -0.2040
   1104  C2         7.5460  -12.3590   19.0640 C.ar   52  A52         0.2016
   1105  N3         8.3670  -12.9540   18.2030 N.ar   52  A52        -0.2048
   1106  C4         7.9420  -14.1950   17.9260 C.ar   52  A52         0.1692
   1107  C5         6.8170  -14.8180   18.4300 C.ar   52  A52         0.1518
   1108  C6         6.0200  -14.0750   19.3220 C.ar   52  A52         0.1919
   1109  N6         4.8940  -14.5310   19.8730 N.pl3  52  A52        -0.1054
   1110  N7         6.7040  -16.1050   17.9250 N.ar   52  A52        -0.2193
   1111  C8         7.7400  -16.2240   17.1300 C.ar   52  A52         0.1816
   1112  N9         8.5230  -15.1010   17.0720 N.ar   52  A52        -0.2693
   1113  OP1       10.5090  -20.9470   15.1730 O.2    52  A52        -0.5172
   1114  OP2        8.5000  -20.4520   16.6790 O.co2  52  A52        -0.4373
   1115  P         13.5100  -17.1860   18.0410 P.3    53  G53         0.2141
   1116  C5'       14.2690  -14.7800   18.8000 C.3    53  G53         0.1812
   1117  O5'       13.4260  -15.9250   19.0080 O.3    53  G53        -0.3114
   1118  C4'       14.0440  -13.7690   19.8940 C.3    53  G53         0.1773
   1119  O4'       12.7730  -13.0890   19.7110 O.3    53  G53        -0.3307
   1120  C3'       13.9370  -14.3780   21.2720 C.3    53  G53         0.1860
   1121  O3'       15.1990  -14.6430   21.8230 O.3    53  G53        -0.3112
   1122  C2'       13.1300  -13.3430   22.0430 C.3    53  G53         0.2309
   1123  O2'       13.9110  -12.2560   22.4980 O.3    53  G53        -0.2156
   1124  C1'       12.1520  -12.8690   20.9710 C.3    53  G53         0.2408
   1125  N1         7.5880  -13.4810   23.1210 N.ar   53  G53        -0.1709
   1126  C2         8.5160  -12.4980   23.3290 C.ar   53  G53         0.2606
   1127  N2         8.1930  -11.5690   24.2290 N.pl3  53  G53        -0.0859
   1128  N3         9.6720  -12.4290   22.6970 N.ar   53  G53        -0.1918
   1129  C4         9.8250  -13.4390   21.8130 C.ar   53  G53         0.1723
   1130  C5         8.9550  -14.4650   21.5250 C.ar   53  G53         0.1748
   1131  C6         7.7230  -14.5310   22.2220 C.ar   53  G53         0.3023
   1132  O6         6.8220  -15.3740   22.1200 O.2    53  G53        -0.2633
   1133  N7         9.4830  -15.3030   20.5500 N.ar   53  G53        -0.2173
   1134  C8        10.6460  -14.7850   20.2740 C.ar   53  G53         0.1817
   1135  N9        10.9230  -13.6570   21.0120 N.ar   53  G53        -0.2693
   1136  OP1       14.9370  -17.5030   17.7580 O.2    53  G53        -0.5172
   1137  OP2       12.6210  -18.2440   18.6000 O.co2  53  G53        -0.4373
   1138  P         15.2930  -15.4500   23.2010 P.3    54  G54         0.2141
   1139  C5'       14.5290  -14.7630   25.5970 C.3    54  G54         0.1812
   1140  O5'       14.8850  -14.3570   24.2830 O.3    54  G54        -0.3114
   1141  C4'       13.4950  -13.8400   26.1840 C.3    54  G54         0.1773
   1142  O4'       12.4220  -13.5880   25.2380 O.3    54  G54        -0.3307
   1143  C3'       12.8080  -14.4670   27.3810 C.3    54  G54         0.1860
   1144  O3'       13.5890  -14.3270   28.5480 O.3    54  G54        -0.3112
   1145  C2'       11.4610  -13.7610   27.4150 C.3    54  G54         0.2309
   1146  O2'       11.5170  -12.4950   28.0410 O.3    54  G54        -0.2156
   1147  C1'       11.1700  -13.5990   25.9190 C.3    54  G54         0.2408
   1148  N1         6.7150  -16.0340   26.1330 N.ar   54  G54        -0.1709
   1149  C2         7.1440  -14.9460   26.8400 C.ar   54  G54         0.2606
   1150  N2         6.2660  -14.4290   27.6990 N.pl3  54  G54        -0.0859
   1151  N3         8.3380  -14.4040   26.7100 N.ar   54  G54        -0.1918
   1152  C4         9.0760  -15.0320   25.7710 C.ar   54  G54         0.1723
   1153  C5         8.7340  -16.1220   25.0000 C.ar   54  G54         0.1748
   1154  C6         7.4550  -16.7120   25.1800 C.ar   54  G54         0.3023
   1155  O6         6.9740  -17.7060   24.6250 O.2    54  G54        -0.2633
   1156  N7         9.7680  -16.4590   24.1380 N.ar   54  G54        -0.2173
   1157  C8        10.7060  -15.5900   24.4000 C.ar   54  G54         0.1817
   1158  N9        10.3540  -14.6940   25.3830 N.ar   54  G54        -0.2693
   1159  OP1       16.7220  -15.8390   23.3880 O.3    54  G54        -0.4373
   1160  OP2       14.2390  -16.5060   23.2080 O.co2  54  G54        -0.5172
   1161  P         14.0830  -15.6430   29.3190 P.3    55  G55         0.2141
   1162  C5'       12.1610  -15.0980   31.0290 C.3    55  G55         0.1812
   1163  O5'       12.7980  -16.0590   30.1670 O.3    55  G55        -0.3114
   1164  C4'       10.6800  -15.3780   31.1500 C.3    55  G55         0.1773
   1165  O4'       10.0390  -15.2550   29.8490 O.3    55  G55        -0.3307
   1166  C3'       10.2850  -16.7670   31.6190 C.3    55  G55         0.1860
   1167  O3'       10.3500  -16.9250   33.0170 O.3    55  G55        -0.3112
   1168  C2'        8.8600  -16.8900   31.1050 C.3    55  G55         0.2309
   1169  O2'        7.9390  -16.1900   31.9260 O.3    55  G55        -0.2156
   1170  C1'        8.9760  -16.1980   29.7490 C.3    55  G55         0.2408
   1171  N1         7.2200  -19.8810   26.7180 N.ar   55  G55        -0.1709
   1172  C2         6.5730  -19.1840   27.7040 C.ar   55  G55         0.2606
   1173  N2         5.2840  -19.4930   27.9030 N.pl3  55  G55        -0.0859
   1174  N3         7.1430  -18.2500   28.4450 N.ar   55  G55        -0.1918
   1175  C4         8.4410  -18.0690   28.1190 C.ar   55  G55         0.1723
   1176  C5         9.1860  -18.7220   27.1590 C.ar   55  G55         0.1748
   1177  C6         8.5540  -19.7140   26.3640 C.ar   55  G55         0.3023
   1178  O6         9.0370  -20.3880   25.4490 O.2    55  G55        -0.2633
   1179  N7        10.4930  -18.2520   27.1420 N.ar   55  G55        -0.2173
   1180  C8        10.5170  -17.3290   28.0650 C.ar   55  G55         0.1817
   1181  N9         9.3020  -17.1570   28.6920 N.ar   55  G55        -0.2693
   1182  OP1       15.1440  -15.2060   30.2630 O.3    55  G55        -0.4373
   1183  OP2       14.3830  -16.7000   28.3110 O.co2  55  G55        -0.5172
   1184  P         10.6250  -18.3850   33.6230 P.3    56  U56         0.2141
   1185  C5'        8.0430  -18.7590   33.9950 C.3    56  U56         0.1812
   1186  O5'        9.2640  -19.1750   33.3580 O.3    56  U56        -0.3114
   1187  C4'        6.9210  -19.7280   33.6910 C.3    56  U56         0.1773
   1188  O4'        6.4970  -19.6080   32.3050 O.3    56  U56        -0.3307
   1189  C3'        7.2170  -21.2080   33.8630 C.3    56  U56         0.1860
   1190  O3'        7.1580  -21.6200   35.2220 O.3    56  U56        -0.3112
   1191  C2'        6.1320  -21.8530   33.0040 C.3    56  U56         0.2309
   1192  O2'        4.8820  -21.9090   33.6710 O.3    56  U56        -0.2156
   1193  C1'        6.0330  -20.8650   31.8370 C.3    56  U56         0.2420
   1194  N1         6.8590  -21.2840   30.6920 N.ar   56  U56        -0.2534
   1195  C2         6.2590  -22.0350   29.6890 C.ar   56  U56         0.3546
   1196  O2         5.0770  -22.3140   29.6790 O.2    56  U56        -0.2443
   1197  N3         7.1050  -22.4470   28.6920 N.ar   56  U56        -0.1530
   1198  C4         8.4600  -22.1850   28.5860 C.ar   56  U56         0.2846
   1199  O4         9.1060  -22.6900   27.6650 O.2    56  U56        -0.2650
   1200  C5         8.9930  -21.3780   29.6360 C.ar   56  U56         0.0814
   1201  C6         8.1980  -20.9640   30.6260 C.ar   56  U56         0.0870
   1202  OP1       10.8040  -18.2380   35.0930 O.3    56  U56        -0.4373
   1203  OP2       11.6960  -19.0240   32.8020 O.co2  56  U56        -0.5172
   1204  P          8.0920  -22.8340   35.7240 P.3    57  A57         0.2141
   1205  C5'        7.9120  -25.4470   35.2980 C.3    57  A57         0.1812
   1206  O5'        7.2690  -24.1500   35.3510 O.3    57  A57        -0.3114
   1207  C4'        7.0150  -26.4580   34.6110 C.3    57  A57         0.1773
   1208  O4'        5.8160  -26.6660   35.3980 O.3    57  A57        -0.3307
   1209  C3'        6.5040  -26.0620   33.2360 C.3    57  A57         0.1860
   1210  O3'        7.4490  -26.3820   32.2250 O.3    57  A57        -0.3112
   1211  C2'        5.2100  -26.8570   33.1020 C.3    57  A57         0.2309
   1212  O2'        5.4170  -28.1880   32.6890 O.3    57  A57        -0.2156
   1213  C1'        4.7090  -26.8840   34.5430 C.3    57  A57         0.2408
   1214  N1        -0.2300  -25.5130   34.0710 N.ar   57  A57        -0.2040
   1215  C2         0.4780  -26.5110   33.5280 C.ar   57  A57         0.2016
   1216  N3         1.7720  -26.7960   33.6580 N.ar   57  A57        -0.2048
   1217  C4         2.3740  -25.9020   34.4610 C.ar   57  A57         0.1692
   1218  C5         1.7840  -24.8150   35.0800 C.ar   57  A57         0.1518
   1219  C6         0.4070  -24.6300   34.8690 C.ar   57  A57         0.1919
   1220  N6        -0.2980  -23.6320   35.4150 N.pl3  57  A57        -0.1054
   1221  N7         2.7180  -24.1020   35.8170 N.ar   57  A57        -0.2193
   1222  C8         3.8310  -24.7720   35.6460 C.ar   57  A57         0.1816
   1223  N9         3.6910  -25.8870   34.8590 N.ar   57  A57        -0.2693
   1224  OP1        8.1700  -22.7320   37.2010 O.3    57  A57        -0.4373
   1225  OP2        9.3480  -22.8400   34.9140 O.co2  57  A57        -0.5172
   1226  P          7.5410  -25.4600   30.9150 P.3    58  A58         0.2141
   1227  C5'        5.6950  -26.8630   29.6670 C.3    58  A58         0.1812
   1228  O5'        6.0920  -25.6150   30.2760 O.3    58  A58        -0.3114
   1229  C4'        4.3000  -26.7500   29.1180 C.3    58  A58         0.1773
   1230  O4'        3.3770  -26.5780   30.2100 O.3    58  A58        -0.3307
   1231  C3'        4.0770  -25.5390   28.2370 C.3    58  A58         0.1860
   1232  O3'        4.4360  -25.8320   26.9070 O.3    58  A58        -0.3112
   1233  C2'        2.5890  -25.2740   28.3800 C.3    58  A58         0.2309
   1234  O2'        1.8210  -26.0770   27.5140 O.3    58  A58        -0.2156
   1235  C1'        2.3380  -25.7050   29.8210 C.3    58  A58         0.2408
   1236  N1        -0.6770  -22.4430   32.3610 N.ar   58  A58        -0.2040
   1237  C2        -0.9380  -23.3900   31.4660 C.ar   58  A58         0.2016
   1238  N3        -0.1020  -24.1960   30.8270 N.ar   58  A58        -0.2048
   1239  C4         1.1640  -23.9580   31.2030 C.ar   58  A58         0.1692
   1240  C5         1.5930  -23.0110   32.1110 C.ar   58  A58         0.1518
   1241  C6         0.6080  -22.2150   32.7060 C.ar   58  A58         0.1919
   1242  N6         0.8750  -21.2460   33.5890 N.pl3  58  A58        -0.1054
   1243  N7         2.9750  -23.0450   32.2410 N.ar   58  A58        -0.2193
   1244  C8         3.3440  -24.0050   31.4250 C.ar   58  A58         0.1816
   1245  N9         2.2970  -24.6030   30.7710 N.ar   58  A58        -0.2693
   1246  OP1        8.5250  -26.0390   29.9560 O.2    58  A58        -0.5172
   1247  OP2        7.6980  -24.0570   31.3720 O.co2  58  A58        -0.4373
   1248  P          4.8570  -24.6390   25.9260 P.3    59  U59         0.2141
   1249  C5'        2.5650  -24.5550   24.6540 C.3    59  U59         0.1812
   1250  O5'        3.4670  -23.9370   25.5860 O.3    59  U59        -0.3114
   1251  C4'        1.2480  -23.8220   24.6060 C.3    59  U59         0.1773
   1252  O4'        0.5700  -23.9050   25.8790 O.3    59  U59        -0.3307
   1253  C3'        1.2530  -22.3420   24.2810 C.3    59  U59         0.1860
   1254  O3'        1.2840  -22.1590   22.8860 O.3    59  U59        -0.3112
   1255  C2'       -0.0920  -21.8800   24.8210 C.3    59  U59         0.2309
   1256  O2'       -1.1700  -22.1100   23.9340 O.3    59  U59        -0.2156
   1257  C1'       -0.2590  -22.7770   26.0450 C.3    59  U59         0.2420
   1258  N1         0.1260  -22.0880   27.2800 N.ar   59  U59        -0.2534
   1259  C2        -0.8810  -21.5280   28.0400 C.ar   59  U59         0.3546
   1260  O2        -2.0640  -21.6450   27.7550 O.2    59  U59        -0.2443
   1261  N3        -0.4520  -20.8310   29.1460 N.ar   59  U59        -0.1530
   1262  C4         0.8530  -20.6600   29.5610 C.ar   59  U59         0.2846
   1263  O4         1.0890  -19.9190   30.5190 O.2    59  U59        -0.2650
   1264  C5         1.8300  -21.3080   28.7370 C.ar   59  U59         0.0814
   1265  C6         1.4410  -21.9810   27.6530 C.ar   59  U59         0.0870
   1266  OP1        5.4050  -25.2740   24.7030 O.2    59  U59        -0.5172
   1267  OP2        5.6910  -23.6570   26.6800 O.co2  59  U59        -0.4373
   1268  P          1.6520  -20.7280   22.2630 P.3    60  G60         0.2141
   1269  C5'        0.5280  -18.3440   22.4930 C.3    60  G60         0.1812
   1270  O5'        0.4710  -19.7640   22.7410 O.3    60  G60        -0.3114
   1271  C4'       -0.8470  -17.7690   22.1690 C.3    60  G60         0.1773
   1272  O4'       -1.2730  -18.1590   20.8360 O.3    60  G60        -0.3307
   1273  C3'       -2.0250  -18.1260   23.0520 C.3    60  G60         0.1860
   1274  O3'       -1.9950  -17.2570   24.1770 O.3    60  G60        -0.3112
   1275  C2'       -3.2280  -17.8270   22.1410 C.3    60  G60         0.2309
   1276  O2'       -3.5740  -16.4480   22.1050 O.3    60  G60        -0.2156
   1277  C1'       -2.6950  -18.2180   20.7650 C.3    60  G60         0.2408
   1278  N1        -6.4720  -21.6430   20.0690 N.ar   60  G60        -0.1709
   1279  C2        -6.5130  -20.4440   20.7480 C.ar   60  G60         0.2606
   1280  N2        -7.6840  -20.1070   21.2880 N.pl3  60  G60        -0.0859
   1281  N3        -5.4720  -19.6270   20.8890 N.ar   60  G60        -0.1918
   1282  C4        -4.3670  -20.1180   20.2910 C.ar   60  G60         0.1723
   1283  C5        -4.2330  -21.3080   19.5900 C.ar   60  G60         0.1748
   1284  C6        -5.3510  -22.1560   19.4440 C.ar   60  G60         0.3023
   1285  O6        -5.4130  -23.2360   18.8440 O.2    60  G60        -0.2633
   1286  N7        -2.9360  -21.4640   19.1240 N.ar   60  G60        -0.2173
   1287  C8        -2.3060  -20.4000   19.5330 C.ar   60  G60         0.1817
   1288  N9        -3.1080  -19.5220   20.2380 N.ar   60  G60        -0.2693
   1289  OP1        1.5330  -20.8890   20.7920 O.2    60  G60        -0.5172
   1290  OP2        2.9390  -20.3370   22.8320 O.co2  60  G60        -0.4373
   1291  P         -2.7260  -17.7200   25.5160 P.3    61  C61         0.2141
   1292  C5'       -2.1110  -17.2470   28.0340 C.3    61  C61         0.1812
   1293  O5'       -1.6700  -17.4020   26.6580 O.3    61  C61        -0.3114
   1294  C4'       -1.0860  -16.4670   28.8420 C.3    61  C61         0.1773
   1295  O4'        0.0810  -17.2840   29.0450 O.3    61  C61        -0.3307
   1296  C3'       -0.5800  -15.2050   28.1730 C.3    61  C61         0.1860
   1297  O3'       -1.4100  -14.0710   28.4160 O.3    61  C61        -0.3112
   1298  C2'        0.8050  -15.0420   28.7780 C.3    61  C61         0.2309
   1299  O2'        0.7860  -14.4250   30.0600 O.3    61  C61        -0.2156
   1300  C1'        1.2440  -16.4950   28.9340 C.3    61  C61         0.2420
   1301  N1         2.0060  -16.9740   27.7720 N.ar   61  C61        -0.2535
   1302  C2         3.2680  -16.4650   27.5420 C.ar   61  C61         0.3532
   1303  O2         3.7130  -15.6080   28.3130 O.2    61  C61        -0.2443
   1304  N3         3.9730  -16.9150   26.4840 N.ar   61  C61        -0.1739
   1305  C4         3.4450  -17.8290   25.6660 C.ar   61  C61         0.1759
   1306  N4         4.1740  -18.2340   24.6260 N.pl3  61  C61        -0.1070
   1307  C5         2.1510  -18.3620   25.8770 C.ar   61  C61         0.0566
   1308  C6         1.4760  -17.9140   26.9300 C.ar   61  C61         0.0850
   1309  OP1       -2.8700  -19.1820   25.5290 O.2    61  C61        -0.5172
   1310  OP2       -3.9360  -16.8760   25.7550 O.co2  61  C61        -0.4373
   1311  P         -1.3800  -12.8420   27.3810 P.3    62  C62         0.2141
   1312  C5'        0.4440  -11.4290   28.6610 C.3    62  C62         0.1812
   1313  O5'        0.0900  -12.2490   27.5370 O.3    62  C62        -0.3114
   1314  C4'        1.8100  -10.8240   28.4510 C.3    62  C62         0.1773
   1315  O4'        2.7670  -11.8960   28.2760 O.3    62  C62        -0.3307
   1316  C3'        1.9770   -9.9800   27.2020 C.3    62  C62         0.1860
   1317  O3'        1.5520   -8.6470   27.4050 O.3    62  C62        -0.3112
   1318  C2'        3.4730  -10.0590   26.9410 C.3    62  C62         0.2309
   1319  O2'        4.2020   -9.1490   27.7340 O.3    62  C62        -0.2156
   1320  C1'        3.7960  -11.4770   27.4040 C.3    62  C62         0.2420
   1321  N1         3.9160  -12.4360   26.2950 N.ar   62  C62        -0.2535
   1322  C2         5.1450  -12.5310   25.6120 C.ar   62  C62         0.3532
   1323  O2         6.0890  -11.8090   25.9550 O.2    62  C62        -0.2443
   1324  N3         5.2700  -13.4060   24.5950 N.ar   62  C62        -0.1739
   1325  C4         4.2330  -14.1620   24.2370 C.ar   62  C62         0.1759
   1326  N4         4.4050  -14.9950   23.2140 N.pl3  62  C62        -0.1070
   1327  C5         2.9760  -14.0930   24.9060 C.ar   62  C62         0.0566
   1328  C6         2.8620  -13.2250   25.9220 C.ar   62  C62         0.0850
   1329  OP1       -2.3730  -11.8290   27.8370 O.3    62  C62        -0.4373
   1330  OP2       -1.4970  -13.4120   26.0150 O.co2  62  C62        -0.5172
   1331  P          1.2030   -7.7280   26.1330 P.3    63  U63         0.2141
   1332  C5'        3.6660   -6.9700   25.6880 C.3    63  U63         0.1812
   1333  O5'        2.5410   -7.7490   25.2760 O.3    63  U63        -0.3114
   1334  C4'        4.7320   -6.9860   24.6260 C.3    63  U63         0.1773
   1335  O4'        5.3840   -8.2810   24.5960 O.3    63  U63        -0.3307
   1336  C3'        4.2340   -6.7820   23.2090 C.3    63  U63         0.1860
   1337  O3'        3.9750   -5.4170   22.8900 O.3    63  U63        -0.3112
   1338  C2'        5.3400   -7.4250   22.3820 C.3    63  U63         0.2309
   1339  O2'        6.4600   -6.5860   22.1990 O.3    63  U63        -0.2156
   1340  C1'        5.7320   -8.6120   23.2620 C.3    63  U63         0.2420
   1341  N1         4.9920   -9.8200   22.8620 N.ar   63  U63        -0.2534
   1342  C2         5.6130  -10.7080   22.0030 C.ar   63  U63         0.3546
   1343  O2         6.7510  -10.5590   21.6030 O.2    63  U63        -0.2443
   1344  N3         4.8460  -11.7770   21.6230 N.ar   63  U63        -0.1530
   1345  C4         3.5500  -12.0460   22.0070 C.ar   63  U63         0.2846
   1346  O4         2.9810  -13.0420   21.5620 O.2    63  U63        -0.2650
   1347  C5         2.9890  -11.0980   22.9090 C.ar   63  U63         0.0814
   1348  C6         3.7110  -10.0490   23.3000 C.ar   63  U63         0.0870
   1349  OP1        0.9760   -6.3390   26.6100 O.3    63  U63        -0.4373
   1350  OP2        0.1410   -8.4150   25.3540 O.co2  63  U63        -0.5172
   1351  P          3.4170   -5.0440   21.4270 P.3    64  G64         0.2141
   1352  C5'        4.7490   -5.1060   19.1850 C.3    64  G64         0.1812
   1353  O5'        4.7560   -4.8940   20.5860 O.3    64  G64        -0.3114
   1354  C4'        5.9620   -5.8800   18.7700 C.3    64  G64         0.1773
   1355  O4'        6.0250   -7.1080   19.5360 O.3    64  G64        -0.3307
   1356  C3'        5.8780   -6.3120   17.3220 C.3    64  G64         0.1860
   1357  O3'        6.3420   -5.2680   16.4690 O.3    64  G64        -0.3112
   1358  C2'        6.6940   -7.6010   17.3070 C.3    64  G64         0.2309
   1359  O2'        8.0800   -7.4050   17.2230 O.3    64  G64        -0.2156
   1360  C1'        6.3810   -8.1850   18.6880 C.3    64  G64         0.2408
   1361  N1         4.5470  -12.4860   16.7310 N.ar   64  G64        -0.1709
   1362  C2         5.7310  -11.8510   16.4670 C.ar   64  G64         0.2606
   1363  N2         6.5270  -12.4350   15.5700 N.pl3  64  G64        -0.0859
   1364  N3         6.1030  -10.7270   17.0390 N.ar   64  G64        -0.1918
   1365  C4         5.1750  -10.2770   17.9090 C.ar   64  G64         0.1723
   1366  C5         3.9590  -10.8350   18.2350 C.ar   64  G64         0.1748
   1367  C6         3.5790  -12.0380   17.6190 C.ar   64  G64         0.3023
   1368  O6         2.5410  -12.6870   17.7800 O.2    64  G64        -0.2633
   1369  N7         3.2940  -10.0610   19.1710 N.ar   64  G64        -0.2173
   1370  C8         4.1030   -9.0650   19.4010 C.ar   64  G64         0.1817
   1371  N9         5.2660   -9.1340   18.6690 N.ar   64  G64        -0.2693
   1372  OP1        2.7180   -3.7320   21.4530 O.3    64  G64        -0.4373
   1373  OP2        2.7070   -6.2430   20.8940 O.co2  64  G64        -0.5172
   1374  P          5.3100   -4.5270   15.4570 P.3    65  C65         0.2141
   1375  C5'        6.2730   -6.2310   13.6830 C.3    65  C65         0.1812
   1376  O5'        5.1170   -5.6120   14.3070 O.3    65  C65        -0.3114
   1377  C4'        5.9180   -7.5890   13.1070 C.3    65  C65         0.1773
   1378  O4'        5.6210   -8.5270   14.1750 O.3    65  C65        -0.3307
   1379  C3'        4.7000   -7.6280   12.1970 C.3    65  C65         0.1860
   1380  O3'        5.0650   -7.2720   10.8730 O.3    65  C65        -0.3112
   1381  C2'        4.2380   -9.0810   12.3050 C.3    65  C65         0.2309
   1382  O2'        4.9260   -9.9600   11.4320 O.3    65  C65        -0.2156
   1383  C1'        4.6040   -9.4220   13.7530 C.3    65  C65         0.2420
   1384  N1         3.4670   -9.3210   14.6880 N.ar   65  C65        -0.2535
   1385  C2         2.5670  -10.3870   14.7800 C.ar   65  C65         0.3532
   1386  O2         2.7450  -11.3870   14.0760 O.2    65  C65        -0.2443
   1387  N3         1.5260  -10.2980   15.6340 N.ar   65  C65        -0.1739
   1388  C4         1.3620   -9.2030   16.3770 C.ar   65  C65         0.1759
   1389  N4         0.3200   -9.1600   17.2080 N.pl3  65  C65        -0.1070
   1390  C5         2.2610   -8.1050   16.3040 C.ar   65  C65         0.0566
   1391  C6         3.2900   -8.2060   15.4560 C.ar   65  C65         0.0850
   1392  OP1        6.0010   -3.3480   14.8800 O.2    65  C65        -0.5172
   1393  OP2        4.0220   -4.3210   16.1440 O.co2  65  C65        -0.4373
   1394  P          4.0130   -6.5090    9.9420 P.3    66  G66         0.2141
   1395  C5'        2.6930   -4.2750   10.4160 C.3    66  G66         0.1812
   1396  O5'        3.3540   -5.4480   10.9240 O.3    66  G66        -0.3114
   1397  C4'        1.7210   -3.7510   11.4400 C.3    66  G66         0.1773
   1398  O4'        0.6630   -4.7250   11.6040 O.3    66  G66        -0.3307
   1399  C3'        2.3200   -3.5160   12.8250 C.3    66  G66         0.1860
   1400  O3'        1.6910   -2.4100   13.4440 O.3    66  G66        -0.3112
   1401  C2'        1.9390   -4.7700   13.5920 C.3    66  G66         0.2309
   1402  O2'        1.7450   -4.4970   14.9590 O.3    66  G66        -0.2156
   1403  C1'        0.6050   -5.1380   12.9480 C.3    66  G66         0.2408
   1404  N1        -1.8930   -8.9140   15.1560 N.ar   66  G66        -0.1709
   1405  C2        -1.8930   -7.5780   15.4530 C.ar   66  G66         0.2606
   1406  N2        -2.6700   -7.1940   16.4730 N.pl3  66  G66        -0.0859
   1407  N3        -1.1840   -6.6840   14.8000 N.ar   66  G66        -0.1918
   1408  C4        -0.4570   -7.2400   13.8140 C.ar   66  G66         0.1723
   1409  C5        -0.3770   -8.5610   13.4410 C.ar   66  G66         0.1748
   1410  C6        -1.1500   -9.5150   14.1470 C.ar   66  G66         0.3023
   1411  O6        -1.2210  -10.7420   13.9690 O.2    66  G66        -0.2633
   1412  N7         0.5070   -8.7220   12.3820 N.ar   66  G66        -0.2173
   1413  C8         0.9290   -7.5140   12.1330 C.ar   66  G66         0.1817
   1414  N9         0.3730   -6.5710   12.9610 N.ar   66  G66        -0.2693
   1415  OP1        2.9760   -7.4780    9.5170 O.3    66  G66        -0.4373
   1416  OP2        4.7930   -5.7760    8.9210 O.co2  66  G66        -0.5172
   1417  P          2.2780   -0.9460   13.2100 P.3    67  C67         0.2141
   1418  C5'        2.0120    0.6700   11.1680 C.3    67  C67         0.1812
   1419  O5'        1.9040   -0.6520   11.6900 O.3    67  C67        -0.3114
   1420  C4'        1.8090    0.6880    9.6650 C.3    67  C67         0.1773
   1421  O4'        2.0400    2.0570    9.2440 O.3    67  C67        -0.3307
   1422  C3'        2.7420   -0.1740    8.8080 C.3    67  C67         0.1860
   1423  O3'        2.0570   -0.5390    7.5960 O.3    67  C67        -0.3112
   1424  C2'        3.9100    0.7650    8.5020 C.3    67  C67         0.2309
   1425  O2'        4.4830    0.5790    7.2260 O.3    67  C67        -0.2156
   1426  C1'        3.2680    2.1510    8.5570 C.3    67  C67         0.2420
   1427  N1         4.0990    3.1280    9.2760 N.ar   67  C67        -0.2535
   1428  C2         4.1580    4.4390    8.7960 C.ar   67  C67         0.3532
   1429  O2         3.5150    4.7360    7.7800 O.2    67  C67        -0.2443
   1430  N3         4.9190    5.3450    9.4460 N.ar   67  C67        -0.1739
   1431  C4         5.6120    4.9830   10.5230 C.ar   67  C67         0.1759
   1432  N4         6.3660    5.9060   11.1180 N.pl3  67  C67        -0.1070
   1433  C5         5.5680    3.6560   11.0360 C.ar   67  C67         0.0566
   1434  C6         4.8050    2.7700   10.3920 C.ar   67  C67         0.0850
   1435  OP1        3.7580   -0.9860   13.3700 O.2    67  C67        -0.5172
   1436  OP2        1.4660   -0.0530   14.0710 O.co2  67  C67        -0.4373
   1437  P          2.4940   -1.8580    6.7800 P.3    68  A68         0.2141
   1438  C5'        0.3420   -3.3750    6.7500 C.3    68  A68         0.1812
   1439  O5'        1.5760   -3.0090    7.3810 O.3    68  A68        -0.3114
   1440  C4'        0.4850   -4.7210    6.0940 C.3    68  A68         0.1773
   1441  O4'        0.9080   -5.7070    7.0650 O.3    68  A68        -0.3307
   1442  C3'       -0.7980   -5.2610    5.5140 C.3    68  A68         0.1860
   1443  O3'       -0.9420   -4.7440    4.2090 O.3    68  A68        -0.3112
   1444  C2'       -0.5820   -6.7700    5.5390 C.3    68  A68         0.2309
   1445  O2'        0.1310   -7.2480    4.4160 O.3    68  A68        -0.2156
   1446  C1'        0.2720   -6.9430    6.8000 C.3    68  A68         0.2408
   1447  N1        -2.2590  -10.6560    9.3280 N.ar   68  A68        -0.2040
   1448  C2        -1.5610  -10.6680    8.1850 C.ar   68  A68         0.2016
   1449  N3        -0.9100   -9.6710    7.5840 N.ar   68  A68        -0.2048
   1450  C4        -1.0230   -8.5350    8.2930 C.ar   68  A68         0.1692
   1451  C5        -1.7010   -8.3670    9.4850 C.ar   68  A68         0.1518
   1452  C6        -2.3480   -9.4980   10.0180 C.ar   68  A68         0.1919
   1453  N6        -3.0380   -9.4860   11.1590 N.pl3  68  A68        -0.1054
   1454  N7        -1.6000   -7.0540    9.9260 N.ar   68  A68        -0.2193
   1455  C8        -0.8800   -6.4690    9.0080 C.ar   68  A68         0.1816
   1456  N9        -0.5040   -7.3020    7.9840 N.ar   68  A68        -0.2693
   1457  OP1        3.9130   -2.2220    7.0820 O.3    68  A68        -0.4373
   1458  OP2        2.0710   -1.6490    5.3740 O.co2  68  A68        -0.5172
   1459  P         -2.3550   -4.1510    3.7420 P.3    69  G69         0.2141
   1460  C5'       -2.8280   -6.4800    2.6030 C.3    69  G69         0.1812
   1461  O5'       -3.2480   -5.4530    3.5170 O.3    69  G69        -0.3114
   1462  C4'       -3.6030   -7.7530    2.8370 C.3    69  G69         0.1773
   1463  O4'       -3.1260   -8.4540    4.0150 O.3    69  G69        -0.3307
   1464  C3'       -5.0980   -7.6270    3.0700 C.3    69  G69         0.1860
   1465  O3'       -5.8270   -7.4220    1.8730 O.3    69  G69        -0.3112
   1466  C2'       -5.4480   -8.9530    3.7430 C.3    69  G69         0.2309
   1467  O2'       -5.6980  -10.0160    2.8540 O.3    69  G69        -0.2156
   1468  C1'       -4.1810   -9.2470    4.5480 C.3    69  G69         0.2408
   1469  N1        -6.1560  -10.7540    8.9390 N.ar   69  G69        -0.1709
   1470  C2        -6.0350  -11.4360    7.7610 C.ar   69  G69         0.2606
   1471  N2        -6.5490  -12.6670    7.7390 N.pl3  69  G69        -0.0859
   1472  N3        -5.4560  -10.9430    6.6820 N.ar   69  G69        -0.1918
   1473  C4        -5.0080   -9.6890    6.8800 C.ar   69  G69         0.1723
   1474  C5        -5.0810   -8.9220    8.0180 C.ar   69  G69         0.1748
   1475  C6        -5.7040   -9.4620    9.1610 C.ar   69  G69         0.3023
   1476  O6        -5.8850   -8.9390   10.2470 O.2    69  G69        -0.2633
   1477  N7        -4.5050   -7.6800    7.8120 N.ar   69  G69        -0.2173
   1478  C8        -4.1040   -7.7120    6.5710 C.ar   69  G69         0.1817
   1479  N9        -4.4020   -8.8960    5.9430 N.ar   69  G69        -0.2693
   1480  OP1       -2.1280   -3.4750    2.4340 O.2    69  G69        -0.5172
   1481  OP2       -2.9340   -3.3910    4.8700 O.co2  69  G69        -0.4373
   1482  P         -7.3330   -6.8650    1.9540 P.3    70  G70         0.2141
   1483  C5'       -9.3800   -8.0390    3.1440 C.3    70  G70         0.1812
   1484  O5'       -8.1670   -8.1500    2.3950 O.3    70  G70        -0.3114
   1485  C4'       -9.6870   -9.3580    3.8100 C.3    70  G70         0.1773
   1486  O4'       -8.6330   -9.6880    4.7550 O.3    70  G70        -0.3307
   1487  C3'      -10.9550   -9.3760    4.6390 C.3    70  G70         0.1860
   1488  O3'      -12.0870   -9.6250    3.8250 O.3    70  G70        -0.3112
   1489  C2'      -10.6820  -10.4970    5.6320 C.3    70  G70         0.2309
   1490  O2'      -10.8820  -11.7860    5.0900 O.3    70  G70        -0.2156
   1491  C1'       -9.1890  -10.3150    5.8970 C.3    70  G70         0.2408
   1492  N1       -10.0330   -9.6980   10.8490 N.ar   70  G70        -0.1709
   1493  C2       -10.4160  -10.7180   10.0190 C.ar   70  G70         0.2606
   1494  N2       -11.1320  -11.6990   10.5780 N.pl3  70  G70        -0.0859
   1495  N3       -10.1180  -10.7730    8.7390 N.ar   70  G70        -0.1918
   1496  C4        -9.4000   -9.7030    8.3420 C.ar   70  G70         0.1723
   1497  C5        -8.9690   -8.6320    9.0880 C.ar   70  G70         0.1748
   1498  C6        -9.2870   -8.5910   10.4670 C.ar   70  G70         0.3023
   1499  O6        -8.9890   -7.7330   11.3050 O.2    70  G70        -0.2633
   1500  N7        -8.2610   -7.7370    8.3010 N.ar   70  G70        -0.2173
   1501  C8        -8.2730   -8.2720    7.1120 C.ar   70  G70         0.1817
   1502  N9        -8.9550   -9.4640    7.0630 N.ar   70  G70        -0.2693
   1503  OP1       -7.7610   -6.4740    0.5810 O.2    70  G70        -0.5172
   1504  OP2       -7.3910   -5.8630    3.0540 O.co2  70  G70        -0.4373
   1505  P        -13.4170   -8.7470    4.0250 P.3    71  G71         0.2141
   1506  C5'      -14.2590  -10.3680    5.9270 C.3    71  G71         0.1812
   1507  O5'      -13.8480   -9.0460    5.5270 O.3    71  G71        -0.3114
   1508  C4'      -14.4730  -10.4190    7.4220 C.3    71  G71         0.1773
   1509  O4'      -13.2180  -10.1690    8.1040 O.3    71  G71        -0.3307
   1510  C3'      -15.4330   -9.3780    7.9740 C.3    71  G71         0.1860
   1511  O3'      -16.7650   -9.8520    7.9230 O.3    71  G71        -0.3112
   1512  C2'      -14.9690   -9.2240    9.4150 C.3    71  G71         0.2309
   1513  O2'      -15.4940  -10.2330   10.2570 O.3    71  G71        -0.2156
   1514  C1'      -13.4570   -9.4150    9.2810 C.3    71  G71         0.2408
   1515  N1       -11.2800   -5.5800   11.7900 N.ar   71  G71        -0.1709
   1516  C2       -11.9380   -6.6730   12.2840 C.ar   71  G71         0.2606
   1517  N2       -12.0270   -6.7540   13.6190 N.pl3  71  G71        -0.0859
   1518  N3       -12.4690   -7.6150   11.5290 N.ar   71  G71        -0.1918
   1519  C4       -12.2910   -7.3660   10.2150 C.ar   71  G71         0.1723
   1520  C5       -11.6510   -6.3030    9.6240 C.ar   71  G71         0.1748
   1521  C6       -11.0830   -5.3060   10.4440 C.ar   71  G71         0.3023
   1522  O6       -10.4680   -4.2880   10.1040 O.2    71  G71        -0.2633
   1523  N7       -11.6880   -6.4120    8.2440 N.ar   71  G71        -0.2173
   1524  C8       -12.3380   -7.5190    8.0220 C.ar   71  G71         0.1817
   1525  N9       -12.7280   -8.1530    9.1740 N.ar   71  G71        -0.2693
   1526  OP1      -14.4700   -9.3000    3.1240 O.2    71  G71        -0.5172
   1527  OP2      -13.0350   -7.3160    3.9150 O.co2  71  G71        -0.4373
   1528  P        -17.7720   -9.2840    6.8130 P.3    72  A72         0.2141
   1529  C5'      -20.1780   -9.7490    7.8130 C.3    72  A72         0.1812
   1530  O5'      -19.0550   -8.8560    7.6550 O.3    72  A72        -0.3114
   1531  C4'      -20.9890   -9.3480    9.0190 C.3    72  A72         0.1773
   1532  O4'      -20.1650   -9.5130   10.1940 O.3    72  A72        -0.3307
   1533  C3'      -21.4290   -7.8930    9.0230 C.3    72  A72         0.1860
   1534  O3'      -22.7060   -7.7830    8.3980 O.3    72  A72        -0.3112
   1535  C2'      -21.4810   -7.5470   10.5070 C.3    72  A72         0.2309
   1536  O2'      -22.7090   -7.9070   11.1090 O.3    72  A72        -0.2156
   1537  C1'      -20.3680   -8.4310   11.0800 C.3    72  A72         0.2408
   1538  N1       -16.8190   -6.8840   14.4720 N.ar   72  A72        -0.2040
   1539  C2       -18.0160   -7.4640   14.6240 C.ar   72  A72         0.2016
   1540  N3       -18.9020   -7.8290   13.6950 N.ar   72  A72        -0.2048
   1541  C4       -18.4490   -7.5370   12.4650 C.ar   72  A72         0.1692
   1542  C5       -17.2410   -6.9440   12.1480 C.ar   72  A72         0.1518
   1543  C6       -16.3930   -6.6030   13.2230 C.ar   72  A72         0.1919
   1544  N6       -15.2040   -6.0230   13.0760 N.pl3  72  A72        -0.1054
   1545  N7       -17.1120   -6.8000   10.7720 N.ar   72  A72        -0.2193
   1546  C8       -18.2260   -7.3010   10.2990 C.ar   72  A72         0.1816
   1547  N9       -19.0750   -7.7750   11.2680 N.ar   72  A72        -0.2693
   1548  OP1      -18.1510  -10.4310    5.9440 O.2    72  A72        -0.5172
   1549  OP2      -17.1570   -8.0730    6.2050 O.co2  72  A72        -0.4373
   1550  P        -23.1410   -6.4070    7.6910 P.3    73  G73         0.2141
   1551  C5'      -22.5160   -4.2190    9.0160 C.3    73  G73         0.1812
   1552  O5'      -23.3190   -5.4010    8.9140 O.3    73  G73        -0.3114
   1553  C4'      -23.3520   -2.9990    8.7260 C.3    73  G73         0.1773
   1554  O4'      -24.2910   -2.7900    9.8180 O.3    73  G73        -0.3307
   1555  C3'      -22.5600   -1.7100    8.5670 C.3    73  G73         0.1860
   1556  O3'      -23.0480   -0.9590    7.4660 O.3    73  G73        -0.3112
   1557  C2'      -22.7620   -0.9910    9.8970 C.3    73  G73         0.2309
   1558  O2'      -22.7470    0.4170    9.7850 O.3    73  G73        -0.2156
   1559  C1'      -24.1370   -1.4890   10.3500 C.3    73  G73         0.2408
   1560  N1       -27.0920   -2.4860   14.3810 N.ar   73  G73        -0.1709
   1561  C2       -27.4110   -2.5300   13.0500 C.ar   73  G73         0.2606
   1562  N2       -28.6730   -2.8710   12.7670 N.pl3  73  G73        -0.0859
   1563  N3       -26.5560   -2.2560   12.0740 N.ar   73  G73        -0.1918
   1564  C4       -25.3400   -1.9270   12.5540 C.ar   73  G73         0.1723
   1565  C5       -24.9270   -1.8550   13.8690 C.ar   73  G73         0.1748
   1566  C6       -25.8470   -2.1500   14.8920 C.ar   73  G73         0.3023
   1567  O6       -25.6660   -2.1340   16.1100 O.2    73  G73        -0.2633
   1568  N7       -23.5970   -1.4800   13.9510 N.ar   73  G73        -0.2173
   1569  C8       -23.2260   -1.3290   12.7120 C.ar   73  G73         0.1817
   1570  N9       -24.2340   -1.5800   11.8080 N.ar   73  G73        -0.2693
   1571  OP1      -24.4830   -6.6340    7.0950 O.3    73  G73        -0.4373
   1572  OP2      -22.0210   -5.9360    6.8190 O.co2  73  G73        -0.5172
   1573  P        -22.0610   -0.6380    6.2330 P.3    74  U74         0.2141
   1574  C5'      -23.6950    1.4210    5.9940 C.3    74  U74         0.1812
   1575  O5'      -22.8640    0.4280    5.3600 O.3    74  U74        -0.3114
   1576  C4'      -22.8330    2.5050    6.6000 C.3    74  U74         0.1773
   1577  O4'      -22.0950    3.1810    5.5420 O.3    74  U74        -0.3307
   1578  C3'      -23.5790    3.6180    7.3200 C.3    74  U74         0.1860
   1579  O3'      -23.9340    3.2690    8.6600 O.3    74  U74        -0.3112
   1580  C2'      -22.5870    4.7770    7.2400 C.3    74  U74         0.2309
   1581  O2'      -21.5740    4.7070    8.2310 O.3    74  U74        -0.2156
   1582  C1'      -21.9780    4.5660    5.8460 C.3    74  U74         0.2420
   1583  N1       -22.6930    5.3340    4.8060 N.ar   74  U74        -0.2534
   1584  C2       -22.0830    6.4750    4.2750 C.ar   74  U74         0.3546
   1585  O2       -20.9550    6.8430    4.5810 O.2    74  U74        -0.2443
   1586  N3       -22.8480    7.1680    3.3630 N.ar   74  U74        -0.1530
   1587  C4       -24.1260    6.8460    2.9210 C.ar   74  U74         0.2846
   1588  O4       -24.6970    7.5870    2.1140 O.2    74  U74        -0.2650
   1589  C5       -24.6690    5.6470    3.4870 C.ar   74  U74         0.0814
   1590  C6       -23.9570    4.9510    4.3810 C.ar   74  U74         0.0870
   1591  OP1      -21.9020   -1.8830    5.4280 O.2    74  U74        -0.5172
   1592  OP2      -20.8500    0.0370    6.7880 O.co2  74  U74        -0.4373
   1593  P        -25.3380    3.7820    9.2780 P.3    75  G75         0.2141
   1594  C5'      -27.1330    2.1440    8.2130 C.3    75  G75         0.1812
   1595  O5'      -26.2590    2.4770    9.3140 O.3    75  G75        -0.3114
   1596  C4'      -28.4960    1.7390    8.7320 C.3    75  G75         0.1773
   1597  O4'      -28.3490    0.5920    9.6090 O.3    75  G75        -0.3307
   1598  C3'      -29.2110    2.7840    9.5760 C.3    75  G75         0.1860
   1599  O3'      -29.9410    3.6950    8.7600 O.3    75  G75        -0.3112
   1600  C2'      -30.1140    1.9430   10.4760 C.3    75  G75         0.2309
   1601  O2'      -31.3430    1.5910    9.8710 O.3    75  G75        -0.2156
   1602  C1'      -29.2580    0.6910   10.6950 C.3    75  G75         0.2408
   1603  N1       -29.3490    0.2930   15.7660 N.ar   75  G75        -0.1709
   1604  C2       -30.3860    0.1950   14.8730 C.ar   75  G75         0.2606
   1605  N2       -31.5980   -0.0370   15.3970 N.pl3  75  G75        -0.0859
   1606  N3       -30.2450    0.3150   13.5660 N.ar   75  G75        -0.1918
   1607  C4       -28.9580    0.5450   13.2180 C.ar   75  G75         0.1723
   1608  C5       -27.8520    0.6590   14.0380 C.ar   75  G75         0.1748
   1609  C6       -28.0200    0.5300   15.4310 C.ar   75  G75         0.3023
   1610  O6       -27.1640    0.6020   16.3150 O.2    75  G75        -0.2633
   1611  N7       -26.7040    0.8990   13.2920 N.ar   75  G75        -0.2173
   1612  C8       -27.1220    0.9260   12.0550 C.ar   75  G75         0.1817
   1613  N9       -28.4800    0.7190   11.9350 N.ar   75  G75        -0.2693
   1614  OP1      -25.9710    4.7740    8.3530 O.2    75  G75        -0.5172
   1615  OP2      -25.0560    4.1760   10.6870 O.co2  75  G75        -0.4373
   1616  P        -30.1710    5.2070    9.2600 P.3    76  U76         0.2141
   1617  C5'      -32.6420    4.6750   10.0550 C.3    76  U76         0.1812
   1618  O5'      -31.2890    5.0630   10.3920 O.3    76  U76        -0.3114
   1619  C4'      -33.4600    4.4640   11.3080 C.3    76  U76         0.1773
   1620  O4'      -32.9070    3.3450   12.0520 O.3    76  U76        -0.3307
   1621  C3'      -33.4730    5.6150   12.3070 C.3    76  U76         0.1860
   1622  O3'      -34.4350    6.6250   11.9910 O.3    76  U76        -0.3112
   1623  C2'      -33.7790    4.9030   13.6200 C.3    76  U76         0.2309
   1624  O2'      -35.1550    4.6320   13.8080 O.3    76  U76        -0.2156
   1625  C1'      -33.0170    3.5910   13.4460 C.3    76  U76         0.2420
   1626  N1       -31.6620    3.6670   14.0180 N.ar   76  U76        -0.2534
   1627  C2       -31.5290    3.6660   15.4040 C.ar   76  U76         0.3546
   1628  O2       -32.4800    3.5970   16.1690 O.2    76  U76        -0.2443
   1629  N3       -30.2370    3.7530   15.8590 N.ar   76  U76        -0.1530
   1630  C4       -29.0900    3.8390   15.0960 C.ar   76  U76         0.2846
   1631  O4       -27.9970    3.9160   15.6530 O.2    76  U76        -0.2650
   1632  C5       -29.3080    3.8320   13.6870 C.ar   76  U76         0.0814
   1633  C6       -30.5500    3.7470   13.2080 C.ar   76  U76         0.0870
   1634  OP1      -30.7480    5.9800    8.1240 O.2    76  U76        -0.5172
   1635  OP2      -28.9070    5.6710    9.8940 O.co2  76  U76        -0.4373
   1636  P        -34.1390    8.1700   12.3800 P.3    77  C77         0.2141
   1637  C5'      -34.6680    7.4590   14.8510 C.3    77  C77         0.1813
   1638  O5'      -34.8890    8.3730   13.7710 O.3    77  C77        -0.3114
   1639  C4'      -34.6690    8.1760   16.1740 C.3    77  C77         0.1801
   1640  O4'      -34.0330    7.2880   17.1320 O.3    77  C77        -0.3306
   1641  C3'      -33.8270    9.4430   16.2220 C.3    77  C77         0.2161
   1642  O3'      -34.2970   10.6100   15.5300 O.3    77  C77        -0.2175
   1643  C2'      -33.4010    9.5130   17.6800 C.3    77  C77         0.2338
   1644  O2'      -34.4170   10.0130   18.5280 O.3    77  C77        -0.2155
   1645  C1'      -33.1770    8.0300   17.9820 C.3    77  C77         0.2421
   1646  N1       -31.7910    7.6030   17.7060 N.ar   77  C77        -0.2535
   1647  C2       -30.9620    7.2640   18.7750 C.ar   77  C77         0.3532
   1648  O2       -31.4160    7.3120   19.9270 O.2    77  C77        -0.2443
   1649  N3       -29.6860    6.8930   18.5280 N.ar   77  C77        -0.1739
   1650  C4       -29.2320    6.8530   17.2730 C.ar   77  C77         0.1759
   1651  N4       -27.9640    6.4910   17.0800 N.pl3  77  C77        -0.1070
   1652  C5       -30.0560    7.1830   16.1640 C.ar   77  C77         0.0566
   1653  C6       -31.3160    7.5470   16.4210 C.ar   77  C77         0.0850
   1654  OP1      -34.8430    9.0260   11.3860 O.2    77  C77        -0.5172
   1655  OP2      -32.6760    8.3600   12.6040 O.co2  77  C77        -0.4373
@<TRIPOS>BOND
     1  1503  1482    2
     2  1465  1482    1
     3  1465  1464    1
     4  1482  1484    1
     5  1482  1504    1
     6  1588  1587    2
     7  1484  1483    1
     8  1480  1459    2
     9  1460  1462    1
    10  1460  1461    1
    11  1462  1464    1
    12  1462  1463    1
    13  1467  1466    1
    14  1587  1586   ar
    15  1587  1589   ar
    16  1464  1466    1
    17  1526  1505    2
    18  1483  1485    1
    19  1586  1584   ar
    20  1589  1590   ar
    21  1461  1459    1
    22  1459  1443    1
    23  1459  1481    1
    24  1466  1468    1
    25  1485  1487    1
    26  1485  1486    1
    27  1488  1505    1
    28  1488  1487    1
    29  1527  1505    1
    30  1463  1468    1
    31  1505  1507    1
    32  1443  1442    1
    33  1584  1585    2
    34  1584  1583   ar
    35  1590  1583   ar
    36  1445  1444    1
    37  1468  1479    1
    38  1487  1489    1
    39  1486  1491    1
    40  1583  1582    1
    41  1490  1489    1
    42  1575  1574    1
    43  1575  1573    1
    44  1458  1437    2
    45  1591  1573    2
    46  1442  1444    1
    47  1442  1440    1
    48  1507  1506    1
    49  1444  1446    1
    50  1577  1582    1
    51  1577  1576    1
    52  1489  1491    1
    53  1582  1580    1
    54  1491  1502    1
    55  1506  1508    1
    56  1479  1478   ar
    57  1479  1473   ar
    58  1548  1528    2
    59  1574  1576    1
    60  1440  1438    1
    61  1440  1441    1
    62  1549  1528    1
    63  1573  1592    1
    64  1573  1556    1
    65   994   993    1
    66  1478  1477   ar
    67  1576  1578    1
    68  1472  1473   ar
    69  1472  1470   ar
    70  1438  1439    1
    71  1437  1457    1
    72  1437  1439    1
    73  1437  1423    1
    74  1446  1441    1
    75  1446  1456    1
    76  1528  1530    1
    77  1528  1511    1
    78  1572  1550    2
    79  1050  1029    2
    80  1473  1474   ar
    81  1502  1501   ar
    82  1502  1496   ar
    83  1009  1007    1
    84  1009  1010    1
    85  1009  1011    1
    86  1007  1008    1
    87  1571  1550    1
    88  1501  1500   ar
    89  1014  1013    1
    90   851   850    2
    91  1425  1424    1
    92  1580  1578    1
    93  1580  1581    1
    94   896   895    2
    95  1578  1579    1
    96  1508  1510    1
    97  1508  1509    1
    98  1010  1015    1
    99   998   997    2
   100  1556  1555    1
   101  1012  1029    1
   102  1012  1011    1
   103  1049  1029    1
   104  1449  1448   ar
   105  1449  1450   ar
   106  1423  1422    1
   107  1530  1529    1
   108   993   995    1
   109   993   991    1
   110  1550  1534    1
   111  1550  1552    1
   112  1029  1031    1
   113  1471  1470    1
   114   852   850   ar
   115   852   853   ar
   116  1470  1469   ar
   117  1429  1428    2
   118  1477  1474   ar
   119  1529  1531    1
   120   995   990    1
   121   995   996    1
   122  1511  1510    1
   123  1027  1006    2
   124   992   991    1
   125   992  1006    1
   126  1510  1512    1
   127  1456  1450   ar
   128  1456  1455   ar
   129  1474  1475   ar
   130  1524  1523   ar
   131  1524  1525   ar
   132   850   849   ar
   133  1011  1013    1
   134  1509  1514    1
   135  1634  1616    2
   136   847   846    1
   137   990   989    1
   138  1015  1013    1
   139  1015  1026    1
   140  1448  1447   ar
   141   854   853    2
   142  1594  1596    1
   143  1594  1595    1
   144   989   991    1
   145   989   987    1
   146   889   895   ar
   147   889   890   ar
   148  1523  1520   ar
   149   895   894   ar
   150  1450  1451   ar
   151  1500  1497   ar
   152  1496  1495   ar
   153  1496  1497   ar
   154   878   859    2
   155  1614  1593    2
   156  1008  1006    1
   157  1534  1533    1
   158  1424  1426    1
   159  1424  1422    1
   160   997   996   ar
   161   997   999   ar
   162  1426  1421    1
   163  1426  1427    1
   164  1555  1553    1
   165  1555  1557    1
   166   853   855   ar
   167  1006  1028    1
   168  1579  1593    1
   169  1553  1551    1
   170  1553  1554    1
   171  1596  1598    1
   172  1596  1597    1
   173  1495  1493   ar
   174  1599  1616    1
   175  1599  1598    1
   176  1428  1427   ar
   177  1428  1430   ar
   178  1422  1420    1
   179   996  1003   ar
   180  1552  1551    1
   181  1416  1394    2
   182  1469  1475   ar
   183  1455  1454   ar
   184  1531  1533    1
   185  1531  1532    1
   186  1533  1535    1
   187   891   890    1
   188  1497  1498   ar
   189  1475  1476    2
   190  1525  1514    1
   191  1525  1519   ar
   192  1031  1030    1
   193  1421  1420    1
   194   987   988    1
   195  1616  1635    1
   196  1616  1618    1
   197  1427  1434   ar
   198  1593  1595    1
   199  1593  1615    1
   200  1514  1512    1
   201   890   892   ar
   202   849   848    1
   203   849   856   ar
   204  1447  1452   ar
   205   877   859    1
   206  1512  1513    1
   207   859   845    1
   208   859   861    1
   209  1430  1431   ar
   210   978   977    2
   211  1026  1020   ar
   212  1026  1025   ar
   213  1451  1454   ar
   214  1451  1452   ar
   215   846   848    1
   216   846   844    1
   217  1415  1394    1
   218   999  1000   ar
   219   845   844    1
   220   894   897   ar
   221   894   893   ar
   222  1598  1600    1
   223  1597  1602    1
   224  1520  1519   ar
   225  1520  1521   ar
   226   848   843    1
   227  1420  1418    1
   228  1558  1557    1
   229  1019  1020   ar
   230  1019  1017   ar
   231  1554  1559    1
   232   974   973    1
   233  1030  1032    1
   234  1601  1600    1
   235  1557  1559    1
   236   855   856   ar
   237  1394  1380    1
   238  1394  1396    1
   239  1452  1453    1
   240  1493  1494    1
   241  1493  1492   ar
   242   897   898   ar
   243  1617  1618    1
   244  1617  1619    1
   245  1522  1521    2
   246  1003  1002   ar
   247  1020  1021   ar
   248  1532  1537    1
   249  1519  1518   ar
   250  1025  1024   ar
   251  1546  1545   ar
   252  1546  1547   ar
   253   844   842    1
   254  1559  1570    1
   255  1434  1433   ar
   256  1395  1396    1
   257  1395  1397    1
   258  1521  1515   ar
   259  1498  1492   ar
   260  1498  1499    2
   261  1018  1017    1
   262  1600  1602    1
   263   892   893   ar
   264  1535  1537    1
   265  1535  1536    1
   266  1431  1433   ar
   267  1431  1432    1
   268   988   986    1
   269   893   899   ar
   270   198   177    2
   271   977   979   ar
   272   977   976   ar
   273  1017  1016   ar
   274  1602  1613    1
   275  1545  1542   ar
   276  1000  1002   ar
   277  1000  1001    2
   278   861   860    1
   279   973   975    1
   280   973   971    1
   281  1380  1379    1
   282   979   980   ar
   283   843   842    1
   284   860   862    1
   285  1071  1051    2
   286  1537  1547    1
   287   162   161    1
   288  1418  1419    1
   289  1067  1066    1
   290  1032  1034    1
   291  1032  1033    1
   292   975   976    1
   293   975   970    1
   294  1034  1036    1
   295  1034  1035    1
   296  1547  1541   ar
   297   221   200    2
   298   898   899   ar
   299  1619  1620    1
   300  1619  1621    1
   301  1021  1024   ar
   302  1021  1022   ar
   303  1047  1046   ar
   304  1047  1048   ar
   305   160   177    1
   306   160   159    1
   307  1654  1636    2
   308  1382  1381    1
   309  1397  1398    1
   310  1397  1399    1
   311  1046  1043   ar
   312   842   840    1
   313  1036  1037    1
   314  1036  1038    1
   315  1518  1516   ar
   316  1398  1403    1
   317   976   983   ar
   318   140   139    1
   319   899   888    1
   320  1419  1417    1
   321  1004   986    2
   322   177   179    1
   323   177   199    1
   324   179   178    1
   325  1515  1516   ar
   326  1570  1564   ar
   327  1570  1569   ar
   328  1016  1022   ar
   329   986   972    1
   330   986  1005    1
   331   972   971    1
   332  1613  1612   ar
   333  1613  1607   ar
   334  1622  1621    1
   335  1622  1636    1
   336  1033  1038    1
   337  1066  1065   ar
   338  1066  1061   ar
   339   183   200    1
   340   183   182    1
   341  1620  1625    1
   342  1612  1611   ar
   343  1563  1564   ar
   344  1563  1561   ar
   345  1068  1065   ar
   346  1068  1069   ar
   347   971   969    1
   348  1413  1412   ar
   349  1413  1414   ar
   350   157   159    1
   351   157   155    1
   352   157   158    1
   353  1542  1541   ar
   354  1542  1543   ar
   355   875   876   ar
   356   875   873   ar
   357  1379  1381    1
   358  1379  1377    1
   359  1048  1038    1
   360  1048  1042   ar
   361  1022  1023    2
   362   980   981    1
   363   980   982   ar
   364  1516  1517    1
   365   901   879    2
   366   863   862    1
   367   863   868    1
   368  1381  1383    1
   369  1621  1623    1
   370   970   969    1
   371   862   864    1
   372   156   155    1
   373   156   154    1
   374   178   180    1
   375  1636  1655    1
   376  1636  1638    1
   377  1051  1035    1
   378  1051  1072    1
   379  1051  1053    1
   380  1412  1409   ar
   381   180   182    1
   382   180   181    1
   383   159   161    1
   384   175   154    2
   385   161   163    1
   386  1065  1064   ar
   387   876   869   ar
   388  1541  1540   ar
   389   200   202    1
   390   200   222    1
   391   918   917    1
   392  1043  1042   ar
   393  1043  1044   ar
   394  1061  1062   ar
   395  1564  1565   ar
   396   874   873    2
   397  1081  1080    1
   398   841   840    1
   399   841   839    1
   400  1569  1568   ar
   401   969   967    1
   402  1069  1070   ar
   403  1562  1561    1
   404  1045  1044    1
   405  1077  1076    1
   406  1077  1082    1
   407   873   872   ar
   408   827   826    1
   409  1399  1400    1
   410  1399  1401    1
   411   158   163    1
   412   138   154    1
   413   138   137    1
   414   185   184    1
   415  1403  1414    1
   416  1403  1401    1
   417   983   982   ar
   418  1414  1408   ar
   419   940   939    1
   420   182   184    1
   421  1042  1041   ar
   422   888   886    1
   423   888   883    1
   424   912   917   ar
   425   912   913   ar
   426  1561  1560   ar
   427  1544  1543    1
   428   139   137    1
   429   139   141    1
   430  1377  1375    1
   431  1377  1378    1
   432   163   174    1
   433   154   176    1
   434  1076  1074    1
   435  1076  1078    1
   436  1059  1058    1
   437  1044  1039   ar
   438  1633  1632   ar
   439  1633  1626   ar
   440  1417  1435    2
   441  1417  1400    1
   442  1417  1436    1
   443  1607  1606   ar
   444  1607  1608   ar
   445  1543  1538   ar
   446   181   186    1
   447  1082  1080    1
   448  1082  1083    1
   449   202   201    1
   450   917   916   ar
   451  1064  1070   ar
   452  1064  1063   ar
   453   869   868    1
   454   869   870   ar
   455  1611  1608   ar
   456   958   957    2
   457  1053  1052    1
   458  1062  1063   ar
   459  1409  1408   ar
   460  1409  1410   ar
   461  1625  1623    1
   462  1625  1626    1
   463  1070  1060    1
   464  1058  1060    1
   465  1058  1056    1
   466  1074  1075    1
   467   868   866    1
   468   864   865    1
   469   864   866    1
   470  1606  1604   ar
   471  1401  1402    1
   472  1623  1624    1
   473   135   137    1
   474   135   136    1
   475   135   133    1
   476   825   839    1
   477   825   824    1
   478   872   870   ar
   479   959   957   ar
   480   959   960   ar
   481   141   136    1
   482   141   151    1
   483  1375  1376    1
   484  1632  1630   ar
   485  1540  1539   ar
   486   886   884    1
   487   886   887    1
   488  1383  1378    1
   489  1383  1384    1
   490   879   881    1
   491   879   865    1
   492   879   900    1
   493  1638  1637    1
   494  1080  1078    1
   495   184   186    1
   496   883   882    1
   497  1408  1407   ar
   498   858   839    2
   499    23     1    1
   500   913   914   ar
   501  1565  1568   ar
   502  1565  1566   ar
   503   870   871    2
   504   839   857    1
   505  1411  1410    2
   506   881   880    1
   507  1626  1627   ar
   508  1608  1609   ar
   509  1041  1040   ar
   510  1386  1385    2
   511   957   956   ar
   512   144   143   ar
   513   144   145   ar
   514   961   960    1
   515  1085  1084    2
   516  1410  1404   ar
   517   201   203    1
   518   923   902    2
   519  1079  1078    1
   520  1079  1093    1
   521   244   223    2
   522  1039  1040   ar
   523   826   824    1
   524   826   828    1
   525   967   968    1
   526   939   934   ar
   527   939   938   ar
   528   186   197    1
   529  1376  1374    1
   530  1083  1084   ar
   531  1083  1090   ar
   532  1060  1055    1
   533   916   919   ar
   534   916   915   ar
   535  1560  1566   ar
   536   884   882    1
   537   884   885    1
   538  1056  1054    1
   539  1056  1057    1
   540   934   935   ar
   541  1538  1539   ar
   542   866   867    1
   543    22     1    1
   544   960   962   ar
   545   174   168   ar
   546   174   173   ar
   547   143   142   ar
   548   133   134    1
   549   824   822    1
   550  1075  1073    1
   551   124   123    2
   552  1384  1385   ar
   553  1384  1391   ar
   554  1084  1086   ar
   555  1052  1054    1
   556  1094  1096    1
   557  1094  1095    1
   558   831   830    2
   559   167   168   ar
   560   167   165   ar
   561  1385  1387   ar
   562   968   966    1
   563  1407  1405   ar
   564   822   823    1
   565   822   820    1
   566   919   920   ar
   567  1637  1639    1
   568  1604  1605    1
   569  1604  1603   ar
   570   914   915   ar
   571  1392  1374    2
   572   882   880    1
   573  1566  1567    2
   574   120   119    1
   575  1090  1089   ar
   576   828   823    1
   577   828   829    1
   578   151   145   ar
   579   151   150   ar
   580     1     3    1
   581   145   146   ar
   582   915   921   ar
   583  1630  1631    2
   584  1630  1629   ar
   585   954   953    1
   586  1055  1054    1
   587  1404  1405   ar
   588   203   204    1
   589   203   205    1
   590  1113  1093    2
   591  1097  1096    1
   592  1097  1102    1
   593  1096  1098    1
   594   922   902    1
   595   168   169   ar
   596   902   885    1
   597   902   904    1
   598   938   941   ar
   599   938   937   ar
   600  1057  1073    1
   601   166   165    1
   602   953   955    1
   603   953   951    1
   604   956   955    1
   605   956   963   ar
   606  1627  1629   ar
   607  1627  1628    2
   608  1609  1603   ar
   609  1609  1610    2
   610   941   942   ar
   611  1405  1406    1
   612  1391  1390   ar
   613  1374  1393    1
   614  1374  1357    1
   615   197   196   ar
   616   197   191   ar
   617   173   172   ar
   618  1093  1095    1
   619  1093  1114    1
   620   196   195   ar
   621  1642  1641    1
   622   223   206    1
   623   223   245    1
   624   223   225    1
   625  1363  1362    1
   626  1387  1388   ar
   627  1086  1087   ar
   628   165   164   ar
   629     3     2    1
   630   935   936   ar
   631   820   821    1
   632   955   950    1
   633   204   209    1
   634   123   125   ar
   635   123   122   ar
   636   920   921   ar
   637   206   205    1
   638   142   147   ar
   639   830   829   ar
   640   830   832   ar
   641  1089  1087   ar
   642   962   963   ar
   643   134   132    1
   644  1073  1091    2
   645  1073  1092    1
   646   119   121    1
   647   119   117    1
   648   921   911    1
   649   829   836   ar
   650  1652  1653   ar
   651  1652  1650   ar
   652  1639  1641    1
   653  1639  1640    1
   654   125   126   ar
   655   150   149   ar
   656  1641  1643    1
   657  1087  1088    1
   658  1102  1100    1
   659  1102  1112    1
   660   205   207    1
   661  1390  1388   ar
   662   966   985    2
   663   966   952    1
   664   966   984    1
   665  1388  1389    1
   666  1653  1646   ar
   667   146   147   ar
   668   146   149   ar
   669   121   122    1
   670   121   116    1
   671  1362  1361   ar
   672  1362  1364   ar
   673  1357  1356    1
   674  1101  1100    1
   675   225   224    1
   676   937   936   ar
   677   937   943   ar
   678   169   172   ar
   679   169   170   ar
   680   951   952    1
   681   951   949    1
   682   904   903    1
   683  1098  1099    1
   684  1098  1100    1
   685   906   911    1
   686   906   905    1
   687  1099  1115    1
   688   942   943   ar
   689   195   192   ar
   690  1361  1367   ar
   691   191   190   ar
   692   191   192   ar
   693   224   226    1
   694   147   148    1
   695   122   129   ar
   696     2     4    1
   697   832   833   ar
   698   903   905    1
   699   152   132    2
   700   164   170   ar
   701  1364  1365   ar
   702   118   132    1
   703   118   117    1
   704   821   819    1
   705  1112  1111   ar
   706  1112  1106   ar
   707  1651  1650    1
   708   807   806    1
   709  1111  1110   ar
   710  1640  1645    1
   711   911   909    1
   712   132   153    1
   713   209   207    1
   714   209   220    1
   715   190   188   ar
   716  1359  1358    1
   717   950   949    1
   718  1650  1649   ar
   719   117   115    1
   720  1358  1356    1
   721  1358  1360    1
   722  1356  1354    1
   723   219   220   ar
   724   219   218   ar
   725   208   207    1
   726   836   835   ar
   727   126   127    1
   728   126   128   ar
   729   943   933    1
   730   192   193   ar
   731   116   115    1
   732   170   171    2
   733  1367  1368    2
   734  1367  1366   ar
   735   905   907    1
   736   811   810    2
   737  1643  1645    1
   738  1643  1644    1
   739  1646  1645    1
   740  1646  1647   ar
   741   837   819    2
   742   949   947    1
   743  1136  1115    2
   744   115   113    1
   745     4     5    1
   746     4     6    1
   747     5    10    1
   748  1365  1366   ar
   749  1365  1371   ar
   750  1110  1107   ar
   751  1106  1105   ar
   752  1106  1107   ar
   753   220   214   ar
   754  1115  1137    1
   755  1115  1117    1
   756   129   128   ar
   757   806   808    1
   758   806   804    1
   759  1105  1104   ar
   760   104   103    2
   761  1366  1369   ar
   762   819   805    1
   763   819   838    1
   764   226   227    1
   765   226   228    1
   766   218   215   ar
   767   909   907    1
   768   909   910    1
   769   833   835   ar
   770   833   834    2
   771  1107  1108   ar
   772   188   189    1
   773   188   187   ar
   774  1649  1647   ar
   775   264   246    2
   776   265   246    1
   777   805   804    1
   778  1371  1360    1
   779  1371  1370   ar
   780  1360  1355    1
   781  1354  1352    1
   782  1354  1355    1
   783   105   103   ar
   784   105   106   ar
   785  1647  1648    2
   786    86    85    1
   787  1116  1117    1
   788  1116  1118    1
   789    80    85   ar
   790    80    81   ar
   791   229   228    1
   792   229   246    1
   793   907   908    1
   794   810   812   ar
   795   810   809   ar
   796  1285  1284    2
   797   227   232    1
   798   933   928    1
   799   933   931    1
   800   193   187   ar
   801   193   194    2
   802   947   948    1
   803   808   809    1
   804   808   803    1
   805   228   230    1
   806   688   687    1
   807    20    21   ar
   808    20    19   ar
   809  1104  1103   ar
   810   103   102   ar
   811   246   248    1
   812  1286  1287   ar
   813  1286  1283   ar
   814    64    63    2
   815  1369  1370   ar
   816  1352  1353    1
   817    10    21    1
   818    10     8    1
   819   804   802    1
   820   214   215   ar
   821   214   213   ar
   822  1108  1103   ar
   823  1108  1109    1
   824   113   114    1
   825     6     7    1
   826     6     8    1
   827   107   106    1
   828   928   927    1
   829   812   813   ar
   830  1284  1283   ar
   831  1284  1278   ar
   832   242   241   ar
   833   242   243   ar
   834   215   216   ar
   835    85    84   ar
   836    81    82   ar
   837  1287  1288   ar
   838     7    24    1
   839  1283  1282   ar
   840   809   816   ar
   841   931   929    1
   842   931   932    1
   843    21    15   ar
   844   106   108   ar
   845  1119  1118    1
   846  1119  1124    1
   847    19    16   ar
   848    46    24    2
   849   948   946    1
   850   241   238   ar
   851   908   924    1
   852  1118  1120    1
   853   925   927    1
   854   925   926    1
   855   100    99    1
   856   803   802    1
   857   929   927    1
   858   929   930    1
   859   802   800    1
   860     8     9    1
   861  1278  1279   ar
   862   114   112    1
   863   213   211   ar
   864   232   243    1
   865   232   230    1
   866  1288  1282   ar
   867  1288  1277    1
   868    63    57   ar
   869    63    62   ar
   870  1134  1133   ar
   871  1134  1135   ar
   872  1282  1281   ar
   873   687   682   ar
   874   687   686   ar
   875   102   101    1
   876   102   109   ar
   877    57    58   ar
   878   243   237   ar
   879    24    45    1
   880    24    26    1
   881    99   101    1
   882    99    97    1
   883   230   231    1
   884  1133  1130   ar
   885   965   946    2
   886  1353  1351    1
   887   248   247    1
   888   689   686   ar
   889   689   690   ar
   890   101    96    1
   891    41    40    2
   892   813   814    1
   893   813   815   ar
   894  1279  1281   ar
   895  1279  1280    1
   896  1277  1272    1
   897  1277  1275    1
   898   216   217    2
   899   216   210   ar
   900  1289  1268    2
   901    82    83   ar
   902   754   753    2
   903  1272  1271    1
   904    84    83   ar
   905    84    87   ar
   906  1373  1351    2
   907   926   924    1
   908   816   815   ar
   909    42    43   ar
   910    42    39   ar
   911    15    16   ar
   912    15    14   ar
   913  1124  1135    1
   914  1124  1122    1
   915    16    17   ar
   916   682   683   ar
   917  1135  1129   ar
   918   946   930    1
   919   946   964    1
   920   108   109   ar
   921   686   685   ar
   922   944   924    2
   923   262   263   ar
   924   262   260   ar
   925   924   945    1
   926   238   237   ar
   927   238   239   ar
   928  1120  1121    1
   929  1120  1122    1
   930   247   249    1
   931  1351  1372    1
   932  1351  1337    1
   933   800   801    1
   934   211   210   ar
   935   211   212    1
   936    83    89   ar
   937   261   260    2
   938    59    58    1
   939   237   236   ar
   940    62    65   ar
   941    62    61   ar
   942  1130  1129   ar
   943  1130  1131   ar
   944   791   790    2
   945   287   266    2
   946  1346  1345    2
   947    58    60   ar
   948  1343  1342    2
   949    43    44   ar
   950  1344  1342   ar
   951  1344  1345   ar
   952   112    98    1
   953   112   130    2
   954   112   131    1
   955    40    39   ar
   956    40    34   ar
   957   263   256   ar
   958    97    98    1
   959    97    95    1
   960  1129  1128   ar
   961  1121  1138    1
   962   690   691   ar
   963    87    88   ar
   964    65    66   ar
   965    26    25    1
   966    39    38   ar
   967   260   259   ar
   968    14    12   ar
   969   240   239    2
   970   753   755   ar
   971   753   752   ar
   972  1342  1341   ar
   973  1345  1347   ar
   974   792   790   ar
   975   792   793   ar
   976   267   269    1
   977   267   268    1
   978  1122  1123    1
   979    96    95    1
   980   239   233   ar
   981  1276  1275    1
   982  1132  1131    2
   983  1275  1273    1
   984    17    18    2
   985    17    11   ar
   986   801   799    1
   987  1271  1269    1
   988  1271  1273    1
   989  1339  1338    1
   990  1131  1125   ar
   991  1268  1270    1
   992  1268  1290    1
   993  1268  1254    1
   994   790   789   ar
   995   683   684   ar
   996  1338  1336    1
   997  1338  1340    1
   998   685   691   ar
   999   685   684   ar
  1000  1269  1270    1
  1001   755   756   ar
  1002   269   270    1
  1003   269   271    1
  1004   794   793    1
  1005   307   289    2
  1006    61    60   ar
  1007    61    67   ar
  1008   236   234   ar
  1009  1128  1126   ar
  1010    25    27    1
  1011    95    93    1
  1012   249   250    1
  1013   249   251    1
  1014    89    88   ar
  1015    89    79    1
  1016   250   255    1
  1017   787   786    1
  1018   272   271    1
  1019   272   289    1
  1020  1341  1340    1
  1021  1341  1348   ar
  1022  1254  1253    1
  1023  1337  1336    1
  1024   793   795   ar
  1025   752   750   ar
  1026  1347  1348   ar
  1027   691   681    1
  1028    34    35   ar
  1029    44    38   ar
  1030    44    33    1
  1031   266   268    1
  1032   266   288    1
  1033   266   252    1
  1034    12    11   ar
  1035    12    13    1
  1036  1273  1274    1
  1037   256   255    1
  1038   256   257   ar
  1039  1125  1126   ar
  1040    38    37   ar
  1041    66    67   ar
  1042  1138  1160    2
  1043  1138  1159    1
  1044  1138  1140    1
  1045   259   257   ar
  1046  1336  1334    1
  1047   251   252    1
  1048   251   253    1
  1049  1326  1325    1
  1050  1340  1335    1
  1051   233   234   ar
  1052   270   275    1
  1053   786   788    1
  1054   786   784    1
  1055  1126  1127    1
  1056    28    27    1
  1057    28    33    1
  1058   639   638    1
  1059   271   273    1
  1060   234   235    1
  1061   274   273    1
  1062   789   788    1
  1063   789   796   ar
  1064   289   308    1
  1065   289   291    1
  1066   710   709    1
  1067   799   817    2
  1068   799   818    1
  1069   799   785    1
  1070    67    56    1
  1071   255   253    1
  1072   756   749   ar
  1073   774   773    1
  1074    79    77    1
  1075    79    74    1
  1076    69    47    2
  1077   788   783    1
  1078   257   258    2
  1079    27    29    1
  1080    77    78    1
  1081    77    75    1
  1082  1256  1255    1
  1083    94    93    1
  1084    94    92    1
  1085    33    31    1
  1086  1156  1157   ar
  1087  1156  1153   ar
  1088   795   796   ar
  1089    35    37   ar
  1090    35    36    1
  1091  1274  1291    1
  1092   750   749   ar
  1093   750   751    2
  1094  1325  1324   ar
  1095  1325  1327   ar
  1096   253   254    1
  1097   273   275    1
  1098  1253  1251    1
  1099  1253  1255    1
  1100  1140  1139    1
  1101   681   676    1
  1102   681   679    1
  1103  1157  1158   ar
  1104   275   286    1
  1105   621   620    1
  1106   785   784    1
  1107    29    31    1
  1108    29    30    1
  1109   784   782    1
  1110   772   773   ar
  1111   772   770   ar
  1112   749   748    1
  1113  1324  1322   ar
  1114  1335  1334    1
  1115  1251  1249    1
  1116  1251  1252    1
  1117   290   291    1
  1118   290   292    1
  1119  1155  1154    2
  1120  1306  1305    1
  1121  1334  1332    1
  1122  1249  1250    1
  1123   638   637   ar
  1124   638   640   ar
  1125   111    92    2
  1126  1266  1248    2
  1127   615   620   ar
  1128   615   616   ar
  1129   773   775   ar
  1130  1255  1257    1
  1131   661   660   ar
  1132   661   662   ar
  1133   637   643   ar
  1134  1327  1328   ar
  1135   431   412    2
  1136   709   704   ar
  1137   709   708   ar
  1138   676   675    1
  1139  1153  1154   ar
  1140  1153  1152   ar
  1141    75    76    1
  1142    75    73    1
  1143   680   679    1
  1144    31    32    1
  1145    74    73    1
  1146    56    54    1
  1147    56    51    1
  1148  1154  1148   ar
  1149    92    76    1
  1150    92   110    1
  1151  1142  1147    1
  1152  1142  1141    1
  1153   783   782    1
  1154   679   677    1
  1155   660   665   ar
  1156    47    30    1
  1157    47    49    1
  1158    47    68    1
  1159  1333  1332    1
  1160  1333  1331    1
  1161   620   619   ar
  1162   771   770    2
  1163  1350  1331    2
  1164  1158  1152   ar
  1165  1158  1147    1
  1166  1178  1177    2
  1167   711   708   ar
  1168   711   712   ar
  1169   430   412    1
  1170  1291  1309    2
  1171  1291  1310    1
  1172  1291  1293    1
  1173   704   705   ar
  1174    91    70    2
  1175    49    48    1
  1176   770   769   ar
  1177   662   663   ar
  1178    54    52    1
  1179    54    55    1
  1180  1250  1248    1
  1181  1139  1141    1
  1182  1322  1323    2
  1183  1322  1321   ar
  1184   640   641   ar
  1185   616   617   ar
  1186   286   285   ar
  1187   286   280   ar
  1188   782   780    1
  1189  1305  1307   ar
  1190  1305  1304   ar
  1191   708   707   ar
  1192   285   284   ar
  1193  1152  1151   ar
  1194   412   414    1
  1195   412   398    1
  1196    51    50    1
  1197  1307  1308   ar
  1198  1252  1257    1
  1199   748   743    1
  1200   748   746    1
  1201  1147  1145    1
  1202  1328  1321   ar
  1203  1248  1267    1
  1204  1248  1232    1
  1205    73    71    1
  1206   292   293    1
  1207   292   294    1
  1208   733   732    2
  1209    72    70    1
  1210    72    71    1
  1211  1330  1311    2
  1212  1257  1258    1
  1213   728   727    1
  1214   643   644    2
  1215   643   642   ar
  1216   414   413    1
  1217   775   776   ar
  1218    52    50    1
  1219    52    53    1
  1220   726   732   ar
  1221   726   727   ar
  1222  1148  1149   ar
  1223  1331  1349    1
  1224  1331  1317    1
  1225  1141  1143    1
  1226   743   742    1
  1227  1321  1320    1
  1228   328   309    2
  1229  1177  1171   ar
  1230  1177  1176   ar
  1231   675   677    1
  1232   675   673    1
  1233  1304  1302   ar
  1234   327   309    1
  1235   665   666    1
  1236   665   664   ar
  1237    70    53    1
  1238    70    90    1
  1239   677   678    1
  1240   712   713   ar
  1241   619   618   ar
  1242   619   622   ar
  1243   293   298    1
  1244  1293  1292    1
  1245   732   731   ar
  1246  1151  1149   ar
  1247   415   413    1
  1248   415   416    1
  1249   415   417    1
  1250  1171  1172   ar
  1251    50    48    1
  1252   295   309    1
  1253   295   294    1
  1254   420   419    1
  1255   727   729   ar
  1256   769   776   ar
  1257   769   768    1
  1258   641   642   ar
  1259   641   647   ar
  1260  1149  1150    1
  1261   678   694    1
  1262   705   706   ar
  1263   663   664   ar
  1264   663   669   ar
  1265  1232  1231    1
  1266   280   279   ar
  1267   280   281   ar
  1268   617   618   ar
  1269   309   311    1
  1270  1308  1301   ar
  1271  1318  1316    1
  1272  1318  1320    1
  1273  1318  1319    1
  1274   294   296    1
  1275   674   673    1
  1276   674   672    1
  1277   418   417    1
  1278   418   432    1
  1279   284   281   ar
  1280   452   432    2
  1281   781   780    1
  1282   781   779    1
  1283   747   746    1
  1284   746   744    1
  1285   707   713   ar
  1286   707   706   ar
  1287   416   421    1
  1288  1179  1176   ar
  1289  1179  1180   ar
  1290   642   645   ar
  1291  1176  1175   ar
  1292  1316  1317    1
  1293  1316  1314    1
  1294   279   277   ar
  1295  1258  1265   ar
  1296  1258  1259   ar
  1297   398   397    1
  1298   618   624   ar
  1299  1311  1313    1
  1300  1311  1329    1
  1301  1311  1297    1
  1302  1143  1145    1
  1303  1143  1144    1
  1304  1320  1315    1
  1305  1145  1146    1
  1306   622   623   ar
  1307   664   667   ar
  1308  1234  1233    1
  1309  1313  1312    1
  1310   654   659    1
  1311   654   653    1
  1312  1302  1301   ar
  1313  1302  1303    2
  1314   417   419    1
  1315  1265  1264   ar
  1316  1199  1198    2
  1317   713   703    1
  1318   742   740    1
  1319   742   744    1
  1320  1172  1173    1
  1321  1172  1174   ar
  1322   656   672    1
  1323   656   655    1
  1324   306   305   ar
  1325   306   299   ar
  1326   281   282   ar
  1327   659   669    1
  1328   659   657    1
  1329  1260  1259    2
  1330  1301  1300    1
  1331   766   768    1
  1332   766   767    1
  1333   766   764    1
  1334   421   419    1
  1335   421   422    1
  1336   693   672    2
  1337   635   634    1
  1338   432   434    1
  1339   432   453    1
  1340   768   763    1
  1341   669   668   ar
  1342   653   655    1
  1343   653   651    1
  1344   798   779    2
  1345   298   296    1
  1346   298   299    1
  1347  1292  1294    1
  1348  1259  1261   ar
  1349   647   636    1
  1350   647   646   ar
  1351   672   692    1
  1352  1180  1181   ar
  1353   731   730   ar
  1354   731   734   ar
  1355   740   741    1
  1356   729   730   ar
  1357   433   434    1
  1358   433   435    1
  1359  1175  1174   ar
  1360  1175  1181   ar
  1361   305   303   ar
  1362  1296  1297    1
  1363  1296  1298    1
  1364  1296  1294    1
  1365   715   694    2
  1366  1231  1233    1
  1367  1231  1229    1
  1368   636   634    1
  1369   636   631    1
  1370   744   745    1
  1371   397   395    1
  1372   397   399    1
  1373  1315  1314    1
  1374   296   297    1
  1375  1183  1161    2
  1376   694   696    1
  1377   694   714    1
  1378   395   393    1
  1379   395   396    1
  1380   779   765    1
  1381   779   797    1
  1382  1233  1235    1
  1383   634   632    1
  1384  1314  1312    1
  1385   311   310    1
  1386   745   759    1
  1387   645   646   ar
  1388   299   300   ar
  1389  1144  1161    1
  1390   277   278    1
  1391   277   276   ar
  1392  1198  1197   ar
  1393  1198  1200   ar
  1394   758   739    2
  1395   623   624   ar
  1396   655   657    1
  1397   624   614    1
  1398   764   765    1
  1399   764   762    1
  1400   730   736   ar
  1401   651   652    1
  1402  1197  1195   ar
  1403  1181  1170    1
  1404  1264  1262   ar
  1405  1298  1300    1
  1406  1298  1299    1
  1407   393   394    1
  1408   658   657    1
  1409   667   668   ar
  1410  1294  1295    1
  1411   696   695    1
  1412  1300  1295    1
  1413   734   735   ar
  1414   590   589    1
  1415   703   698    1
  1416   703   701    1
  1417   282   276   ar
  1418   282   283    2
  1419  1229  1227    1
  1420  1229  1230    1
  1421   435   436    1
  1422   435   437    1
  1423   763   762    1
  1424  1261  1262   ar
  1425   422   429   ar
  1426   422   423   ar
  1427   594   593    1
  1428  1161  1163    1
  1429  1161  1182    1
  1430   396   401    1
  1431   310   312    1
  1432   325   326   ar
  1433   325   323   ar
  1434   741   739    1
  1435   631   630    1
  1436   698   697    1
  1437   429   428   ar
  1438   303   304    1
  1439   303   302   ar
  1440  1262  1263    2
  1441   761   759    1
  1442   761   760    1
  1443   400   399    1
  1444  1200  1201   ar
  1445   399   401    1
  1446  1227  1228    1
  1447   424   423    2
  1448  1196  1195    2
  1449  1195  1194   ar
  1450   410   392    2
  1451   574   573    2
  1452   436   441    1
  1453  1170  1165    1
  1454  1170  1168    1
  1455   739   757    1
  1456   739   722    1
  1457   324   323    2
  1458   614   612    1
  1459   614   609    1
  1460   762   760    1
  1461   473   454    2
  1462  1235  1230    1
  1463  1235  1245    1
  1464  1165  1164    1
  1465   300   302   ar
  1466   300   301    2
  1467   401   402    1
  1468   632   633    1
  1469   632   630    1
  1470  1246  1226    2
  1471   326   319   ar
  1472   759   778    2
  1473   759   777    1
  1474   652   650    1
  1475   736   735   ar
  1476   736   725    1
  1477   423   425   ar
  1478   438   437    1
  1479   438   454    1
  1480   595   593   ar
  1481   595   596   ar
  1482   701   699    1
  1483   701   702    1
  1484   394   392    1
  1485   695   697    1
  1486  1163  1162    1
  1487   323   322   ar
  1488   472   454    1
  1489   593   592   ar
  1490  1228  1226    1
  1491   633   650    1
  1492   437   439    1
  1493   591   589    1
  1494   591   586    1
  1495   591   602    1
  1496   612   613    1
  1497   612   610    1
  1498   630   628    1
  1499   589   587    1
  1500   454   456    1
  1501   697   699    1
  1502   699   700    1
  1503   586   585    1
  1504   723   721    1
  1505   723   725    1
  1506   723   724    1
  1507  1201  1194   ar
  1508   348   329    2
  1509  1194  1193    1
  1510   721   722    1
  1511   721   719    1
  1512   392   411    1
  1513   392   378    1
  1514   428   426   ar
  1515  1245  1239   ar
  1516  1245  1244   ar
  1517   312   313    1
  1518   312   314    1
  1519   609   608    1
  1520  1238  1239   ar
  1521  1238  1237   ar
  1522   585   587    1
  1523   585   583    1
  1524   570   569    1
  1525   404   403    2
  1526   573   575   ar
  1527   573   572   ar
  1528  1226  1247    1
  1529  1226  1210    1
  1530   588   587    1
  1531   588   605    1
  1532   313   318    1
  1533  1162  1164    1
  1534   725   720    1
  1535   441   439    1
  1536   441   451    1
  1537  1168  1166    1
  1538  1168  1169    1
  1539   650   670    2
  1540   650   671    1
  1541  1164  1166    1
  1542   596   602   ar
  1543   596   597   ar
  1544  1239  1240   ar
  1545   575   576   ar
  1546   314   315    1
  1547   314   316    1
  1548   425   426   ar
  1549   738   716    2
  1550   402   403   ar
  1551   402   409   ar
  1552   319   318    1
  1553   319   320   ar
  1554   602   601   ar
  1555   718   717    1
  1556   718   716    1
  1557   440   439    1
  1558   592   598   ar
  1559  1244  1243   ar
  1560  1237  1236   ar
  1561   322   320   ar
  1562   610   608    1
  1563   610   611    1
  1564   450   451   ar
  1565   450   449   ar
  1566   315   329    1
  1567   426   427    1
  1568  1166  1167    1
  1569   625   605    2
  1570   403   405   ar
  1571   329   347    1
  1572   329   331    1
  1573   571   569    1
  1574   571   572    1
  1575   571   566    1
  1576   607   605    1
  1577   607   606    1
  1578   720   719    1
  1579   628   629    1
  1580   569   567    1
  1581   629   627    1
  1582   378   377    1
  1583   700   716    1
  1584  1193  1188    1
  1585  1193  1191    1
  1586   469   468    1
  1587   583   584    1
  1588   719   717    1
  1589   451   445   ar
  1590   554   553    2
  1591   572   579   ar
  1592   318   316    1
  1593   608   606    1
  1594   605   626    1
  1595   456   455    1
  1596   470   468   ar
  1597   470   471   ar
  1598   716   737    1
  1599  1240  1243   ar
  1600  1240  1241   ar
  1601   320   321    2
  1602  1210  1209    1
  1603   409   408   ar
  1604   380   379    1
  1605  1188  1187    1
  1606   555   553   ar
  1607   555   556   ar
  1608  1236  1241   ar
  1609   597   598   ar
  1610   597   600   ar
  1611   316   317    1
  1612   576   577    2
  1613   576   578   ar
  1614   449   446   ar
  1615   598   599    2
  1616   344   343    2
  1617   468   467   ar
  1618   611   627    1
  1619   601   600   ar
  1620   649   627    2
  1621   566   565    1
  1622  1212  1211    1
  1623  1241  1242    1
  1624   553   552   ar
  1625   557   556    1
  1626   366   365    2
  1627  1203  1184    2
  1628   471   464   ar
  1629   627   648    1
  1630   455   457    1
  1631   536   535    2
  1632   345   343   ar
  1633   345   346   ar
  1634   405   406   ar
  1635  1191  1192    1
  1636  1191  1189    1
  1637   377   379    1
  1638   377   375    1
  1639  1167  1184    1
  1640  1211  1209    1
  1641  1211  1213    1
  1642   331   330    1
  1643   584   582    1
  1644   529   535   ar
  1645   529   530   ar
  1646   556   558   ar
  1647   579   578   ar
  1648   567   568    1
  1649   567   565    1
  1650  1209  1207    1
  1651   445   446   ar
  1652   445   444   ar
  1653   531   530    1
  1654   343   342   ar
  1655  1186  1184    1
  1656  1186  1185    1
  1657   379   381    1
  1658   568   582    1
  1659   565   563    1
  1660   513   512    2
  1661  1215  1216   ar
  1662  1215  1214   ar
  1663   408   406   ar
  1664   384   383    2
  1665  1184  1202    1
  1666   446   447   ar
  1667  1216  1217   ar
  1668   535   534   ar
  1669  1187  1189    1
  1670  1187  1185    1
  1671   371   349    2
  1672   490   489    1
  1673  1189  1190    1
  1674   346   339   ar
  1675   467   465   ar
  1676   530   532   ar
  1677   365   364   ar
  1678   365   359   ar
  1679   406   407    2
  1680  1214  1219   ar
  1681   444   443   ar
  1682   552   551    1
  1683   552   559   ar
  1684   381   376    1
  1685   381   382    1
  1686   367   364   ar
  1687   367   368   ar
  1688   464   465   ar
  1689   464   463    1
  1690   375   376    1
  1691   375   373    1
  1692   582   603    2
  1693   582   604    1
  1694   458   457    1
  1695   458   463    1
  1696   457   459    1
  1697   330   332    1
  1698   495   474    2
  1699  1217  1223   ar
  1700  1217  1218   ar
  1701   550   549    1
  1702  1213  1223    1
  1703  1213  1208    1
  1704   551   549    1
  1705   551   546    1
  1706   558   559   ar
  1707  1207  1205    1
  1708  1207  1208    1
  1709   364   363   ar
  1710   512   506   ar
  1711   512   511   ar
  1712   342   340   ar
  1713   465   466    2
  1714   383   382   ar
  1715   383   385   ar
  1716   549   547    1
  1717   359   360   ar
  1718   563   564    1
  1719  1223  1222   ar
  1720  1219  1218   ar
  1721  1219  1220    1
  1722   459   460    1
  1723   459   461    1
  1724  1225  1204    2
  1725   491   488   ar
  1726   491   492   ar
  1727   447   448    1
  1728   447   442   ar
  1729   489   488   ar
  1730   489   484   ar
  1731   463   461    1
  1732   534   533   ar
  1733   534   537   ar
  1734  1218  1221   ar
  1735   349   370    1
  1736   349   335    1
  1737   349   351    1
  1738   506   507   ar
  1739   368   369   ar
  1740   382   389   ar
  1741   339   340   ar
  1742   339   338    1
  1743  1190  1204    1
  1744   373   374    1
  1745   532   533   ar
  1746  1205  1206    1
  1747   443   442   ar
  1748  1206  1204    1
  1749   334   332    1
  1750   334   335    1
  1751   334   336    1
  1752   488   487   ar
  1753   332   333    1
  1754   460   474    1
  1755   564   562    1
  1756   514   511   ar
  1757   514   515   ar
  1758  1222  1221   ar
  1759   340   341    2
  1760   511   510   ar
  1761   333   338    1
  1762   474   494    1
  1763   474   476    1
  1764  1204  1224    1
  1765   533   539   ar
  1766   385   386   ar
  1767   546   545    1
  1768   484   485   ar
  1769   461   462    1
  1770   351   350    1
  1771   537   538   ar
  1772   492   493   ar
  1773   363   369   ar
  1774   363   362   ar
  1775   360   362   ar
  1776   360   361    1
  1777   338   336    1
  1778   547   545    1
  1779   547   548    1
  1780   369   358    1
  1781   336   337    1
  1782   507   508    1
  1783   507   509   ar
  1784   389   388   ar
  1785   374   372    1
  1786   476   475    1
  1787   545   543    1
  1788   515   516   ar
  1789   487   493   ar
  1790   487   486   ar
  1791   548   562    1
  1792   510   509   ar
  1793   510   516   ar
  1794   562   581    2
  1795   562   580    1
  1796   539   538   ar
  1797   539   528    1
  1798   485   486   ar
  1799   386   388   ar
  1800   386   387    2
  1801   493   483    1
  1802   350   352    1
  1803   390   372    2
  1804   354   356    1
  1805   354   352    1
  1806   354   355    1
  1807   358   353    1
  1808   358   356    1
  1809   353   352    1
  1810   516   505    1
  1811   372   355    1
  1812   372   391    1
  1813   356   357    1
  1814   475   477    1
  1815   544   543    1
  1816   544   542    1
  1817   528   526    1
  1818   528   523    1
  1819   518   496    2
  1820   478   483    1
  1821   478   477    1
  1822   526   527    1
  1823   526   524    1
  1824   483   481    1
  1825   479   477    1
  1826   479   481    1
  1827   479   480    1
  1828   561   542    2
  1829   481   482    1
  1830   505   500    1
  1831   505   503    1
  1832   524   525    1
  1833   524   522    1
  1834   541   519    2
  1835   523   522    1
  1836   542   525    1
  1837   542   560    1
  1838   500   499    1
  1839   496   480    1
  1840   496   498    1
  1841   496   517    1
  1842   503   501    1
  1843   503   504    1
  1844   497   498    1
  1845   497   499    1
  1846   501   499    1
  1847   501   502    1
  1848   521   519    1
  1849   521   520    1
  1850   522   520    1
  1851   519   502    1
  1852   519   540    1
