ligand
  PyMOL2.3          3D                             0

 27 29  0  0  0  0  0  0  0  0999 V2000
   45.1910  -26.9970 -102.6930 N   0  0  0  0  0  0  0  0  0  0  0  0
   45.5260  -26.3470 -103.9650 C   0  0  0  0  0  0  0  0  0  0  0  0
   44.5890  -26.8410 -105.0470 C   0  0  0  0  0  0  0  0  0  0  0  0
   44.7450  -26.4840 -106.2050 O   0  0  0  0  0  0  0  0  0  0  0  0
   46.9710  -26.6500 -104.3840 C   0  0  0  0  0  0  0  0  0  0  0  0
   47.9240  -26.4690 -103.2110 C   0  0  0  0  0  0  0  0  0  0  0  0
   49.6900  -26.6260 -103.6800 S   0  0  0  0  0  0  0  0  0  0  0  0
   49.7030  -26.2710 -105.4670 C   0  0  0  0  0  0  0  0  0  0  0  0
   49.6970  -28.4160 -103.7480 C   0  0  0  0  0  0  0  0  0  0  0  0
   50.2110  -29.0680 -102.4920 C   0  0  0  0  0  0  0  0  0  0  0  0
   49.2850  -28.7750 -101.4320 O   0  0  0  0  0  0  0  0  0  0  0  0
   50.0660  -30.5060 -102.7900 C   0  0  0  0  0  0  0  0  0  0  0  0
   51.3150  -31.0310 -103.2370 O   0  0  0  0  0  0  0  0  0  0  0  0
   49.7200  -31.0800 -101.4510 C   0  0  0  0  0  0  0  0  0  0  0  0
   50.9200  -31.3980 -100.7160 O   0  0  0  0  0  0  0  0  0  0  0  0
   48.9190  -29.9730 -100.7020 C   0  0  0  0  0  0  0  0  0  0  0  0
   43.6940  -27.6230 -104.7780 O   0  0  0  0  0  0  0  0  0  0  0  0
   44.4880  -31.2040 -103.3570 N   0  0  0  0  0  0  0  0  0  0  0  0
   45.7680  -31.3010 -103.7930 C   0  0  0  0  0  0  0  0  0  0  0  0
   46.8140  -30.9930 -102.9980 N   0  0  0  0  0  0  0  0  0  0  0  0
   46.6150  -30.4920 -101.7680 C   0  0  0  0  0  0  0  0  0  0  0  0
   45.2670  -30.3330 -101.2780 C   0  0  0  0  0  0  0  0  0  0  0  0
   44.1920  -30.7230 -102.1310 C   0  0  0  0  0  0  0  0  0  0  0  0
   42.8790  -30.6070 -101.7220 N   0  0  0  0  0  0  0  0  0  0  0  0
   45.3490  -29.8170 -100.0460 N   0  0  0  0  0  0  0  0  0  0  0  0
   46.6010  -29.6400  -99.7450 C   0  0  0  0  0  0  0  0  0  0  0  0
   47.4300  -30.0450 -100.7650 N   0  0  0  0  0  0  0  0  0  0  0  0
  1  2  1  0  0  0  0
  2  3  1  0  0  0  0
  2  5  1  0  0  0  0
  3  4  4  0  0  0  0
  3 17  4  0  0  0  0
  5  6  1  0  0  0  0
  6  7  1  0  0  0  0
  7  8  1  0  0  0  0
  7  9  1  0  0  0  0
  9 10  1  0  0  0  0
 10 11  1  0  0  0  0
 10 12  1  0  0  0  0
 11 16  1  0  0  0  0
 12 13  1  0  0  0  0
 12 14  1  0  0  0  0
 14 15  1  0  0  0  0
 14 16  1  0  0  0  0
 16 27  1  0  0  0  0
 18 19  4  0  0  0  0
 19 20  4  0  0  0  0
 20 21  4  0  0  0  0
 21 22  4  0  0  0  0
 22 23  4  0  0  0  0
 18 23  4  0  0  0  0
 23 24  1  0  0  0  0
 22 25  4  0  0  0  0
 25 26  4  0  0  0  0
 21 27  4  0  0  0  0
 26 27  4  0  0  0  0
M  END
$$$$
