ligand
 OpenBabel02271912153D
libRbt.so/2013.1/901 2013/11/27
 27 29  0  0  0  0  0  0  0  0999 V2000
   45.4173  -27.6172 -102.3956 N   0  0  0  0  0  0  0  0  0  0  0  0
   45.9090  -26.7040 -103.4334 C   0  0  2  0  0  0  0  0  0  0  0  0
   45.1042  -26.8994 -104.7010 C   0  0  0  0  0  0  0  0  0  0  0  0
   44.4673  -27.9280 -104.8721 O   0  0  0  0  0  0  0  0  0  0  0  0
   47.3909  -26.9558 -103.7431 C   0  0  0  0  0  0  0  0  0  0  0  0
   48.2698  -26.5092 -102.5833 C   0  0  0  0  0  0  0  0  0  0  0  0
   50.0637  -26.6704 -102.9284 S   0  0  2  0  0  0  0  0  0  0  0  0
   50.2353  -26.0830 -104.6446 C   0  0  0  0  0  0  0  0  0  0  0  0
   50.0273  -28.4346 -103.2364 C   0  0  0  0  0  0  0  0  0  0  0  0
   50.4872  -29.2635 -102.0667 C   0  0  1  0  0  0  0  0  0  0  0  0
   49.5442  -29.0790 -100.9973 O   0  0  0  0  0  0  0  0  0  0  0  0
   50.3032  -30.6439 -102.5547 C   0  0  1  0  0  0  0  0  0  0  0  0
   51.5456  -31.1501 -103.0403 O   0  0  0  0  0  0  0  0  0  0  0  0
   49.9043  -31.3757 -101.3107 C   0  0  1  0  0  0  0  0  0  0  0  0
   51.0739  -31.8299 -100.5986 O   0  0  0  0  0  0  0  0  0  0  0  0
   49.1207  -30.3485 -100.4395 C   0  0  2  0  0  0  0  0  0  0  0  0
   45.0583  -26.0208 -105.5441 O   0  0  0  0  0  0  0  0  0  0  0  0
   44.7010  -31.8889 -102.9478 N   0  0  0  0  0  0  0  0  0  0  0  0
   45.9849  -32.1384 -103.3047 C   0  0  0  0  0  0  0  0  0  0  0  0
   47.0246  -31.7225 -102.5518 N   0  0  0  0  0  0  0  0  0  0  0  0
   46.8209  -30.9652 -101.4616 C   0  0  0  0  0  0  0  0  0  0  0  0
   45.4712  -30.6405 -101.0674 C   0  0  0  0  0  0  0  0  0  0  0  0
   44.3994  -31.1472 -101.8611 C   0  0  0  0  0  0  0  0  0  0  0  0
   43.0845  -30.8832 -101.5358 N   0  0  0  0  0  0  0  0  0  0  0  0
   45.5487  -29.8820  -99.9676 N   0  0  0  0  0  0  0  0  0  0  0  0
   46.8001  -29.7079  -99.6623 C   0  0  0  0  0  0  0  0  0  0  0  0
   47.6323  -30.3585 -100.5431 N   0  0  0  0  0  0  0  0  0  0  0  0
  2  1  1  1  0  0  0
  2  3  1  0  0  0  0
  2  5  1  0  0  0  0
  3  4  1  0  0  0  0
  3 17  1  0  0  0  0
  5  6  1  0  0  0  0
  7  6  1  6  0  0  0
  7  8  1  0  0  0  0
  7  9  1  0  0  0  0
 10  9  1  6  0  0  0
 10 11  1  0  0  0  0
 10 12  1  0  0  0  0
 11 16  1  0  0  0  0
 12 13  1  1  0  0  0
 12 14  1  0  0  0  0
 14 15  1  1  0  0  0
 14 16  1  0  0  0  0
 16 27  1  6  0  0  0
 18 19  2  0  0  0  0
 18 23  1  0  0  0  0
 19 20  1  0  0  0  0
 20 21  2  0  0  0  0
 21 22  1  0  0  0  0
 21 27  1  0  0  0  0
 22 23  2  0  0  0  0
 22 25  1  0  0  0  0
 23 24  1  0  0  0  0
 25 26  2  0  0  0  0
 26 27  1  0  0  0  0
M  END
>  <CHROM.1>
-19.63177657,-70.37416731,-175.95289029,41.83564619,-100.19056585,65.27494834
100.13189400,47.63994155,-29.19600912,-102.43461684,-2.91332494,0.10058295
2.60397361

>  <Name>
ligand

>  <RI>
0

>  <Rbt.Current_Directory>
/home/itssahil/PROJECTS/Mol_Feturizer/Test_systems_manuscript/rnas/4l81

>  <Rbt.Executable>
rbdock ($Id: //depot/dev/client3/rdock/2013.1/src/exe/rbdock.cxx#4 $)

>  <Rbt.Library>
libRbt.so (2013.1, Build901 2013/11/27)

>  <Rbt.Parameter_File>
/export/apps/rDock/src/rDock_2013.1_src/data/scripts/dock_solv.prm

>  <Rbt.Receptor>
prm/pocket_docking_2.prm

>  <SCORE>
-18.9298

>  <SCORE.INTER>
-17.5788

>  <SCORE.INTER.CONST>
1

>  <SCORE.INTER.POLAR>
0

>  <SCORE.INTER.ROT>
7

>  <SCORE.INTER.SOLV>
18.7601

>  <SCORE.INTER.VDW>
-26.2393

>  <SCORE.INTER.norm>
-0.651068

>  <SCORE.INTRA>
-1.35535

>  <SCORE.INTRA.DIHEDRAL>
-1.67796

>  <SCORE.INTRA.DIHEDRAL.0>
8.34559

>  <SCORE.INTRA.POLAR>
0

>  <SCORE.INTRA.POLAR.0>
0

>  <SCORE.INTRA.REPUL>
0

>  <SCORE.INTRA.REPUL.0>
0

>  <SCORE.INTRA.SOLV>
1.13041

>  <SCORE.INTRA.SOLV.lig_0>
-48.829

>  <SCORE.INTRA.VDW>
-1.08157

>  <SCORE.INTRA.VDW.0>
-1.77092

>  <SCORE.INTRA.norm>
-0.0501981

>  <SCORE.RESTR>
0.00439308

>  <SCORE.RESTR.CAVITY>
0.00439308

>  <SCORE.RESTR.norm>
0.000162707

>  <SCORE.SYSTEM>
0

>  <SCORE.SYSTEM.CONST>
0

>  <SCORE.SYSTEM.DIHEDRAL>
0

>  <SCORE.SYSTEM.SOLV>
0

>  <SCORE.SYSTEM.norm>
0

>  <SCORE.heavy>
27

>  <SCORE.norm>
-0.701103

>  <RMSD>
0.650

$$$$
ligand
 OpenBabel02271912153D
libRbt.so/2013.1/901 2013/11/27
 27 29  0  0  0  0  0  0  0  0999 V2000
   45.4672  -27.6353 -102.4140 N   0  0  0  0  0  0  0  0  0  0  0  0
   45.8849  -26.7001 -103.4645 C   0  0  2  0  0  0  0  0  0  0  0  0
   45.0797  -26.9588 -104.7205 C   0  0  0  0  0  0  0  0  0  0  0  0
   44.5828  -28.0576 -104.9165 O   0  0  0  0  0  0  0  0  0  0  0  0
   47.3764  -26.8558 -103.7908 C   0  0  0  0  0  0  0  0  0  0  0  0
   48.2374  -26.3594 -102.6379 C   0  0  0  0  0  0  0  0  0  0  0  0
   50.0358  -26.5577 -102.9375 S   0  0  2  0  0  0  0  0  0  0  0  0
   50.2550  -26.0205 -104.6647 C   0  0  0  0  0  0  0  0  0  0  0  0
   49.9780  -28.3290 -103.1983 C   0  0  0  0  0  0  0  0  0  0  0  0
   50.4324  -29.1317 -102.0083 C   0  0  1  0  0  0  0  0  0  0  0  0
   49.4467  -28.9818 -100.9725 O   0  0  0  0  0  0  0  0  0  0  0  0
   50.3233  -30.5211 -102.4932 C   0  0  1  0  0  0  0  0  0  0  0  0
   51.6017  -30.9767 -102.9333 O   0  0  0  0  0  0  0  0  0  0  0  0
   49.9136  -31.2628 -101.2586 C   0  0  1  0  0  0  0  0  0  0  0  0
   51.0764  -31.6634 -100.5046 O   0  0  0  0  0  0  0  0  0  0  0  0
   49.0583  -30.2652 -100.4211 C   0  0  2  0  0  0  0  0  0  0  0  0
   44.8931  -26.0657 -105.5283 O   0  0  0  0  0  0  0  0  0  0  0  0
   44.7928  -32.0956 -103.0005 N   0  0  0  0  0  0  0  0  0  0  0  0
   46.0971  -32.3110 -103.3008 C   0  0  0  0  0  0  0  0  0  0  0  0
   47.0927  -31.8192 -102.5341 N   0  0  0  0  0  0  0  0  0  0  0  0
   46.8216  -31.0198 -101.4897 C   0  0  0  0  0  0  0  0  0  0  0  0
   45.4473  -30.7301 -101.1580 C   0  0  0  0  0  0  0  0  0  0  0  0
   44.4246  -31.3157 -101.9621 C   0  0  0  0  0  0  0  0  0  0  0  0
   43.0898  -31.0886 -101.6951 N   0  0  0  0  0  0  0  0  0  0  0  0
   45.4566  -29.9179 -100.0945 N   0  0  0  0  0  0  0  0  0  0  0  0
   46.6887  -29.6804  -99.7556 C   0  0  0  0  0  0  0  0  0  0  0  0
   47.5760  -30.3387 -100.5748 N   0  0  0  0  0  0  0  0  0  0  0  0
  2  1  1  1  0  0  0
  2  3  1  0  0  0  0
  2  5  1  0  0  0  0
  3  4  1  0  0  0  0
  3 17  1  0  0  0  0
  5  6  1  0  0  0  0
  7  6  1  6  0  0  0
  7  8  1  0  0  0  0
  7  9  1  0  0  0  0
 10  9  1  6  0  0  0
 10 11  1  0  0  0  0
 10 12  1  0  0  0  0
 11 16  1  0  0  0  0
 12 13  1  1  0  0  0
 12 14  1  0  0  0  0
 14 15  1  1  0  0  0
 14 16  1  0  0  0  0
 16 27  1  6  0  0  0
 18 19  2  0  0  0  0
 18 23  1  0  0  0  0
 19 20  1  0  0  0  0
 20 21  2  0  0  0  0
 21 22  1  0  0  0  0
 21 27  1  0  0  0  0
 22 23  2  0  0  0  0
 22 25  1  0  0  0  0
 23 24  1  0  0  0  0
 25 26  2  0  0  0  0
 26 27  1  0  0  0  0
M  END
>  <CHROM.1>
-24.40251277,-69.62990851,178.39584802,43.25403345,-101.69185795,69.20776654
102.56564696,47.62930480,-29.18106429,-102.44849752,-3.09346897,0.13860307
2.61987569

>  <Name>
ligand

>  <RI>
0

>  <Rbt.Current_Directory>
/home/itssahil/PROJECTS/Mol_Feturizer/Test_systems_manuscript/rnas/4l81

>  <Rbt.Executable>
rbdock ($Id: //depot/dev/client3/rdock/2013.1/src/exe/rbdock.cxx#4 $)

>  <Rbt.Library>
libRbt.so (2013.1, Build901 2013/11/27)

>  <Rbt.Parameter_File>
/export/apps/rDock/src/rDock_2013.1_src/data/scripts/dock_solv.prm

>  <Rbt.Receptor>
prm/pocket_docking_2.prm

>  <SCORE>
-18.7734

>  <SCORE.INTER>
-17.5361

>  <SCORE.INTER.CONST>
1

>  <SCORE.INTER.POLAR>
0

>  <SCORE.INTER.ROT>
7

>  <SCORE.INTER.SOLV>
18.4368

>  <SCORE.INTER.VDW>
-26.103

>  <SCORE.INTER.norm>
-0.649484

>  <SCORE.INTRA>
-1.23735

>  <SCORE.INTRA.DIHEDRAL>
-1.47361

>  <SCORE.INTRA.DIHEDRAL.0>
8.34559

>  <SCORE.INTRA.POLAR>
0

>  <SCORE.INTRA.POLAR.0>
0

>  <SCORE.INTRA.REPUL>
0

>  <SCORE.INTRA.REPUL.0>
0

>  <SCORE.INTRA.SOLV>
0.976031

>  <SCORE.INTRA.SOLV.lig_0>
-48.829

>  <SCORE.INTRA.VDW>
-0.988563

>  <SCORE.INTRA.VDW.0>
-1.77092

>  <SCORE.INTRA.norm>
-0.0458279

>  <SCORE.RESTR>
0

>  <SCORE.RESTR.CAVITY>
0

>  <SCORE.RESTR.norm>
0

>  <SCORE.SYSTEM>
0

>  <SCORE.SYSTEM.CONST>
0

>  <SCORE.SYSTEM.DIHEDRAL>
0

>  <SCORE.SYSTEM.SOLV>
0

>  <SCORE.SYSTEM.norm>
0

>  <SCORE.heavy>
27

>  <SCORE.norm>
-0.695312

>  <RMSD>
0.676

$$$$
ligand
 OpenBabel02271912153D
libRbt.so/2013.1/901 2013/11/27
 27 29  0  0  0  0  0  0  0  0999 V2000
   45.4060  -27.2565 -102.6721 N   0  0  0  0  0  0  0  0  0  0  0  0
   45.9247  -26.1455 -103.4779 C   0  0  2  0  0  0  0  0  0  0  0  0
   45.1242  -26.0331 -104.7582 C   0  0  0  0  0  0  0  0  0  0  0  0
   44.0904  -26.6700 -104.8944 O   0  0  0  0  0  0  0  0  0  0  0  0
   47.4027  -26.3557 -103.8340 C   0  0  0  0  0  0  0  0  0  0  0  0
   48.2962  -26.0461 -102.6413 C   0  0  0  0  0  0  0  0  0  0  0  0
   50.0545  -26.4880 -102.9178 S   0  0  2  0  0  0  0  0  0  0  0  0
   50.3516  -26.0393 -104.6585 C   0  0  0  0  0  0  0  0  0  0  0  0
   49.7658  -28.2437 -103.1244 C   0  0  0  0  0  0  0  0  0  0  0  0
   50.1897  -29.0710 -101.9401 C   0  0  1  0  0  0  0  0  0  0  0  0
   49.1950  -28.9145 -100.9138 O   0  0  0  0  0  0  0  0  0  0  0  0
   50.0582  -30.4515 -102.4446 C   0  0  1  0  0  0  0  0  0  0  0  0
   51.3322  -30.9274 -102.8759 O   0  0  0  0  0  0  0  0  0  0  0  0
   49.6189  -31.2007 -101.2248 C   0  0  1  0  0  0  0  0  0  0  0  0
   50.7644  -31.6348 -100.4628 O   0  0  0  0  0  0  0  0  0  0  0  0
   48.7742  -30.1968 -100.3840 C   0  0  2  0  0  0  0  0  0  0  0  0
   45.4857  -25.2830 -105.6478 O   0  0  0  0  0  0  0  0  0  0  0  0
   44.4958  -32.0245 -102.9439 N   0  0  0  0  0  0  0  0  0  0  0  0
   45.7977  -32.2868 -103.2159 C   0  0  0  0  0  0  0  0  0  0  0  0
   46.7959  -31.7886 -102.4566 N   0  0  0  0  0  0  0  0  0  0  0  0
   46.5324  -30.9379 -101.4515 C   0  0  0  0  0  0  0  0  0  0  0  0
   45.1621  -30.5982 -101.1524 C   0  0  0  0  0  0  0  0  0  0  0  0
   44.1349  -31.1910 -101.9454 C   0  0  0  0  0  0  0  0  0  0  0  0
   42.8032  -30.9176 -101.7076 N   0  0  0  0  0  0  0  0  0  0  0  0
   45.1791  -29.7413 -100.1247 N   0  0  0  0  0  0  0  0  0  0  0  0
   46.4125  -29.5218  -99.7785 C   0  0  0  0  0  0  0  0  0  0  0  0
   47.2926  -30.2379 -100.5558 N   0  0  0  0  0  0  0  0  0  0  0  0
  2  1  1  1  0  0  0
  2  3  1  0  0  0  0
  2  5  1  0  0  0  0
  3  4  1  0  0  0  0
  3 17  1  0  0  0  0
  5  6  1  0  0  0  0
  7  6  1  6  0  0  0
  7  8  1  0  0  0  0
  7  9  1  0  0  0  0
 10  9  1  6  0  0  0
 10 11  1  0  0  0  0
 10 12  1  0  0  0  0
 11 16  1  0  0  0  0
 12 13  1  1  0  0  0
 12 14  1  0  0  0  0
 14 15  1  1  0  0  0
 14 16  1  0  0  0  0
 16 27  1  6  0  0  0
 18 19  2  0  0  0  0
 18 23  1  0  0  0  0
 19 20  1  0  0  0  0
 20 21  2  0  0  0  0
 21 22  1  0  0  0  0
 21 27  1  0  0  0  0
 22 23  2  0  0  0  0
 22 25  1  0  0  0  0
 23 24  1  0  0  0  0
 25 26  2  0  0  0  0
 26 27  1  0  0  0  0
M  END
>  <CHROM.1>
10.78122441,-76.83155238,172.27734520,38.43556111,-105.52928794,76.66229063
105.80918779,47.46820940,-28.94381110,-102.44004889,1.58142694,-0.10936989
-0.50054883

>  <Name>
ligand

>  <RI>
0

>  <Rbt.Current_Directory>
/home/itssahil/PROJECTS/Mol_Feturizer/Test_systems_manuscript/rnas/4l81

>  <Rbt.Executable>
rbdock ($Id: //depot/dev/client3/rdock/2013.1/src/exe/rbdock.cxx#4 $)

>  <Rbt.Library>
libRbt.so (2013.1, Build901 2013/11/27)

>  <Rbt.Parameter_File>
/export/apps/rDock/src/rDock_2013.1_src/data/scripts/dock_solv.prm

>  <Rbt.Receptor>
prm/pocket_docking_6.prm

>  <SCORE>
-17.8527

>  <SCORE.INTER>
-18.0946

>  <SCORE.INTER.CONST>
1

>  <SCORE.INTER.POLAR>
0

>  <SCORE.INTER.ROT>
7

>  <SCORE.INTER.SOLV>
20.1453

>  <SCORE.INTER.VDW>
-27.0448

>  <SCORE.INTER.norm>
-0.670171

>  <SCORE.INTRA>
0.241901

>  <SCORE.INTRA.DIHEDRAL>
0.642381

>  <SCORE.INTRA.DIHEDRAL.0>
8.34559

>  <SCORE.INTRA.POLAR>
0

>  <SCORE.INTRA.POLAR.0>
0

>  <SCORE.INTRA.REPUL>
0

>  <SCORE.INTRA.REPUL.0>
0

>  <SCORE.INTRA.SOLV>
-0.0377311

>  <SCORE.INTRA.SOLV.lig_0>
-48.829

>  <SCORE.INTRA.VDW>
-0.0604236

>  <SCORE.INTRA.VDW.0>
-1.77092

>  <SCORE.INTRA.norm>
0.00895931

>  <SCORE.RESTR>
0

>  <SCORE.RESTR.CAVITY>
0

>  <SCORE.RESTR.norm>
0

>  <SCORE.SYSTEM>
0

>  <SCORE.SYSTEM.CONST>
0

>  <SCORE.SYSTEM.DIHEDRAL>
0

>  <SCORE.SYSTEM.SOLV>
0

>  <SCORE.SYSTEM.norm>
0

>  <SCORE.heavy>
27

>  <SCORE.norm>
-0.661212

>  <RMSD>
0.713

$$$$
ligand
 OpenBabel02271912153D
libRbt.so/2013.1/901 2013/11/27
 27 29  0  0  0  0  0  0  0  0999 V2000
   45.5273  -27.7445 -102.1601 N   0  0  0  0  0  0  0  0  0  0  0  0
   45.9278  -26.7499 -103.1616 C   0  0  2  0  0  0  0  0  0  0  0  0
   44.9933  -26.8256 -104.3506 C   0  0  0  0  0  0  0  0  0  0  0  0
   44.3080  -27.8208 -104.5312 O   0  0  0  0  0  0  0  0  0  0  0  0
   47.3648  -26.9899 -103.6442 C   0  0  0  0  0  0  0  0  0  0  0  0
   48.3680  -26.6295 -102.5576 C   0  0  0  0  0  0  0  0  0  0  0  0
   50.1129  -26.7885 -103.0994 S   0  0  2  0  0  0  0  0  0  0  0  0
   50.0683  -26.3330 -104.8629 C   0  0  0  0  0  0  0  0  0  0  0  0
   50.0845  -28.5717 -103.2679 C   0  0  0  0  0  0  0  0  0  0  0  0
   50.5507  -29.3040 -102.0378 C   0  0  1  0  0  0  0  0  0  0  0  0
   49.5925  -29.0657 -100.9928 O   0  0  0  0  0  0  0  0  0  0  0  0
   50.4030  -30.7197 -102.4273 C   0  0  1  0  0  0  0  0  0  0  0  0
   51.6615  -31.2301 -102.8644 O   0  0  0  0  0  0  0  0  0  0  0  0
   50.0076  -31.3699 -101.1377 C   0  0  1  0  0  0  0  0  0  0  0  0
   51.1797  -31.7447 -100.3847 O   0  0  0  0  0  0  0  0  0  0  0  0
   49.1919  -30.3016 -100.3493 C   0  0  2  0  0  0  0  0  0  0  0  0
   44.8927  -25.8835 -105.1169 O   0  0  0  0  0  0  0  0  0  0  0  0
   44.8399  -31.8617 -102.9616 N   0  0  0  0  0  0  0  0  0  0  0  0
   46.1334  -32.0537 -103.3195 C   0  0  0  0  0  0  0  0  0  0  0  0
   47.1544  -31.6408 -102.5398 N   0  0  0  0  0  0  0  0  0  0  0  0
   46.9196  -30.9421 -101.4172 C   0  0  0  0  0  0  0  0  0  0  0  0
   45.5577  -30.6787 -101.0192 C   0  0  0  0  0  0  0  0  0  0  0  0
   44.5078  -31.1814 -101.8441 C   0  0  0  0  0  0  0  0  0  0  0  0
   43.1830  -30.9744 -101.5174 N   0  0  0  0  0  0  0  0  0  0  0  0
   45.6039  -29.9704  -99.8848 N   0  0  0  0  0  0  0  0  0  0  0  0
   46.8471  -29.7714  -99.5618 C   0  0  0  0  0  0  0  0  0  0  0  0
   47.7053  -30.3536 -100.4652 N   0  0  0  0  0  0  0  0  0  0  0  0
  2  1  1  1  0  0  0
  2  3  1  0  0  0  0
  2  5  1  0  0  0  0
  3  4  1  0  0  0  0
  3 17  1  0  0  0  0
  5  6  1  0  0  0  0
  7  6  1  1  0  0  0
  7  8  1  0  0  0  0
  7  9  1  0  0  0  0
 10  9  1  6  0  0  0
 10 11  1  0  0  0  0
 10 12  1  0  0  0  0
 11 16  1  0  0  0  0
 12 13  1  1  0  0  0
 12 14  1  0  0  0  0
 14 15  1  1  0  0  0
 14 16  1  0  0  0  0
 16 27  1  6  0  0  0
 18 19  2  0  0  0  0
 18 23  1  0  0  0  0
 19 20  1  0  0  0  0
 20 21  2  0  0  0  0
 21 22  1  0  0  0  0
 21 27  1  0  0  0  0
 22 23  2  0  0  0  0
 22 25  1  0  0  0  0
 23 24  1  0  0  0  0
 25 26  2  0  0  0  0
 26 27  1  0  0  0  0
M  END
>  <CHROM.1>
-18.59748240,-71.48536309,-176.30083558,33.50601812,-93.49719709,66.57788904
93.34405042,47.68519629,-29.22421347,-102.35144023,-2.82049619,0.06824277
2.60192439

>  <Name>
ligand

>  <RI>
0

>  <Rbt.Current_Directory>
/home/itssahil/PROJECTS/Mol_Feturizer/Test_systems_manuscript/rnas/4l81

>  <Rbt.Executable>
rbdock ($Id: //depot/dev/client3/rdock/2013.1/src/exe/rbdock.cxx#4 $)

>  <Rbt.Library>
libRbt.so (2013.1, Build901 2013/11/27)

>  <Rbt.Parameter_File>
/export/apps/rDock/src/rDock_2013.1_src/data/scripts/dock_solv.prm

>  <Rbt.Receptor>
prm/pocket_docking_3.prm

>  <SCORE>
-19.2582

>  <SCORE.INTER>
-18.0183

>  <SCORE.INTER.CONST>
1

>  <SCORE.INTER.POLAR>
0

>  <SCORE.INTER.ROT>
7

>  <SCORE.INTER.SOLV>
18.6519

>  <SCORE.INTER.VDW>
-26.4961

>  <SCORE.INTER.norm>
-0.667343

>  <SCORE.INTRA>
-1.23999

>  <SCORE.INTRA.DIHEDRAL>
-1.75285

>  <SCORE.INTRA.DIHEDRAL.0>
8.34559

>  <SCORE.INTRA.POLAR>
0

>  <SCORE.INTRA.POLAR.0>
0

>  <SCORE.INTRA.REPUL>
0

>  <SCORE.INTRA.REPUL.0>
0

>  <SCORE.INTRA.SOLV>
1.72575

>  <SCORE.INTRA.SOLV.lig_0>
-48.829

>  <SCORE.INTRA.VDW>
-1.22643

>  <SCORE.INTRA.VDW.0>
-1.77092

>  <SCORE.INTRA.norm>
-0.0459254

>  <SCORE.RESTR>
0

>  <SCORE.RESTR.CAVITY>
0

>  <SCORE.RESTR.norm>
0

>  <SCORE.SYSTEM>
0

>  <SCORE.SYSTEM.CONST>
0

>  <SCORE.SYSTEM.DIHEDRAL>
0

>  <SCORE.SYSTEM.SOLV>
0

>  <SCORE.SYSTEM.norm>
0

>  <SCORE.heavy>
27

>  <SCORE.norm>
-0.713268

>  <RMSD>
0.719

$$$$
ligand
 OpenBabel02271912153D
libRbt.so/2013.1/901 2013/11/27
 27 29  0  0  0  0  0  0  0  0999 V2000
   45.1693  -27.3403 -102.4415 N   0  0  0  0  0  0  0  0  0  0  0  0
   45.5146  -26.2851 -103.4006 C   0  0  2  0  0  0  0  0  0  0  0  0
   45.1965  -26.7546 -104.8046 C   0  0  0  0  0  0  0  0  0  0  0  0
   44.0855  -27.1876 -105.0707 O   0  0  0  0  0  0  0  0  0  0  0  0
   47.0047  -25.9256 -103.3236 C   0  0  0  0  0  0  0  0  0  0  0  0
   47.8666  -27.1797 -103.3596 C   0  0  0  0  0  0  0  0  0  0  0  0
   49.6206  -26.8673 -102.9244 S   0  0  2  0  0  0  0  0  0  0  0  0
   50.2851  -25.9940 -104.3789 C   0  0  0  0  0  0  0  0  0  0  0  0
   50.1944  -28.5216 -103.3023 C   0  0  0  0  0  0  0  0  0  0  0  0
   50.5987  -29.3148 -102.0880 C   0  0  1  0  0  0  0  0  0  0  0  0
   49.6098  -29.0946 -101.0679 O   0  0  0  0  0  0  0  0  0  0  0  0
   50.4310  -30.7093 -102.5406 C   0  0  1  0  0  0  0  0  0  0  0  0
   51.6917  -31.2335 -102.9545 O   0  0  0  0  0  0  0  0  0  0  0  0
   49.9744  -31.4009 -101.2935 C   0  0  1  0  0  0  0  0  0  0  0  0
   51.1094  -31.8356 -100.5163 O   0  0  0  0  0  0  0  0  0  0  0  0
   49.1569  -30.3450 -100.4904 C   0  0  2  0  0  0  0  0  0  0  0  0
   46.0335  -26.6736 -105.6865 O   0  0  0  0  0  0  0  0  0  0  0  0
   44.8398  -32.0396 -103.0766 N   0  0  0  0  0  0  0  0  0  0  0  0
   46.1361  -32.3214 -103.3565 C   0  0  0  0  0  0  0  0  0  0  0  0
   47.1449  -31.8575 -102.5897 N   0  0  0  0  0  0  0  0  0  0  0  0
   46.8995  -31.0218 -101.5674 C   0  0  0  0  0  0  0  0  0  0  0  0
   45.5365  -30.6620 -101.2589 C   0  0  0  0  0  0  0  0  0  0  0  0
   44.4967  -31.2193 -102.0611 C   0  0  0  0  0  0  0  0  0  0  0  0
   43.1709  -30.9251 -101.8152 N   0  0  0  0  0  0  0  0  0  0  0  0
   45.5717  -29.8260 -100.2145 N   0  0  0  0  0  0  0  0  0  0  0  0
   46.8097  -29.6369  -99.8667 C   0  0  0  0  0  0  0  0  0  0  0  0
   47.6746  -30.3543 -100.6598 N   0  0  0  0  0  0  0  0  0  0  0  0
  2  1  1  1  0  0  0
  2  3  1  0  0  0  0
  2  5  1  0  0  0  0
  3  4  1  0  0  0  0
  3 17  1  0  0  0  0
  5  6  1  0  0  0  0
  7  6  1  6  0  0  0
  7  8  1  0  0  0  0
  7  9  1  0  0  0  0
 10  9  1  6  0  0  0
 10 11  1  0  0  0  0
 10 12  1  0  0  0  0
 11 16  1  0  0  0  0
 12 13  1  1  0  0  0
 12 14  1  0  0  0  0
 14 15  1  1  0  0  0
 14 16  1  0  0  0  0
 16 27  1  6  0  0  0
 18 19  2  0  0  0  0
 18 23  1  0  0  0  0
 19 20  1  0  0  0  0
 20 21  2  0  0  0  0
 21 22  1  0  0  0  0
 21 27  1  0  0  0  0
 22 23  2  0  0  0  0
 22 25  1  0  0  0  0
 23 24  1  0  0  0  0
 25 26  2  0  0  0  0
 26 27  1  0  0  0  0
M  END
>  <CHROM.1>
52.64195116,48.80357793,-168.01167364,-72.71407135,-110.47049358,43.22126408
102.51971530,47.63698708,-29.19358026,-102.50657518,-2.55191007,0.09757574
2.64628546

>  <Name>
ligand

>  <RI>
0

>  <Rbt.Current_Directory>
/home/itssahil/PROJECTS/Mol_Feturizer/Test_systems_manuscript/rnas/4l81

>  <Rbt.Executable>
rbdock ($Id: //depot/dev/client3/rdock/2013.1/src/exe/rbdock.cxx#4 $)

>  <Rbt.Library>
libRbt.so (2013.1, Build901 2013/11/27)

>  <Rbt.Parameter_File>
/export/apps/rDock/src/rDock_2013.1_src/data/scripts/dock_solv.prm

>  <Rbt.Receptor>
prm/pocket_docking_2.prm

>  <SCORE>
-16.08

>  <SCORE.INTER>
-16.5164

>  <SCORE.INTER.CONST>
1

>  <SCORE.INTER.POLAR>
0

>  <SCORE.INTER.ROT>
7

>  <SCORE.INTER.SOLV>
19.4486

>  <SCORE.INTER.VDW>
-25.7605

>  <SCORE.INTER.norm>
-0.611717

>  <SCORE.INTRA>
0.426929

>  <SCORE.INTRA.DIHEDRAL>
0.423057

>  <SCORE.INTRA.DIHEDRAL.0>
8.34559

>  <SCORE.INTRA.POLAR>
0

>  <SCORE.INTRA.POLAR.0>
0

>  <SCORE.INTRA.REPUL>
0

>  <SCORE.INTRA.REPUL.0>
0

>  <SCORE.INTRA.SOLV>
0.75609

>  <SCORE.INTRA.SOLV.lig_0>
-48.829

>  <SCORE.INTRA.VDW>
-0.162644

>  <SCORE.INTRA.VDW.0>
-1.77092

>  <SCORE.INTRA.norm>
0.0158122

>  <SCORE.RESTR>
0.00943339

>  <SCORE.RESTR.CAVITY>
0.00943339

>  <SCORE.RESTR.norm>
0.000349385

>  <SCORE.SYSTEM>
0

>  <SCORE.SYSTEM.CONST>
0

>  <SCORE.SYSTEM.DIHEDRAL>
0

>  <SCORE.SYSTEM.SOLV>
0

>  <SCORE.SYSTEM.norm>
0

>  <SCORE.heavy>
27

>  <SCORE.norm>
-0.595556

>  <RMSD>
0.741

$$$$
ligand
 OpenBabel02271912153D
libRbt.so/2013.1/901 2013/11/27
 27 29  0  0  0  0  0  0  0  0999 V2000
   45.2839  -27.6828 -102.4099 N   0  0  0  0  0  0  0  0  0  0  0  0
   45.3434  -26.5642 -103.3575 C   0  0  2  0  0  0  0  0  0  0  0  0
   44.9305  -27.0446 -104.7328 C   0  0  0  0  0  0  0  0  0  0  0  0
   44.4239  -26.2681 -105.5285 O   0  0  0  0  0  0  0  0  0  0  0  0
   46.7590  -25.9774 -103.4415 C   0  0  0  0  0  0  0  0  0  0  0  0
   47.7772  -27.0634 -103.7591 C   0  0  0  0  0  0  0  0  0  0  0  0
   49.3611  -26.8589 -102.8577 S   0  0  2  0  0  0  0  0  0  0  0  0
   50.3794  -25.8502 -103.9824 C   0  0  0  0  0  0  0  0  0  0  0  0
   50.0085  -28.4782 -103.2671 C   0  0  0  0  0  0  0  0  0  0  0  0
   50.4656  -29.2684 -102.0698 C   0  0  1  0  0  0  0  0  0  0  0  0
   49.4909  -29.0936 -101.0275 O   0  0  0  0  0  0  0  0  0  0  0  0
   50.3379  -30.6635 -102.5336 C   0  0  1  0  0  0  0  0  0  0  0  0
   51.6075  -31.1385 -102.9786 O   0  0  0  0  0  0  0  0  0  0  0  0
   49.9319  -31.3832 -101.2849 C   0  0  1  0  0  0  0  0  0  0  0  0
   51.0975  -31.7849 -100.5356 O   0  0  0  0  0  0  0  0  0  0  0  0
   49.0945  -30.3650 -100.4542 C   0  0  2  0  0  0  0  0  0  0  0  0
   45.1299  -28.1990 -105.0685 O   0  0  0  0  0  0  0  0  0  0  0  0
   44.7933  -31.9431 -103.1387 N   0  0  0  0  0  0  0  0  0  0  0  0
   46.0933  -32.1266 -103.4767 C   0  0  0  0  0  0  0  0  0  0  0  0
   47.0995  -31.7099 -102.6800 N   0  0  0  0  0  0  0  0  0  0  0  0
   46.8430  -31.0157 -101.5594 C   0  0  0  0  0  0  0  0  0  0  0  0
   45.4735  -30.7615 -101.1820 C   0  0  0  0  0  0  0  0  0  0  0  0
   44.4397  -31.2679 -102.0247 C   0  0  0  0  0  0  0  0  0  0  0  0
   43.1087  -31.0696 -101.7182 N   0  0  0  0  0  0  0  0  0  0  0  0
   45.4977  -30.0561 -100.0451 N   0  0  0  0  0  0  0  0  0  0  0  0
   46.7345  -29.8507  -99.7021 C   0  0  0  0  0  0  0  0  0  0  0  0
   47.6102  -30.4253 -100.5935 N   0  0  0  0  0  0  0  0  0  0  0  0
  2  1  1  1  0  0  0
  2  3  1  0  0  0  0
  2  5  1  0  0  0  0
  3  4  1  0  0  0  0
  3 17  1  0  0  0  0
  5  6  1  0  0  0  0
  7  6  1  6  0  0  0
  7  8  1  0  0  0  0
  7  9  1  0  0  0  0
 10  9  1  6  0  0  0
 10 11  1  0  0  0  0
 10 12  1  0  0  0  0
 11 16  1  0  0  0  0
 12 13  1  1  0  0  0
 12 14  1  0  0  0  0
 14 15  1  1  0  0  0
 14 16  1  0  0  0  0
 16 27  1  6  0  0  0
 18 19  2  0  0  0  0
 18 23  1  0  0  0  0
 19 20  1  0  0  0  0
 20 21  2  0  0  0  0
 21 22  1  0  0  0  0
 21 27  1  0  0  0  0
 22 23  2  0  0  0  0
 22 25  1  0  0  0  0
 23 24  1  0  0  0  0
 25 26  2  0  0  0  0
 26 27  1  0  0  0  0
M  END
>  <CHROM.1>
152.17331419,54.00326586,-141.49383320,-90.78896267,-127.51160146,42.32997215
96.14913071,47.52822474,-29.24200424,-102.47801944,-2.62858196,0.12403694
2.63763006

>  <Name>
ligand

>  <RI>
0

>  <Rbt.Current_Directory>
/home/itssahil/PROJECTS/Mol_Feturizer/Test_systems_manuscript/rnas/4l81

>  <Rbt.Executable>
rbdock ($Id: //depot/dev/client3/rdock/2013.1/src/exe/rbdock.cxx#4 $)

>  <Rbt.Library>
libRbt.so (2013.1, Build901 2013/11/27)

>  <Rbt.Parameter_File>
/export/apps/rDock/src/rDock_2013.1_src/data/scripts/dock_solv.prm

>  <Rbt.Receptor>
prm/pocket_docking_2.prm

>  <SCORE>
-15.462

>  <SCORE.INTER>
-17.1605

>  <SCORE.INTER.CONST>
1

>  <SCORE.INTER.POLAR>
0

>  <SCORE.INTER.ROT>
7

>  <SCORE.INTER.SOLV>
18.6894

>  <SCORE.INTER.VDW>
-25.9368

>  <SCORE.INTER.norm>
-0.635574

>  <SCORE.INTRA>
1.6985

>  <SCORE.INTRA.DIHEDRAL>
5.50798

>  <SCORE.INTRA.DIHEDRAL.0>
8.34559

>  <SCORE.INTRA.POLAR>
0

>  <SCORE.INTRA.POLAR.0>
0

>  <SCORE.INTRA.REPUL>
0

>  <SCORE.INTRA.REPUL.0>
0

>  <SCORE.INTRA.SOLV>
1.45029

>  <SCORE.INTRA.SOLV.lig_0>
-48.829

>  <SCORE.INTRA.VDW>
-1.78064

>  <SCORE.INTRA.VDW.0>
-1.77092

>  <SCORE.INTRA.norm>
0.0629074

>  <SCORE.RESTR>
0

>  <SCORE.RESTR.CAVITY>
0

>  <SCORE.RESTR.norm>
0

>  <SCORE.SYSTEM>
0

>  <SCORE.SYSTEM.CONST>
0

>  <SCORE.SYSTEM.DIHEDRAL>
0

>  <SCORE.SYSTEM.SOLV>
0

>  <SCORE.SYSTEM.norm>
0

>  <SCORE.heavy>
27

>  <SCORE.norm>
-0.572667

>  <RMSD>
0.766

$$$$
ligand
 OpenBabel02271912153D
libRbt.so/2013.1/901 2013/11/27
 27 29  0  0  0  0  0  0  0  0999 V2000
   45.3729  -25.8928 -103.5490 N   0  0  0  0  0  0  0  0  0  0  0  0
   46.4090  -26.5439 -104.3586 C   0  0  2  0  0  0  0  0  0  0  0  0
   45.7582  -27.4851 -105.3502 C   0  0  0  0  0  0  0  0  0  0  0  0
   45.1085  -28.4412 -104.9546 O   0  0  0  0  0  0  0  0  0  0  0  0
   47.3831  -27.3430 -103.4822 C   0  0  0  0  0  0  0  0  0  0  0  0
   48.5164  -26.4565 -102.9857 C   0  0  0  0  0  0  0  0  0  0  0  0
   50.1567  -26.9340 -103.6527 S   0  0  2  0  0  0  0  0  0  0  0  0
   49.9785  -26.7180 -105.4530 C   0  0  0  0  0  0  0  0  0  0  0  0
   49.8814  -28.7012 -103.5521 C   0  0  0  0  0  0  0  0  0  0  0  0
   50.3997  -29.3239 -102.2831 C   0  0  1  0  0  0  0  0  0  0  0  0
   49.4610  -29.0335 -101.2336 O   0  0  0  0  0  0  0  0  0  0  0  0
   50.2852  -30.7688 -102.5602 C   0  0  1  0  0  0  0  0  0  0  0  0
   51.5474  -31.2755 -102.9911 O   0  0  0  0  0  0  0  0  0  0  0  0
   49.9417  -31.3294 -101.2149 C   0  0  1  0  0  0  0  0  0  0  0  0
   51.1428  -31.6123 -100.4674 O   0  0  0  0  0  0  0  0  0  0  0  0
   49.1139  -30.2274 -100.4879 C   0  0  2  0  0  0  0  0  0  0  0  0
   45.8490  -27.2784 -106.5477 O   0  0  0  0  0  0  0  0  0  0  0  0
   44.7378  -31.8449 -103.0239 N   0  0  0  0  0  0  0  0  0  0  0  0
   46.0249  -31.9747 -103.4293 C   0  0  0  0  0  0  0  0  0  0  0  0
   47.0554  -31.5549 -102.6658 N   0  0  0  0  0  0  0  0  0  0  0  0
   46.8324  -30.9096 -101.5094 C   0  0  0  0  0  0  0  0  0  0  0  0
   45.4756  -30.7128 -101.0588 C   0  0  0  0  0  0  0  0  0  0  0  0
   44.4181  -31.2215 -101.8701 C   0  0  0  0  0  0  0  0  0  0  0  0
   43.0981  -31.0767 -101.4943 N   0  0  0  0  0  0  0  0  0  0  0  0
   45.5333  -30.0480  -99.8989 N   0  0  0  0  0  0  0  0  0  0  0  0
   46.7784  -29.8157  -99.6070 C   0  0  0  0  0  0  0  0  0  0  0  0
   47.6271  -30.3300 -100.5594 N   0  0  0  0  0  0  0  0  0  0  0  0
  2  1  1  1  0  0  0
  2  3  1  0  0  0  0
  2  5  1  0  0  0  0
  3  4  1  0  0  0  0
  3 17  1  0  0  0  0
  5  6  1  0  0  0  0
  7  6  1  1  0  0  0
  7  8  1  0  0  0  0
  7  9  1  0  0  0  0
 10  9  1  6  0  0  0
 10 11  1  0  0  0  0
 10 12  1  0  0  0  0
 11 16  1  0  0  0  0
 12 13  1  1  0  0  0
 12 14  1  0  0  0  0
 14 15  1  1  0  0  0
 14 16  1  0  0  0  0
 16 27  1  6  0  0  0
 18 19  2  0  0  0  0
 18 23  1  0  0  0  0
 19 20  1  0  0  0  0
 20 21  2  0  0  0  0
 21 22  1  0  0  0  0
 21 27  1  0  0  0  0
 22 23  2  0  0  0  0
 22 25  1  0  0  0  0
 23 24  1  0  0  0  0
 25 26  2  0  0  0  0
 26 27  1  0  0  0  0
M  END
>  <CHROM.1>
-62.62314147,-87.22267709,-114.42058820,61.78339407,-94.35838282,77.97901827
86.68778113,47.73569771,-29.28742254,-102.69357531,1.27368189,-0.09769840
-0.69678624

>  <Name>
ligand

>  <RI>
0

>  <Rbt.Current_Directory>
/home/itssahil/PROJECTS/Mol_Feturizer/Test_systems_manuscript/rnas/4l81

>  <Rbt.Executable>
rbdock ($Id: //depot/dev/client3/rdock/2013.1/src/exe/rbdock.cxx#4 $)

>  <Rbt.Library>
libRbt.so (2013.1, Build901 2013/11/27)

>  <Rbt.Parameter_File>
/export/apps/rDock/src/rDock_2013.1_src/data/scripts/dock_solv.prm

>  <Rbt.Receptor>
prm/pocket_docking_2.prm

>  <SCORE>
-11.2853

>  <SCORE.INTER>
-13.8008

>  <SCORE.INTER.CONST>
1

>  <SCORE.INTER.POLAR>
0

>  <SCORE.INTER.ROT>
7

>  <SCORE.INTER.SOLV>
19.9358

>  <SCORE.INTER.VDW>
-24.1125

>  <SCORE.INTER.norm>
-0.51114

>  <SCORE.INTRA>
2.44555

>  <SCORE.INTRA.DIHEDRAL>
6.11652

>  <SCORE.INTRA.DIHEDRAL.0>
8.34559

>  <SCORE.INTRA.POLAR>
0

>  <SCORE.INTRA.POLAR.0>
0

>  <SCORE.INTRA.REPUL>
0

>  <SCORE.INTRA.REPUL.0>
0

>  <SCORE.INTRA.SOLV>
-0.694881

>  <SCORE.INTRA.SOLV.lig_0>
-48.829

>  <SCORE.INTRA.VDW>
-0.265265

>  <SCORE.INTRA.VDW.0>
-1.77092

>  <SCORE.INTRA.norm>
0.090576

>  <SCORE.RESTR>
0.0699049

>  <SCORE.RESTR.CAVITY>
0.0699049

>  <SCORE.RESTR.norm>
0.00258907

>  <SCORE.SYSTEM>
0

>  <SCORE.SYSTEM.CONST>
0

>  <SCORE.SYSTEM.DIHEDRAL>
0

>  <SCORE.SYSTEM.SOLV>
0

>  <SCORE.SYSTEM.norm>
0

>  <SCORE.heavy>
27

>  <SCORE.norm>
-0.417975

>  <RMSD>
0.782

$$$$
ligand
 OpenBabel02271912153D
libRbt.so/2013.1/901 2013/11/27
 27 29  0  0  0  0  0  0  0  0999 V2000
   45.3734  -27.2870 -102.5803 N   0  0  0  0  0  0  0  0  0  0  0  0
   45.7867  -26.1530 -103.4146 C   0  0  2  0  0  0  0  0  0  0  0  0
   45.4078  -26.4216 -104.8558 C   0  0  0  0  0  0  0  0  0  0  0  0
   45.3379  -27.5691 -105.2692 O   0  0  0  0  0  0  0  0  0  0  0  0
   47.3020  -25.9233 -103.3347 C   0  0  0  0  0  0  0  0  0  0  0  0
   48.0545  -27.2444 -103.4094 C   0  0  0  0  0  0  0  0  0  0  0  0
   49.8753  -27.0391 -103.4846 S   0  0  2  0  0  0  0  0  0  0  0  0
   50.1936  -26.5746 -105.2174 C   0  0  0  0  0  0  0  0  0  0  0  0
   50.2469  -28.7883 -103.5887 C   0  0  0  0  0  0  0  0  0  0  0  0
   50.6910  -29.3921 -102.2829 C   0  0  1  0  0  0  0  0  0  0  0  0
   49.7043  -29.0682 -101.2888 O   0  0  0  0  0  0  0  0  0  0  0  0
   50.5702  -30.8407 -102.5374 C   0  0  1  0  0  0  0  0  0  0  0  0
   51.8453  -31.3727 -102.8932 O   0  0  0  0  0  0  0  0  0  0  0  0
   50.1506  -31.3694 -101.2008 C   0  0  1  0  0  0  0  0  0  0  0  0
   51.3079  -31.6532 -100.3875 O   0  0  0  0  0  0  0  0  0  0  0  0
   49.3027  -30.2421 -100.5387 C   0  0  2  0  0  0  0  0  0  0  0  0
   45.1378  -25.4990 -105.6047 O   0  0  0  0  0  0  0  0  0  0  0  0
   45.0370  -32.0676 -103.1213 N   0  0  0  0  0  0  0  0  0  0  0  0
   46.3412  -32.2661 -103.4335 C   0  0  0  0  0  0  0  0  0  0  0  0
   47.3374  -31.7782 -102.6649 N   0  0  0  0  0  0  0  0  0  0  0  0
   47.0659  -30.9988 -101.6055 C   0  0  0  0  0  0  0  0  0  0  0  0
   45.6913  -30.7272 -101.2604 C   0  0  0  0  0  0  0  0  0  0  0  0
   44.6687  -31.3085 -102.0676 C   0  0  0  0  0  0  0  0  0  0  0  0
   43.3336  -31.0979 -101.7883 N   0  0  0  0  0  0  0  0  0  0  0  0
   45.7003  -29.9329 -100.1834 N   0  0  0  0  0  0  0  0  0  0  0  0
   46.9324  -29.6899  -99.8484 C   0  0  0  0  0  0  0  0  0  0  0  0
   47.8201  -30.3264 -100.6842 N   0  0  0  0  0  0  0  0  0  0  0  0
  2  1  1  1  0  0  0
  2  3  1  0  0  0  0
  2  5  1  0  0  0  0
  3  4  1  0  0  0  0
  3 17  1  0  0  0  0
  5  6  1  0  0  0  0
  7  6  1  6  0  0  0
  7  8  1  0  0  0  0
  7  9  1  0  0  0  0
 10  9  1  6  0  0  0
 10 11  1  0  0  0  0
 10 12  1  0  0  0  0
 11 16  1  0  0  0  0
 12 13  1  1  0  0  0
 12 14  1  0  0  0  0
 14 15  1  1  0  0  0
 14 16  1  0  0  0  0
 16 27  1  6  0  0  0
 18 19  2  0  0  0  0
 18 23  1  0  0  0  0
 19 20  1  0  0  0  0
 20 21  2  0  0  0  0
 21 22  1  0  0  0  0
 21 27  1  0  0  0  0
 22 23  2  0  0  0  0
 22 25  1  0  0  0  0
 23 24  1  0  0  0  0
 25 26  2  0  0  0  0
 26 27  1  0  0  0  0
M  END
>  <CHROM.1>
-28.28677016,43.32906755,174.38126209,-78.11085236,-100.91932377,52.85595531
92.23920812,47.80289737,-29.20358406,-102.62164583,2.28296653,-0.04412588
-0.54541872

>  <Name>
ligand

>  <RI>
0

>  <Rbt.Current_Directory>
/home/itssahil/PROJECTS/Mol_Feturizer/Test_systems_manuscript/rnas/4l81

>  <Rbt.Executable>
rbdock ($Id: //depot/dev/client3/rdock/2013.1/src/exe/rbdock.cxx#4 $)

>  <Rbt.Library>
libRbt.so (2013.1, Build901 2013/11/27)

>  <Rbt.Parameter_File>
/export/apps/rDock/src/rDock_2013.1_src/data/scripts/dock_solv.prm

>  <Rbt.Receptor>
prm/pocket_docking_3.prm

>  <SCORE>
-18.7066

>  <SCORE.INTER>
-16.6424

>  <SCORE.INTER.CONST>
1

>  <SCORE.INTER.POLAR>
0

>  <SCORE.INTER.ROT>
7

>  <SCORE.INTER.SOLV>
18.1708

>  <SCORE.INTER.VDW>
-25.4185

>  <SCORE.INTER.norm>
-0.616385

>  <SCORE.INTRA>
-2.06424

>  <SCORE.INTRA.DIHEDRAL>
-0.85581

>  <SCORE.INTRA.DIHEDRAL.0>
8.34559

>  <SCORE.INTRA.POLAR>
0

>  <SCORE.INTRA.POLAR.0>
0

>  <SCORE.INTRA.REPUL>
0

>  <SCORE.INTRA.REPUL.0>
0

>  <SCORE.INTRA.SOLV>
0.0411118

>  <SCORE.INTRA.SOLV.lig_0>
-48.829

>  <SCORE.INTRA.VDW>
-1.65689

>  <SCORE.INTRA.VDW.0>
-1.77092

>  <SCORE.INTRA.norm>
-0.0764534

>  <SCORE.RESTR>
0

>  <SCORE.RESTR.CAVITY>
0

>  <SCORE.RESTR.norm>
0

>  <SCORE.SYSTEM>
0

>  <SCORE.SYSTEM.CONST>
0

>  <SCORE.SYSTEM.DIHEDRAL>
0

>  <SCORE.SYSTEM.SOLV>
0

>  <SCORE.SYSTEM.norm>
0

>  <SCORE.heavy>
27

>  <SCORE.norm>
-0.692838

>  <RMSD>
0.810

$$$$
ligand
 OpenBabel02271912153D
libRbt.so/2013.1/901 2013/11/27
 27 29  0  0  0  0  0  0  0  0999 V2000
   44.5735  -28.0797 -103.6332 N   0  0  0  0  0  0  0  0  0  0  0  0
   44.8818  -26.6911 -103.9930 C   0  0  2  0  0  0  0  0  0  0  0  0
   45.0192  -26.5773 -105.4966 C   0  0  0  0  0  0  0  0  0  0  0  0
   44.9061  -27.5693 -106.2008 O   0  0  0  0  0  0  0  0  0  0  0  0
   46.1881  -26.2210 -103.3387 C   0  0  0  0  0  0  0  0  0  0  0  0
   47.2716  -27.2819 -103.4701 C   0  0  0  0  0  0  0  0  0  0  0  0
   48.8594  -26.7979 -102.6903 S   0  0  2  0  0  0  0  0  0  0  0  0
   49.6175  -25.6682 -103.9022 C   0  0  0  0  0  0  0  0  0  0  0  0
   49.7338  -28.3010 -103.1205 C   0  0  0  0  0  0  0  0  0  0  0  0
   50.2091  -29.0877 -101.9281 C   0  0  1  0  0  0  0  0  0  0  0  0
   49.2200  -28.9603 -100.8925 O   0  0  0  0  0  0  0  0  0  0  0  0
   50.1362  -30.4811 -102.4085 C   0  0  1  0  0  0  0  0  0  0  0  0
   51.4258  -30.9047 -102.8475 O   0  0  0  0  0  0  0  0  0  0  0  0
   49.7460  -31.2292 -101.1714 C   0  0  1  0  0  0  0  0  0  0  0  0
   50.9190  -31.5971 -100.4164 O   0  0  0  0  0  0  0  0  0  0  0  0
   48.8652  -30.2516 -100.3369 C   0  0  2  0  0  0  0  0  0  0  0  0
   45.2101  -25.4927 -106.0182 O   0  0  0  0  0  0  0  0  0  0  0  0
   44.6459  -31.8911 -103.1132 N   0  0  0  0  0  0  0  0  0  0  0  0
   45.9542  -32.0108 -103.4478 C   0  0  0  0  0  0  0  0  0  0  0  0
   46.9384  -31.5863 -102.6279 N   0  0  0  0  0  0  0  0  0  0  0  0
   46.6479  -30.9462 -101.4836 C   0  0  0  0  0  0  0  0  0  0  0  0
   45.2672  -30.7600 -101.1076 C   0  0  0  0  0  0  0  0  0  0  0  0
   44.2592  -31.2734 -101.9769 C   0  0  0  0  0  0  0  0  0  0  0  0
   42.9196  -31.1388 -101.6735 N   0  0  0  0  0  0  0  0  0  0  0  0
   45.2566  -30.0984  -99.9444 N   0  0  0  0  0  0  0  0  0  0  0  0
   46.4822  -29.8585  -99.5841 C   0  0  0  0  0  0  0  0  0  0  0  0
   47.3853  -30.3641 -100.4900 N   0  0  0  0  0  0  0  0  0  0  0  0
  2  1  1  6  0  0  0
  2  3  1  0  0  0  0
  2  5  1  0  0  0  0
  3  4  1  0  0  0  0
  3 17  1  0  0  0  0
  5  6  1  0  0  0  0
  7  6  1  6  0  0  0
  7  8  1  0  0  0  0
  7  9  1  0  0  0  0
 10  9  1  6  0  0  0
 10 11  1  0  0  0  0
 10 12  1  0  0  0  0
 11 16  1  0  0  0  0
 12 13  1  1  0  0  0
 12 14  1  0  0  0  0
 14 15  1  1  0  0  0
 14 16  1  0  0  0  0
 16 27  1  6  0  0  0
 18 19  2  0  0  0  0
 18 23  1  0  0  0  0
 19 20  1  0  0  0  0
 20 21  2  0  0  0  0
 21 22  1  0  0  0  0
 21 27  1  0  0  0  0
 22 23  2  0  0  0  0
 22 25  1  0  0  0  0
 23 24  1  0  0  0  0
 25 26  2  0  0  0  0
 26 27  1  0  0  0  0
M  END
>  <CHROM.1>
-1.80875567,44.73287477,-179.25856566,-78.75185797,-118.33356965,35.79756729
94.58944280,47.27450835,-29.13312159,-102.54219120,2.26479817,-0.18902122
-0.59249590

>  <Name>
ligand

>  <RI>
0

>  <Rbt.Current_Directory>
/home/itssahil/PROJECTS/Mol_Feturizer/Test_systems_manuscript/rnas/4l81

>  <Rbt.Executable>
rbdock ($Id: //depot/dev/client3/rdock/2013.1/src/exe/rbdock.cxx#4 $)

>  <Rbt.Library>
libRbt.so (2013.1, Build901 2013/11/27)

>  <Rbt.Parameter_File>
/export/apps/rDock/src/rDock_2013.1_src/data/scripts/dock_solv.prm

>  <Rbt.Receptor>
prm/pocket_docking_2.prm

>  <SCORE>
-17.0529

>  <SCORE.INTER>
-17.2089

>  <SCORE.INTER.CONST>
1

>  <SCORE.INTER.POLAR>
0

>  <SCORE.INTER.ROT>
7

>  <SCORE.INTER.SOLV>
18.519

>  <SCORE.INTER.VDW>
-25.9122

>  <SCORE.INTER.norm>
-0.637366

>  <SCORE.INTRA>
0.155958

>  <SCORE.INTRA.DIHEDRAL>
1.95943

>  <SCORE.INTRA.DIHEDRAL.0>
8.34559

>  <SCORE.INTRA.POLAR>
0

>  <SCORE.INTRA.POLAR.0>
0

>  <SCORE.INTRA.REPUL>
0

>  <SCORE.INTRA.REPUL.0>
0

>  <SCORE.INTRA.SOLV>
0.753565

>  <SCORE.INTRA.SOLV.lig_0>
-48.829

>  <SCORE.INTRA.VDW>
-1.20054

>  <SCORE.INTRA.VDW.0>
-1.77092

>  <SCORE.INTRA.norm>
0.00577622

>  <SCORE.RESTR>
0

>  <SCORE.RESTR.CAVITY>
0

>  <SCORE.RESTR.norm>
0

>  <SCORE.SYSTEM>
0

>  <SCORE.SYSTEM.CONST>
0

>  <SCORE.SYSTEM.DIHEDRAL>
0

>  <SCORE.SYSTEM.SOLV>
0

>  <SCORE.SYSTEM.norm>
0

>  <SCORE.heavy>
27

>  <SCORE.norm>
-0.631589

>  <RMSD>
0.877

$$$$
ligand
 OpenBabel02271912153D
libRbt.so/2013.1/901 2013/11/27
 27 29  0  0  0  0  0  0  0  0999 V2000
   45.0712  -28.5325 -104.7518 N   0  0  0  0  0  0  0  0  0  0  0  0
   45.1764  -27.1518 -104.2669 C   0  0  2  0  0  0  0  0  0  0  0  0
   44.3287  -26.2456 -105.1346 C   0  0  0  0  0  0  0  0  0  0  0  0
   43.1173  -26.3972 -105.1818 O   0  0  0  0  0  0  0  0  0  0  0  0
   46.6284  -26.6560 -104.3022 C   0  0  0  0  0  0  0  0  0  0  0  0
   47.5698  -27.6953 -103.7099 C   0  0  0  0  0  0  0  0  0  0  0  0
   49.3418  -27.2671 -103.9103 S   0  0  2  0  0  0  0  0  0  0  0  0
   49.5153  -26.9395 -105.6942 C   0  0  0  0  0  0  0  0  0  0  0  0
   49.9374  -28.9561 -103.8745 C   0  0  0  0  0  0  0  0  0  0  0  0
   50.3668  -29.4183 -102.5074 C   0  0  1  0  0  0  0  0  0  0  0  0
   49.3604  -29.0075 -101.5665 O   0  0  0  0  0  0  0  0  0  0  0  0
   50.2663  -30.8866 -102.6148 C   0  0  1  0  0  0  0  0  0  0  0  0
   51.5529  -31.4357 -102.8952 O   0  0  0  0  0  0  0  0  0  0  0  0
   49.8308  -31.2820 -101.2378 C   0  0  1  0  0  0  0  0  0  0  0  0
   50.9777  -31.4668 -100.3823 O   0  0  0  0  0  0  0  0  0  0  0  0
   48.9596  -30.1042 -100.7070 C   0  0  2  0  0  0  0  0  0  0  0  0
   44.8427  -25.3387 -105.7657 O   0  0  0  0  0  0  0  0  0  0  0  0
   44.7575  -32.2340 -103.1573 N   0  0  0  0  0  0  0  0  0  0  0  0
   46.0688  -32.4460 -103.4283 C   0  0  0  0  0  0  0  0  0  0  0  0
   47.0467  -31.8708 -102.6977 N   0  0  0  0  0  0  0  0  0  0  0  0
   46.7492  -30.9928 -101.7261 C   0  0  0  0  0  0  0  0  0  0  0  0
   45.3661  -30.7056 -101.4307 C   0  0  0  0  0  0  0  0  0  0  0  0
   44.3635  -31.3780 -102.1909 C   0  0  0  0  0  0  0  0  0  0  0  0
   43.0218  -31.1578 -101.9543 N   0  0  0  0  0  0  0  0  0  0  0  0
   45.3486  -29.8074 -100.4389 N   0  0  0  0  0  0  0  0  0  0  0  0
   46.5722  -29.5162 -100.1114 C   0  0  0  0  0  0  0  0  0  0  0  0
   47.4806  -30.2217 -100.8656 N   0  0  0  0  0  0  0  0  0  0  0  0
  2  1  1  6  0  0  0
  2  3  1  0  0  0  0
  2  5  1  0  0  0  0
  3  4  1  0  0  0  0
  3 17  1  0  0  0  0
  5  6  1  0  0  0  0
  7  6  1  6  0  0  0
  7  8  1  0  0  0  0
  7  9  1  0  0  0  0
 10  9  1  6  0  0  0
 10 11  1  0  0  0  0
 10 12  1  0  0  0  0
 11 16  1  0  0  0  0
 12 13  1  1  0  0  0
 12 14  1  0  0  0  0
 14 15  1  1  0  0  0
 14 16  1  0  0  0  0
 16 27  1  6  0  0  0
 18 19  2  0  0  0  0
 18 23  1  0  0  0  0
 19 20  1  0  0  0  0
 20 21  2  0  0  0  0
 21 22  1  0  0  0  0
 21 27  1  0  0  0  0
 22 23  2  0  0  0  0
 22 25  1  0  0  0  0
 23 24  1  0  0  0  0
 25 26  2  0  0  0  0
 26 27  1  0  0  0  0
M  END
>  <CHROM.1>
63.11467106,-46.50936473,172.67707634,-52.69441836,-94.07954993,45.32388972
92.15123953,47.32498408,-29.29492727,-102.92167549,2.39531005,-0.05380456
-0.62046624

>  <Name>
ligand

>  <RI>
0

>  <Rbt.Current_Directory>
/home/itssahil/PROJECTS/Mol_Feturizer/Test_systems_manuscript/rnas/4l81

>  <Rbt.Executable>
rbdock ($Id: //depot/dev/client3/rdock/2013.1/src/exe/rbdock.cxx#4 $)

>  <Rbt.Library>
libRbt.so (2013.1, Build901 2013/11/27)

>  <Rbt.Parameter_File>
/export/apps/rDock/src/rDock_2013.1_src/data/scripts/dock_solv.prm

>  <Rbt.Receptor>
prm/pocket_docking_2.prm

>  <SCORE>
-16.001

>  <SCORE.INTER>
-15.1462

>  <SCORE.INTER.CONST>
1

>  <SCORE.INTER.POLAR>
0

>  <SCORE.INTER.ROT>
7

>  <SCORE.INTER.SOLV>
15.9682

>  <SCORE.INTER.VDW>
-23.6869

>  <SCORE.INTER.norm>
-0.56097

>  <SCORE.INTRA>
-0.878894

>  <SCORE.INTRA.DIHEDRAL>
-0.906814

>  <SCORE.INTRA.DIHEDRAL.0>
8.34559

>  <SCORE.INTRA.POLAR>
0

>  <SCORE.INTRA.POLAR.0>
0

>  <SCORE.INTRA.REPUL>
0

>  <SCORE.INTRA.REPUL.0>
0

>  <SCORE.INTRA.SOLV>
-0.213126

>  <SCORE.INTRA.SOLV.lig_0>
-48.829

>  <SCORE.INTRA.VDW>
-0.318924

>  <SCORE.INTRA.VDW.0>
-1.77092

>  <SCORE.INTRA.norm>
-0.0325516

>  <SCORE.RESTR>
0.0241057

>  <SCORE.RESTR.CAVITY>
0.0241057

>  <SCORE.RESTR.norm>
0.000892804

>  <SCORE.SYSTEM>
0

>  <SCORE.SYSTEM.CONST>
0

>  <SCORE.SYSTEM.DIHEDRAL>
0

>  <SCORE.SYSTEM.SOLV>
0

>  <SCORE.SYSTEM.norm>
0

>  <SCORE.heavy>
27

>  <SCORE.norm>
-0.592629

>  <RMSD>
0.885

$$$$
ligand
 OpenBabel02271912153D
libRbt.so/2013.1/901 2013/11/27
 27 29  0  0  0  0  0  0  0  0999 V2000
   46.3080  -25.6975 -103.2636 N   0  0  0  0  0  0  0  0  0  0  0  0
   45.9078  -26.1489 -104.6010 C   0  0  2  0  0  0  0  0  0  0  0  0
   44.4759  -26.6396 -104.5612 C   0  0  0  0  0  0  0  0  0  0  0  0
   44.1210  -27.4303 -103.7000 O   0  0  0  0  0  0  0  0  0  0  0  0
   46.8085  -27.2872 -105.0995 C   0  0  0  0  0  0  0  0  0  0  0  0
   48.2726  -26.8720 -105.0688 C   0  0  0  0  0  0  0  0  0  0  0  0
   48.9973  -26.8923 -103.3842 S   0  0  2  0  0  0  0  0  0  0  0  0
   50.5406  -25.9397 -103.5586 C   0  0  0  0  0  0  0  0  0  0  0  0
   49.6726  -28.5473 -103.5017 C   0  0  0  0  0  0  0  0  0  0  0  0
   50.2630  -29.0537 -102.2125 C   0  0  1  0  0  0  0  0  0  0  0  0
   49.3127  -28.8024 -101.1634 O   0  0  0  0  0  0  0  0  0  0  0  0
   50.2849  -30.5149 -102.4174 C   0  0  1  0  0  0  0  0  0  0  0  0
   51.5849  -30.9196 -102.8437 O   0  0  0  0  0  0  0  0  0  0  0  0
   50.0123  -31.0381 -101.0412 C   0  0  1  0  0  0  0  0  0  0  0  0
   51.2435  -31.1675 -100.3004 O   0  0  0  0  0  0  0  0  0  0  0  0
   49.0907  -29.9854 -100.3552 C   0  0  2  0  0  0  0  0  0  0  0  0
   43.6594  -26.2256 -105.3655 O   0  0  0  0  0  0  0  0  0  0  0  0
   44.7143  -31.1989 -103.1071 N   0  0  0  0  0  0  0  0  0  0  0  0
   45.9735  -31.0390 -103.5832 C   0  0  0  0  0  0  0  0  0  0  0  0
   47.0129  -30.7704 -102.7655 N   0  0  0  0  0  0  0  0  0  0  0  0
   46.8160  -30.5639 -101.4532 C   0  0  0  0  0  0  0  0  0  0  0  0
   45.4846  -30.6835 -100.9097 C   0  0  0  0  0  0  0  0  0  0  0  0
   44.4235  -31.0234 -101.8007 C   0  0  0  0  0  0  0  0  0  0  0  0
   43.1279  -31.1635 -101.3462 N   0  0  0  0  0  0  0  0  0  0  0  0
   45.5647  -30.4268  -99.5988 N   0  0  0  0  0  0  0  0  0  0  0  0
   46.7996  -30.1569  -99.2962 C   0  0  0  0  0  0  0  0  0  0  0  0
   47.6199  -30.2330 -100.3975 N   0  0  0  0  0  0  0  0  0  0  0  0
  2  1  1  1  0  0  0
  2  3  1  0  0  0  0
  2  5  1  0  0  0  0
  3  4  1  0  0  0  0
  3 17  1  0  0  0  0
  5  6  1  0  0  0  0
  7  6  1  6  0  0  0
  7  8  1  0  0  0  0
  7  9  1  0  0  0  0
 10  9  1  6  0  0  0
 10 11  1  0  0  0  0
 10 12  1  0  0  0  0
 11 16  1  0  0  0  0
 12 13  1  1  0  0  0
 12 14  1  0  0  0  0
 14 15  1  1  0  0  0
 14 16  1  0  0  0  0
 16 27  1  6  0  0  0
 18 19  2  0  0  0  0
 18 23  1  0  0  0  0
 19 20  1  0  0  0  0
 20 21  2  0  0  0  0
 21 22  1  0  0  0  0
 21 27  1  0  0  0  0
 22 23  2  0  0  0  0
 22 25  1  0  0  0  0
 23 24  1  0  0  0  0
 25 26  2  0  0  0  0
 26 27  1  0  0  0  0
M  END
>  <CHROM.1>
-49.23207272,-55.40446835,76.60272316,-164.77859415,-173.62235191,48.08514567
64.63318475,47.46756918,-28.97906021,-102.54169829,-2.47327017,0.07437335
2.48085671

>  <Name>
ligand

>  <RI>
0

>  <Rbt.Current_Directory>
/home/itssahil/PROJECTS/Mol_Feturizer/Test_systems_manuscript/rnas/4l81

>  <Rbt.Executable>
rbdock ($Id: //depot/dev/client3/rdock/2013.1/src/exe/rbdock.cxx#4 $)

>  <Rbt.Library>
libRbt.so (2013.1, Build901 2013/11/27)

>  <Rbt.Parameter_File>
/export/apps/rDock/src/rDock_2013.1_src/data/scripts/dock_solv.prm

>  <Rbt.Receptor>
prm/pocket_docking_3.prm

>  <SCORE>
-16.4216

>  <SCORE.INTER>
-14.2528

>  <SCORE.INTER.CONST>
1

>  <SCORE.INTER.POLAR>
0

>  <SCORE.INTER.ROT>
7

>  <SCORE.INTER.SOLV>
19.4845

>  <SCORE.INTER.VDW>
-24.2634

>  <SCORE.INTER.norm>
-0.527883

>  <SCORE.INTRA>
-2.16879

>  <SCORE.INTRA.DIHEDRAL>
-1.45119

>  <SCORE.INTRA.DIHEDRAL.0>
8.34559

>  <SCORE.INTRA.POLAR>
0

>  <SCORE.INTRA.POLAR.0>
0

>  <SCORE.INTRA.REPUL>
0

>  <SCORE.INTRA.REPUL.0>
0

>  <SCORE.INTRA.SOLV>
1.29791

>  <SCORE.INTRA.SOLV.lig_0>
-48.829

>  <SCORE.INTRA.VDW>
-2.09215

>  <SCORE.INTRA.VDW.0>
-1.77092

>  <SCORE.INTRA.norm>
-0.0803255

>  <SCORE.RESTR>
0

>  <SCORE.RESTR.CAVITY>
0

>  <SCORE.RESTR.norm>
0

>  <SCORE.SYSTEM>
0

>  <SCORE.SYSTEM.CONST>
0

>  <SCORE.SYSTEM.DIHEDRAL>
0

>  <SCORE.SYSTEM.SOLV>
0

>  <SCORE.SYSTEM.norm>
0

>  <SCORE.heavy>
27

>  <SCORE.norm>
-0.608209

>  <RMSD>
0.894

$$$$
ligand
 OpenBabel02271912153D
libRbt.so/2013.1/901 2013/11/27
 27 29  0  0  0  0  0  0  0  0999 V2000
   45.4083  -27.2616 -102.6861 N   0  0  0  0  0  0  0  0  0  0  0  0
   45.9004  -26.1233 -103.4703 C   0  0  2  0  0  0  0  0  0  0  0  0
   45.6379  -26.3716 -104.9407 C   0  0  0  0  0  0  0  0  0  0  0  0
   45.9816  -27.4241 -105.4572 O   0  0  0  0  0  0  0  0  0  0  0  0
   47.4065  -25.9120 -103.2642 C   0  0  0  0  0  0  0  0  0  0  0  0
   48.1499  -27.2397 -103.3044 C   0  0  0  0  0  0  0  0  0  0  0  0
   49.9676  -27.0492 -103.4556 S   0  0  2  0  0  0  0  0  0  0  0  0
   50.2176  -26.5940 -105.2020 C   0  0  0  0  0  0  0  0  0  0  0  0
   50.3209  -28.8018 -103.5676 C   0  0  0  0  0  0  0  0  0  0  0  0
   50.7376  -29.4206 -102.2598 C   0  0  1  0  0  0  0  0  0  0  0  0
   49.7414  -29.0892 -101.2776 O   0  0  0  0  0  0  0  0  0  0  0  0
   50.5999  -30.8655 -102.5259 C   0  0  1  0  0  0  0  0  0  0  0  0
   51.8723  -31.4133 -102.8672 O   0  0  0  0  0  0  0  0  0  0  0  0
   50.1537  -31.3972 -101.1991 C   0  0  1  0  0  0  0  0  0  0  0  0
   51.2951  -31.7029 -100.3714 O   0  0  0  0  0  0  0  0  0  0  0  0
   49.3124  -30.2623 -100.5415 C   0  0  2  0  0  0  0  0  0  0  0  0
   45.0532  -25.5393 -105.6119 O   0  0  0  0  0  0  0  0  0  0  0  0
   45.0559  -32.0784 -103.1456 N   0  0  0  0  0  0  0  0  0  0  0  0
   46.3611  -32.3076 -103.4317 C   0  0  0  0  0  0  0  0  0  0  0  0
   47.3536  -31.8177 -102.6597 N   0  0  0  0  0  0  0  0  0  0  0  0
   47.0795  -31.0069 -101.6248 C   0  0  0  0  0  0  0  0  0  0  0  0
   45.7047  -30.7026 -101.3088 C   0  0  0  0  0  0  0  0  0  0  0  0
   44.6847  -31.2864 -102.1175 C   0  0  0  0  0  0  0  0  0  0  0  0
   43.3494  -31.0455 -101.8652 N   0  0  0  0  0  0  0  0  0  0  0  0
   45.7109  -29.8814 -100.2523 N   0  0  0  0  0  0  0  0  0  0  0  0
   46.9418  -29.6514  -99.9037 C   0  0  0  0  0  0  0  0  0  0  0  0
   47.8311  -30.3244 -100.7086 N   0  0  0  0  0  0  0  0  0  0  0  0
  2  1  1  1  0  0  0
  2  3  1  0  0  0  0
  2  5  1  0  0  0  0
  3  4  1  0  0  0  0
  3 17  1  0  0  0  0
  5  6  1  0  0  0  0
  7  6  1  6  0  0  0
  7  8  1  0  0  0  0
  7  9  1  0  0  0  0
 10  9  1  6  0  0  0
 10 11  1  0  0  0  0
 10 12  1  0  0  0  0
 11 16  1  0  0  0  0
 12 13  1  1  0  0  0
 12 14  1  0  0  0  0
 14 15  1  1  0  0  0
 14 16  1  0  0  0  0
 16 27  1  6  0  0  0
 18 19  2  0  0  0  0
 18 23  1  0  0  0  0
 19 20  1  0  0  0  0
 20 21  2  0  0  0  0
 21 22  1  0  0  0  0
 21 27  1  0  0  0  0
 22 23  2  0  0  0  0
 22 25  1  0  0  0  0
 23 24  1  0  0  0  0
 25 26  2  0  0  0  0
 26 27  1  0  0  0  0
M  END
>  <CHROM.1>
-50.71960390,43.79706938,166.65467532,-75.64672601,-97.57951785,52.66923393
94.09519618,47.86617887,-29.20220012,-102.63663230,2.22506824,-0.04831560
-0.54238955

>  <Name>
ligand

>  <RI>
0

>  <Rbt.Current_Directory>
/home/itssahil/PROJECTS/Mol_Feturizer/Test_systems_manuscript/rnas/4l81

>  <Rbt.Executable>
rbdock ($Id: //depot/dev/client3/rdock/2013.1/src/exe/rbdock.cxx#4 $)

>  <Rbt.Library>
libRbt.so (2013.1, Build901 2013/11/27)

>  <Rbt.Parameter_File>
/export/apps/rDock/src/rDock_2013.1_src/data/scripts/dock_solv.prm

>  <Rbt.Receptor>
prm/pocket_docking_3.prm

>  <SCORE>
-18.7469

>  <SCORE.INTER>
-16.7032

>  <SCORE.INTER.CONST>
1

>  <SCORE.INTER.POLAR>
0

>  <SCORE.INTER.ROT>
7

>  <SCORE.INTER.SOLV>
17.7963

>  <SCORE.INTER.VDW>
-25.3342

>  <SCORE.INTER.norm>
-0.618637

>  <SCORE.INTRA>
-2.04367

>  <SCORE.INTRA.DIHEDRAL>
-0.901268

>  <SCORE.INTRA.DIHEDRAL.0>
8.34559

>  <SCORE.INTRA.POLAR>
0

>  <SCORE.INTRA.POLAR.0>
0

>  <SCORE.INTRA.REPUL>
0

>  <SCORE.INTRA.REPUL.0>
0

>  <SCORE.INTRA.SOLV>
0.0304931

>  <SCORE.INTRA.SOLV.lig_0>
-48.829

>  <SCORE.INTRA.VDW>
-1.60828

>  <SCORE.INTRA.VDW.0>
-1.77092

>  <SCORE.INTRA.norm>
-0.0756914

>  <SCORE.RESTR>
0

>  <SCORE.RESTR.CAVITY>
0

>  <SCORE.RESTR.norm>
0

>  <SCORE.SYSTEM>
0

>  <SCORE.SYSTEM.CONST>
0

>  <SCORE.SYSTEM.DIHEDRAL>
0

>  <SCORE.SYSTEM.SOLV>
0

>  <SCORE.SYSTEM.norm>
0

>  <SCORE.heavy>
27

>  <SCORE.norm>
-0.694328

>  <RMSD>
0.900

$$$$
ligand
 OpenBabel02271912153D
libRbt.so/2013.1/901 2013/11/27
 27 29  0  0  0  0  0  0  0  0999 V2000
   45.8461  -26.0679 -103.4204 N   0  0  0  0  0  0  0  0  0  0  0  0
   45.8995  -25.9418 -104.8812 C   0  0  2  0  0  0  0  0  0  0  0  0
   44.9001  -26.8916 -105.5072 C   0  0  0  0  0  0  0  0  0  0  0  0
   43.8461  -27.1363 -104.9397 O   0  0  0  0  0  0  0  0  0  0  0  0
   47.2989  -26.2689 -105.4197 C   0  0  0  0  0  0  0  0  0  0  0  0
   48.3507  -25.3833 -104.7667 C   0  0  0  0  0  0  0  0  0  0  0  0
   49.7426  -26.3280 -104.0362 S   0  0  2  0  0  0  0  0  0  0  0  0
   50.2880  -27.4218 -105.3873 C   0  0  0  0  0  0  0  0  0  0  0  0
   48.7165  -27.4856 -103.1329 C   0  0  0  0  0  0  0  0  0  0  0  0
   49.4513  -28.2289 -102.0492 C   0  0  1  0  0  0  0  0  0  0  0  0
   48.5665  -28.3556 -100.9232 O   0  0  0  0  0  0  0  0  0  0  0  0
   49.5957  -29.5807 -102.6233 C   0  0  1  0  0  0  0  0  0  0  0  0
   50.8909  -29.7181 -103.2055 O   0  0  0  0  0  0  0  0  0  0  0  0
   49.4825  -30.4583 -101.4153 C   0  0  1  0  0  0  0  0  0  0  0  0
   50.7746  -30.6303 -100.7971 O   0  0  0  0  0  0  0  0  0  0  0  0
   48.5216  -29.7203 -100.4355 C   0  0  2  0  0  0  0  0  0  0  0  0
   45.1234  -27.3927 -106.5953 O   0  0  0  0  0  0  0  0  0  0  0  0
   44.2341  -31.2613 -103.1632 N   0  0  0  0  0  0  0  0  0  0  0  0
   45.4615  -30.9583 -103.6526 C   0  0  0  0  0  0  0  0  0  0  0  0
   46.4850  -30.6180 -102.8415 N   0  0  0  0  0  0  0  0  0  0  0  0
   46.2946  -30.4818 -101.5192 C   0  0  0  0  0  0  0  0  0  0  0  0
   44.9926  -30.7546 -100.9597 C   0  0  0  0  0  0  0  0  0  0  0  0
   43.9532  -31.1652 -101.8464 C   0  0  0  0  0  0  0  0  0  0  0  0
   42.6872  -31.4514 -101.3773 N   0  0  0  0  0  0  0  0  0  0  0  0
   45.0727  -30.5408  -99.6411 N   0  0  0  0  0  0  0  0  0  0  0  0
   46.2804  -30.1601  -99.3478 C   0  0  0  0  0  0  0  0  0  0  0  0
   47.0822  -30.1121 -100.4642 N   0  0  0  0  0  0  0  0  0  0  0  0
  2  1  1  1  0  0  0
  2  3  1  0  0  0  0
  2  5  1  0  0  0  0
  3  4  1  0  0  0  0
  3 17  1  0  0  0  0
  5  6  1  0  0  0  0
  7  6  1  6  0  0  0
  7  8  1  0  0  0  0
  7  9  1  0  0  0  0
 10  9  1  6  0  0  0
 10 11  1  0  0  0  0
 10 12  1  0  0  0  0
 11 16  1  0  0  0  0
 12 13  1  1  0  0  0
 12 14  1  0  0  0  0
 14 15  1  1  0  0  0
 14 16  1  0  0  0  0
 16 27  1  6  0  0  0
 18 19  2  0  0  0  0
 18 23  1  0  0  0  0
 19 20  1  0  0  0  0
 20 21  2  0  0  0  0
 21 22  1  0  0  0  0
 21 27  1  0  0  0  0
 22 23  2  0  0  0  0
 22 25  1  0  0  0  0
 23 24  1  0  0  0  0
 25 26  2  0  0  0  0
 26 27  1  0  0  0  0
M  END
>  <CHROM.1>
33.56378384,-56.41729518,127.39877016,51.41483407,-163.09037788,141.40012609
77.42796003,47.21881107,-28.74356954,-102.85875248,1.03483159,-0.17928614
-0.79985610

>  <Name>
ligand

>  <RI>
0

>  <Rbt.Current_Directory>
/home/itssahil/PROJECTS/Mol_Feturizer/Test_systems_manuscript/rnas/4l81

>  <Rbt.Executable>
rbdock ($Id: //depot/dev/client3/rdock/2013.1/src/exe/rbdock.cxx#4 $)

>  <Rbt.Library>
libRbt.so (2013.1, Build901 2013/11/27)

>  <Rbt.Parameter_File>
/export/apps/rDock/src/rDock_2013.1_src/data/scripts/dock_solv.prm

>  <Rbt.Receptor>
prm/pocket_docking_2.prm

>  <SCORE>
-5.74239

>  <SCORE.INTER>
-9.7032

>  <SCORE.INTER.CONST>
1

>  <SCORE.INTER.POLAR>
0

>  <SCORE.INTER.ROT>
7

>  <SCORE.INTER.SOLV>
20.5518

>  <SCORE.INTER.VDW>
-21.5861

>  <SCORE.INTER.norm>
-0.359378

>  <SCORE.INTRA>
3.96039

>  <SCORE.INTRA.DIHEDRAL>
5.32639

>  <SCORE.INTRA.DIHEDRAL.0>
8.34559

>  <SCORE.INTRA.POLAR>
0

>  <SCORE.INTRA.POLAR.0>
0

>  <SCORE.INTRA.REPUL>
0

>  <SCORE.INTRA.REPUL.0>
0

>  <SCORE.INTRA.SOLV>
1.29036

>  <SCORE.INTRA.SOLV.lig_0>
-48.829

>  <SCORE.INTRA.VDW>
0.652017

>  <SCORE.INTRA.VDW.0>
-1.77092

>  <SCORE.INTRA.norm>
0.146681

>  <SCORE.RESTR>
0.000424429

>  <SCORE.RESTR.CAVITY>
0.000424429

>  <SCORE.RESTR.norm>
1.57196e-05

>  <SCORE.SYSTEM>
0

>  <SCORE.SYSTEM.CONST>
0

>  <SCORE.SYSTEM.DIHEDRAL>
0

>  <SCORE.SYSTEM.SOLV>
0

>  <SCORE.SYSTEM.norm>
0

>  <SCORE.heavy>
27

>  <SCORE.norm>
-0.212681

>  <RMSD>
0.953

$$$$
ligand
 OpenBabel02271912153D
libRbt.so/2013.1/901 2013/11/27
 27 29  0  0  0  0  0  0  0  0999 V2000
   47.4161  -27.8321 -104.7899 N   0  0  0  0  0  0  0  0  0  0  0  0
   46.6028  -27.0510 -103.8511 C   0  0  2  0  0  0  0  0  0  0  0  0
   45.3722  -26.5288 -104.5621 C   0  0  0  0  0  0  0  0  0  0  0  0
   45.4654  -26.0562 -105.6849 O   0  0  0  0  0  0  0  0  0  0  0  0
   47.3904  -25.8618 -103.2846 C   0  0  0  0  0  0  0  0  0  0  0  0
   48.4190  -26.3301 -102.2651 C   0  0  0  0  0  0  0  0  0  0  0  0
   50.0911  -26.5702 -102.9791 S   0  0  2  0  0  0  0  0  0  0  0  0
   49.9122  -26.0266 -104.7088 C   0  0  0  0  0  0  0  0  0  0  0  0
   49.9288  -28.3377 -103.2206 C   0  0  0  0  0  0  0  0  0  0  0  0
   50.4014  -29.1554 -102.0481 C   0  0  1  0  0  0  0  0  0  0  0  0
   49.4461  -28.9965 -100.9856 O   0  0  0  0  0  0  0  0  0  0  0  0
   50.2571  -30.5397 -102.5384 C   0  0  1  0  0  0  0  0  0  0  0  0
   51.5158  -31.0129 -103.0151 O   0  0  0  0  0  0  0  0  0  0  0  0
   49.8681  -31.2827 -101.2979 C   0  0  1  0  0  0  0  0  0  0  0  0
   51.0439  -31.7069 -100.5775 O   0  0  0  0  0  0  0  0  0  0  0  0
   49.0516  -30.2771 -100.4319 C   0  0  2  0  0  0  0  0  0  0  0  0
   44.2762  -26.6057 -104.0350 O   0  0  0  0  0  0  0  0  0  0  0  0
   44.6915  -31.9677 -102.9477 N   0  0  0  0  0  0  0  0  0  0  0  0
   45.9839  -32.1911 -103.2907 C   0  0  0  0  0  0  0  0  0  0  0  0
   47.0070  -31.7371 -102.5369 N   0  0  0  0  0  0  0  0  0  0  0  0
   46.7760  -30.9674 -101.4610 C   0  0  0  0  0  0  0  0  0  0  0  0
   45.4155  -30.6699 -101.0825 C   0  0  0  0  0  0  0  0  0  0  0  0
   44.3630  -31.2161 -101.8757 C   0  0  0  0  0  0  0  0  0  0  0  0
   43.0394  -30.9795 -101.5648 N   0  0  0  0  0  0  0  0  0  0  0  0
   45.4655  -29.8919  -99.9948 N   0  0  0  0  0  0  0  0  0  0  0  0
   46.7097  -29.6817  -99.6830 C   0  0  0  0  0  0  0  0  0  0  0  0
   47.5647  -30.3257 -100.5466 N   0  0  0  0  0  0  0  0  0  0  0  0
  2  1  1  6  0  0  0
  2  3  1  0  0  0  0
  2  5  1  0  0  0  0
  3  4  1  0  0  0  0
  3 17  1  0  0  0  0
  5  6  1  0  0  0  0
  7  6  1  1  0  0  0
  7  8  1  0  0  0  0
  7  9  1  0  0  0  0
 10  9  1  6  0  0  0
 10 11  1  0  0  0  0
 10 12  1  0  0  0  0
 11 16  1  0  0  0  0
 12 13  1  1  0  0  0
 12 14  1  0  0  0  0
 14 15  1  1  0  0  0
 14 16  1  0  0  0  0
 16 27  1  6  0  0  0
 18 19  2  0  0  0  0
 18 23  1  0  0  0  0
 19 20  1  0  0  0  0
 20 21  2  0  0  0  0
 21 22  1  0  0  0  0
 21 27  1  0  0  0  0
 22 23  2  0  0  0  0
 22 25  1  0  0  0  0
 23 24  1  0  0  0  0
 25 26  2  0  0  0  0
 26 27  1  0  0  0  0
M  END
>  <CHROM.1>
-43.38059068,-74.04258339,95.48470744,3.72940680,-90.89856855,71.81286853
101.12598415,47.71409368,-29.07480969,-102.47828816,1.29073664,-0.10231149
-0.52571661

>  <Name>
ligand

>  <RI>
0

>  <Rbt.Current_Directory>
/home/itssahil/PROJECTS/Mol_Feturizer/Test_systems_manuscript/rnas/4l81

>  <Rbt.Executable>
rbdock ($Id: //depot/dev/client3/rdock/2013.1/src/exe/rbdock.cxx#4 $)

>  <Rbt.Library>
libRbt.so (2013.1, Build901 2013/11/27)

>  <Rbt.Parameter_File>
/export/apps/rDock/src/rDock_2013.1_src/data/scripts/dock_solv.prm

>  <Rbt.Receptor>
prm/pocket_docking_2.prm

>  <SCORE>
-13.5507

>  <SCORE.INTER>
-17.6823

>  <SCORE.INTER.CONST>
1

>  <SCORE.INTER.POLAR>
0

>  <SCORE.INTER.ROT>
7

>  <SCORE.INTER.SOLV>
15.4823

>  <SCORE.INTER.VDW>
-25.2156

>  <SCORE.INTER.norm>
-0.654898

>  <SCORE.INTRA>
4.13154

>  <SCORE.INTRA.DIHEDRAL>
4.9534

>  <SCORE.INTRA.DIHEDRAL.0>
8.34559

>  <SCORE.INTRA.POLAR>
0

>  <SCORE.INTRA.POLAR.0>
0

>  <SCORE.INTRA.REPUL>
0

>  <SCORE.INTRA.REPUL.0>
0

>  <SCORE.INTRA.SOLV>
2.74714

>  <SCORE.INTRA.SOLV.lig_0>
-48.829

>  <SCORE.INTRA.VDW>
0.281274

>  <SCORE.INTRA.VDW.0>
-1.77092

>  <SCORE.INTRA.norm>
0.15302

>  <SCORE.RESTR>
0

>  <SCORE.RESTR.CAVITY>
0

>  <SCORE.RESTR.norm>
0

>  <SCORE.SYSTEM>
0

>  <SCORE.SYSTEM.CONST>
0

>  <SCORE.SYSTEM.DIHEDRAL>
0

>  <SCORE.SYSTEM.SOLV>
0

>  <SCORE.SYSTEM.norm>
0

>  <SCORE.heavy>
27

>  <SCORE.norm>
-0.501878

>  <RMSD>
0.970

$$$$
ligand
 OpenBabel02271912153D
libRbt.so/2013.1/901 2013/11/27
 27 29  0  0  0  0  0  0  0  0999 V2000
   44.1124  -27.6279 -103.7698 N   0  0  0  0  0  0  0  0  0  0  0  0
   45.1372  -26.6125 -104.0368 C   0  0  2  0  0  0  0  0  0  0  0  0
   45.4342  -26.5725 -105.5211 C   0  0  0  0  0  0  0  0  0  0  0  0
   45.7037  -27.6017 -106.1217 O   0  0  0  0  0  0  0  0  0  0  0  0
   46.4366  -26.9170 -103.2791 C   0  0  0  0  0  0  0  0  0  0  0  0
   47.5252  -25.9192 -103.6485 C   0  0  0  0  0  0  0  0  0  0  0  0
   49.0544  -26.1128 -102.6548 S   0  0  2  0  0  0  0  0  0  0  0  0
   50.3584  -25.4075 -103.7139 C   0  0  0  0  0  0  0  0  0  0  0  0
   49.2925  -27.8477 -103.0319 C   0  0  0  0  0  0  0  0  0  0  0  0
   49.7942  -28.6578 -101.8662 C   0  0  1  0  0  0  0  0  0  0  0  0
   48.7849  -28.6304 -100.8428 O   0  0  0  0  0  0  0  0  0  0  0  0
   49.8064  -30.0310 -102.4065 C   0  0  1  0  0  0  0  0  0  0  0  0
   51.1240  -30.3630 -102.8415 O   0  0  0  0  0  0  0  0  0  0  0  0
   49.4413  -30.8525 -101.2090 C   0  0  1  0  0  0  0  0  0  0  0  0
   50.6223  -31.1870 -100.4508 O   0  0  0  0  0  0  0  0  0  0  0  0
   48.4952  -29.9622 -100.3485 C   0  0  2  0  0  0  0  0  0  0  0  0
   45.3744  -25.5209 -106.1339 O   0  0  0  0  0  0  0  0  0  0  0  0
   44.4343  -32.1036 -103.0172 N   0  0  0  0  0  0  0  0  0  0  0  0
   45.7569  -32.2150 -103.2935 C   0  0  0  0  0  0  0  0  0  0  0  0
   46.6966  -31.6518 -102.5056 N   0  0  0  0  0  0  0  0  0  0  0  0
   46.3445  -30.8821 -101.4630 C   0  0  0  0  0  0  0  0  0  0  0  0
   44.9459  -30.7023 -101.1564 C   0  0  0  0  0  0  0  0  0  0  0  0
   43.9872  -31.3609 -101.9825 C   0  0  0  0  0  0  0  0  0  0  0  0
   42.6339  -31.2399 -101.7400 N   0  0  0  0  0  0  0  0  0  0  0  0
   44.8719  -29.8982 -100.0893 N   0  0  0  0  0  0  0  0  0  0  0  0
   46.0753  -29.5675  -99.7258 C   0  0  0  0  0  0  0  0  0  0  0  0
   47.0263  -30.1499 -100.5308 N   0  0  0  0  0  0  0  0  0  0  0  0
  2  1  1  6  0  0  0
  2  3  1  0  0  0  0
  2  5  1  0  0  0  0
  3  4  1  0  0  0  0
  3 17  1  0  0  0  0
  5  6  1  0  0  0  0
  7  6  1  6  0  0  0
  7  8  1  0  0  0  0
  7  9  1  0  0  0  0
 10  9  1  6  0  0  0
 10 11  1  0  0  0  0
 10 12  1  0  0  0  0
 11 16  1  0  0  0  0
 12 13  1  1  0  0  0
 12 14  1  0  0  0  0
 14 15  1  1  0  0  0
 14 16  1  0  0  0  0
 16 27  1  6  0  0  0
 18 19  2  0  0  0  0
 18 23  1  0  0  0  0
 19 20  1  0  0  0  0
 20 21  2  0  0  0  0
 21 22  1  0  0  0  0
 21 27  1  0  0  0  0
 22 23  2  0  0  0  0
 22 25  1  0  0  0  0
 23 24  1  0  0  0  0
 25 26  2  0  0  0  0
 26 27  1  0  0  0  0
M  END
>  <CHROM.1>
-51.49540180,175.56593805,174.05564494,155.53451224,-141.64047387,63.76407543
104.54888255,47.17632717,-28.90099488,-102.54223667,1.20111252,-0.25279757
-0.59041785

>  <Name>
ligand

>  <RI>
0

>  <Rbt.Current_Directory>
/home/itssahil/PROJECTS/Mol_Feturizer/Test_systems_manuscript/rnas/4l81

>  <Rbt.Executable>
rbdock ($Id: //depot/dev/client3/rdock/2013.1/src/exe/rbdock.cxx#4 $)

>  <Rbt.Library>
libRbt.so (2013.1, Build901 2013/11/27)

>  <Rbt.Parameter_File>
/export/apps/rDock/src/rDock_2013.1_src/data/scripts/dock_solv.prm

>  <Rbt.Receptor>
prm/pocket_docking_2.prm

>  <SCORE>
-16.7269

>  <SCORE.INTER>
-15.4429

>  <SCORE.INTER.CONST>
1

>  <SCORE.INTER.POLAR>
0

>  <SCORE.INTER.ROT>
7

>  <SCORE.INTER.SOLV>
21.3585

>  <SCORE.INTER.VDW>
-25.6815

>  <SCORE.INTER.norm>
-0.571961

>  <SCORE.INTRA>
-1.28562

>  <SCORE.INTRA.DIHEDRAL>
-0.326203

>  <SCORE.INTRA.DIHEDRAL.0>
8.34559

>  <SCORE.INTRA.POLAR>
0

>  <SCORE.INTRA.POLAR.0>
0

>  <SCORE.INTRA.REPUL>
0

>  <SCORE.INTRA.REPUL.0>
0

>  <SCORE.INTRA.SOLV>
-1.26396

>  <SCORE.INTRA.SOLV.lig_0>
-48.829

>  <SCORE.INTRA.VDW>
-0.490537

>  <SCORE.INTRA.VDW.0>
-1.77092

>  <SCORE.INTRA.norm>
-0.0476155

>  <SCORE.RESTR>
0.00167708

>  <SCORE.RESTR.CAVITY>
0.00167708

>  <SCORE.RESTR.norm>
6.21141e-05

>  <SCORE.SYSTEM>
0

>  <SCORE.SYSTEM.CONST>
0

>  <SCORE.SYSTEM.DIHEDRAL>
0

>  <SCORE.SYSTEM.SOLV>
0

>  <SCORE.SYSTEM.norm>
0

>  <SCORE.heavy>
27

>  <SCORE.norm>
-0.619514

>  <RMSD>
1.026

$$$$
ligand
 OpenBabel02271912153D
libRbt.so/2013.1/901 2013/11/27
 27 29  0  0  0  0  0  0  0  0999 V2000
   47.1502  -26.8860 -105.5647 N   0  0  0  0  0  0  0  0  0  0  0  0
   46.6637  -26.8341 -104.1814 C   0  0  2  0  0  0  0  0  0  0  0  0
   45.1809  -26.5273 -104.1785 C   0  0  0  0  0  0  0  0  0  0  0  0
   44.6490  -26.0559 -105.1723 O   0  0  0  0  0  0  0  0  0  0  0  0
   47.3950  -25.7546 -103.3719 C   0  0  0  0  0  0  0  0  0  0  0  0
   48.3361  -26.3851 -102.3551 C   0  0  0  0  0  0  0  0  0  0  0  0
   50.0473  -26.5926 -102.9814 S   0  0  2  0  0  0  0  0  0  0  0  0
   49.9443  -26.0672 -104.7229 C   0  0  0  0  0  0  0  0  0  0  0  0
   49.9371  -28.3652 -103.2145 C   0  0  0  0  0  0  0  0  0  0  0  0
   50.4170  -29.1629 -102.0312 C   0  0  1  0  0  0  0  0  0  0  0  0
   49.4770  -28.9725 -100.9602 O   0  0  0  0  0  0  0  0  0  0  0  0
   50.2530  -30.5557 -102.4905 C   0  0  1  0  0  0  0  0  0  0  0  0
   51.5009  -31.0511 -102.9731 O   0  0  0  0  0  0  0  0  0  0  0  0
   49.8730  -31.2688 -101.2299 C   0  0  1  0  0  0  0  0  0  0  0  0
   51.0538  -31.6895 -100.5157 O   0  0  0  0  0  0  0  0  0  0  0  0
   49.0774  -30.2373 -100.3748 C   0  0  2  0  0  0  0  0  0  0  0  0
   44.5011  -26.7784 -103.1989 O   0  0  0  0  0  0  0  0  0  0  0  0
   44.6700  -31.9000 -102.8260 N   0  0  0  0  0  0  0  0  0  0  0  0
   45.9558  -32.1357 -103.1852 C   0  0  0  0  0  0  0  0  0  0  0  0
   46.9927  -31.6877 -102.4468 N   0  0  0  0  0  0  0  0  0  0  0  0
   46.7825  -30.9120 -101.3709 C   0  0  0  0  0  0  0  0  0  0  0  0
   45.4298  -30.6014 -100.9756 C   0  0  0  0  0  0  0  0  0  0  0  0
   44.3622  -31.1415 -101.7527 C   0  0  0  0  0  0  0  0  0  0  0  0
   43.0449  -30.8925 -101.4252 N   0  0  0  0  0  0  0  0  0  0  0  0
   45.5008  -29.8197  -99.8918 N   0  0  0  0  0  0  0  0  0  0  0  0
   46.7508  -29.6190  -99.5973 C   0  0  0  0  0  0  0  0  0  0  0  0
   47.5888  -30.2736 -100.4696 N   0  0  0  0  0  0  0  0  0  0  0  0
  2  1  1  6  0  0  0
  2  3  1  0  0  0  0
  2  5  1  0  0  0  0
  3  4  1  0  0  0  0
  3 17  1  0  0  0  0
  5  6  1  0  0  0  0
  7  6  1  1  0  0  0
  7  8  1  0  0  0  0
  7  9  1  0  0  0  0
 10  9  1  6  0  0  0
 10 11  1  0  0  0  0
 10 12  1  0  0  0  0
 11 16  1  0  0  0  0
 12 13  1  1  0  0  0
 12 14  1  0  0  0  0
 14 15  1  1  0  0  0
 14 16  1  0  0  0  0
 16 27  1  6  0  0  0
 18 19  2  0  0  0  0
 18 23  1  0  0  0  0
 19 20  1  0  0  0  0
 20 21  2  0  0  0  0
 21 22  1  0  0  0  0
 21 27  1  0  0  0  0
 22 23  2  0  0  0  0
 22 25  1  0  0  0  0
 23 24  1  0  0  0  0
 25 26  2  0  0  0  0
 26 27  1  0  0  0  0
M  END
>  <CHROM.1>
-17.60370573,-108.80306200,92.95272681,-4.77951986,-93.08939117,69.06592822
100.14589488,47.67610414,-29.02049635,-102.41049385,-1.76401526,0.06324682
2.61012785

>  <Name>
ligand

>  <RI>
0

>  <Rbt.Current_Directory>
/home/itssahil/PROJECTS/Mol_Feturizer/Test_systems_manuscript/rnas/4l81

>  <Rbt.Executable>
rbdock ($Id: //depot/dev/client3/rdock/2013.1/src/exe/rbdock.cxx#4 $)

>  <Rbt.Library>
libRbt.so (2013.1, Build901 2013/11/27)

>  <Rbt.Parameter_File>
/export/apps/rDock/src/rDock_2013.1_src/data/scripts/dock_solv.prm

>  <Rbt.Receptor>
prm/pocket_docking_2.prm

>  <SCORE>
-12.232

>  <SCORE.INTER>
-18.491

>  <SCORE.INTER.CONST>
1

>  <SCORE.INTER.POLAR>
0

>  <SCORE.INTER.ROT>
7

>  <SCORE.INTER.SOLV>
15.836

>  <SCORE.INTER.VDW>
-25.8727

>  <SCORE.INTER.norm>
-0.684853

>  <SCORE.INTRA>
6.25901

>  <SCORE.INTRA.DIHEDRAL>
9.70705

>  <SCORE.INTRA.DIHEDRAL.0>
8.34559

>  <SCORE.INTRA.POLAR>
0

>  <SCORE.INTRA.POLAR.0>
0

>  <SCORE.INTRA.REPUL>
0

>  <SCORE.INTRA.REPUL.0>
0

>  <SCORE.INTRA.SOLV>
1.42725

>  <SCORE.INTRA.SOLV.lig_0>
-48.829

>  <SCORE.INTRA.VDW>
0.691857

>  <SCORE.INTRA.VDW.0>
-1.77092

>  <SCORE.INTRA.norm>
0.231815

>  <SCORE.RESTR>
0

>  <SCORE.RESTR.CAVITY>
0

>  <SCORE.RESTR.norm>
0

>  <SCORE.SYSTEM>
0

>  <SCORE.SYSTEM.CONST>
0

>  <SCORE.SYSTEM.DIHEDRAL>
0

>  <SCORE.SYSTEM.SOLV>
0

>  <SCORE.SYSTEM.norm>
0

>  <SCORE.heavy>
27

>  <SCORE.norm>
-0.453038

>  <RMSD>
1.051

$$$$
ligand
 OpenBabel02271912153D
libRbt.so/2013.1/901 2013/11/27
 27 29  0  0  0  0  0  0  0  0999 V2000
   44.7543  -27.4097 -104.1609 N   0  0  0  0  0  0  0  0  0  0  0  0
   45.2889  -26.0761 -104.4580 C   0  0  2  0  0  0  0  0  0  0  0  0
   45.6176  -25.9807 -105.9330 C   0  0  0  0  0  0  0  0  0  0  0  0
   45.5992  -24.8975 -106.4979 O   0  0  0  0  0  0  0  0  0  0  0  0
   46.5602  -25.7901 -103.6471 C   0  0  0  0  0  0  0  0  0  0  0  0
   47.5501  -26.9399 -103.7690 C   0  0  0  0  0  0  0  0  0  0  0  0
   49.0426  -26.7261 -102.7249 S   0  0  2  0  0  0  0  0  0  0  0  0
   50.1472  -25.6957 -103.7435 C   0  0  0  0  0  0  0  0  0  0  0  0
   49.7439  -28.3343 -103.0866 C   0  0  0  0  0  0  0  0  0  0  0  0
   50.2070  -29.0821 -101.8646 C   0  0  1  0  0  0  0  0  0  0  0  0
   49.2050  -28.9257 -100.8456 O   0  0  0  0  0  0  0  0  0  0  0  0
   50.1438  -30.4899 -102.3023 C   0  0  1  0  0  0  0  0  0  0  0  0
   51.4399  -30.9228 -102.7123 O   0  0  0  0  0  0  0  0  0  0  0  0
   49.7407  -31.2005 -101.0474 C   0  0  1  0  0  0  0  0  0  0  0  0
   50.9055  -31.5409 -100.2672 O   0  0  0  0  0  0  0  0  0  0  0  0
   48.8471  -30.2002 -100.2544 C   0  0  2  0  0  0  0  0  0  0  0  0
   45.9349  -26.9764 -106.5599 O   0  0  0  0  0  0  0  0  0  0  0  0
   44.6664  -31.9264 -103.0364 N   0  0  0  0  0  0  0  0  0  0  0  0
   45.9789  -32.0498 -103.3526 C   0  0  0  0  0  0  0  0  0  0  0  0
   46.9519  -31.6007 -102.5325 N   0  0  0  0  0  0  0  0  0  0  0  0
   46.6458  -30.9324 -101.4086 C   0  0  0  0  0  0  0  0  0  0  0  0
   45.2601  -30.7417 -101.0535 C   0  0  0  0  0  0  0  0  0  0  0  0
   44.2642  -31.2811 -101.9211 C   0  0  0  0  0  0  0  0  0  0  0  0
   42.9207  -31.1438 -101.6369 N   0  0  0  0  0  0  0  0  0  0  0  0
   45.2336  -30.0504  -99.9080 N   0  0  0  0  0  0  0  0  0  0  0  0
   46.4541  -29.7968  -99.5398 C   0  0  0  0  0  0  0  0  0  0  0  0
   47.3695  -30.3221 -100.4217 N   0  0  0  0  0  0  0  0  0  0  0  0
  2  1  1  6  0  0  0
  2  3  1  0  0  0  0
  2  5  1  0  0  0  0
  3  4  1  0  0  0  0
  3 17  1  0  0  0  0
  5  6  1  0  0  0  0
  7  6  1  6  0  0  0
  7  8  1  0  0  0  0
  7  9  1  0  0  0  0
 10  9  1  6  0  0  0
 10 11  1  0  0  0  0
 10 12  1  0  0  0  0
 11 16  1  0  0  0  0
 12 13  1  1  0  0  0
 12 14  1  0  0  0  0
 14 15  1  1  0  0  0
 14 16  1  0  0  0  0
 16 27  1  6  0  0  0
 18 19  2  0  0  0  0
 18 23  1  0  0  0  0
 19 20  1  0  0  0  0
 20 21  2  0  0  0  0
 21 22  1  0  0  0  0
 21 27  1  0  0  0  0
 22 23  2  0  0  0  0
 22 25  1  0  0  0  0
 23 24  1  0  0  0  0
 25 26  2  0  0  0  0
 26 27  1  0  0  0  0
M  END
>  <CHROM.1>
153.03163115,49.70291612,-175.67318819,-84.62045071,-132.42862098,43.00153531
94.28150736,47.42872535,-28.98184728,-102.59441985,1.88852830,-0.19258094
-0.62737817

>  <Name>
ligand

>  <RI>
0

>  <Rbt.Current_Directory>
/home/itssahil/PROJECTS/Mol_Feturizer/Test_systems_manuscript/rnas/4l81

>  <Rbt.Executable>
rbdock ($Id: //depot/dev/client3/rdock/2013.1/src/exe/rbdock.cxx#4 $)

>  <Rbt.Library>
libRbt.so (2013.1, Build901 2013/11/27)

>  <Rbt.Parameter_File>
/export/apps/rDock/src/rDock_2013.1_src/data/scripts/dock_solv.prm

>  <Rbt.Receptor>
prm/pocket_docking_4.prm

>  <SCORE>
-17.6223

>  <SCORE.INTER>
-16.9894

>  <SCORE.INTER.CONST>
1

>  <SCORE.INTER.POLAR>
0

>  <SCORE.INTER.ROT>
7

>  <SCORE.INTER.SOLV>
18.698

>  <SCORE.INTER.VDW>
-25.8256

>  <SCORE.INTER.norm>
-0.629239

>  <SCORE.INTRA>
-0.632889

>  <SCORE.INTRA.DIHEDRAL>
1.21102

>  <SCORE.INTRA.DIHEDRAL.0>
8.34559

>  <SCORE.INTRA.POLAR>
0

>  <SCORE.INTRA.POLAR.0>
0

>  <SCORE.INTRA.REPUL>
0

>  <SCORE.INTRA.REPUL.0>
0

>  <SCORE.INTRA.SOLV>
-0.482412

>  <SCORE.INTRA.SOLV.lig_0>
-48.829

>  <SCORE.INTRA.VDW>
-0.997193

>  <SCORE.INTRA.VDW.0>
-1.77092

>  <SCORE.INTRA.norm>
-0.0234403

>  <SCORE.RESTR>
0

>  <SCORE.RESTR.CAVITY>
0

>  <SCORE.RESTR.norm>
0

>  <SCORE.SYSTEM>
0

>  <SCORE.SYSTEM.CONST>
0

>  <SCORE.SYSTEM.DIHEDRAL>
0

>  <SCORE.SYSTEM.SOLV>
0

>  <SCORE.SYSTEM.norm>
0

>  <SCORE.heavy>
27

>  <SCORE.norm>
-0.652679

>  <RMSD>
1.062

$$$$
ligand
 OpenBabel02271912153D
libRbt.so/2013.1/901 2013/11/27
 27 29  0  0  0  0  0  0  0  0999 V2000
   44.2689  -28.2747 -103.4581 N   0  0  0  0  0  0  0  0  0  0  0  0
   45.3834  -27.5340 -104.0597 C   0  0  2  0  0  0  0  0  0  0  0  0
   45.7332  -28.1476 -105.3991 C   0  0  0  0  0  0  0  0  0  0  0  0
   45.6949  -29.3596 -105.5486 O   0  0  0  0  0  0  0  0  0  0  0  0
   46.6263  -27.5659 -103.1599 C   0  0  0  0  0  0  0  0  0  0  0  0
   47.7343  -26.6960 -103.7362 C   0  0  0  0  0  0  0  0  0  0  0  0
   49.2434  -26.6587 -102.6948 S   0  0  2  0  0  0  0  0  0  0  0  0
   50.4458  -25.7263 -103.6971 C   0  0  0  0  0  0  0  0  0  0  0  0
   49.7747  -28.3225 -103.0926 C   0  0  0  0  0  0  0  0  0  0  0  0
   50.2354  -29.1135 -101.8972 C   0  0  1  0  0  0  0  0  0  0  0  0
   49.2366  -28.9847 -100.8712 O   0  0  0  0  0  0  0  0  0  0  0  0
   50.1623  -30.5056 -102.3813 C   0  0  1  0  0  0  0  0  0  0  0  0
   51.4547  -30.9328 -102.8085 O   0  0  0  0  0  0  0  0  0  0  0  0
   49.7573  -31.2549 -101.1498 C   0  0  1  0  0  0  0  0  0  0  0  0
   50.9215  -31.6285 -100.3841 O   0  0  0  0  0  0  0  0  0  0  0  0
   48.8718  -30.2759 -100.3219 C   0  0  2  0  0  0  0  0  0  0  0  0
   46.0230  -27.4374 -106.3460 O   0  0  0  0  0  0  0  0  0  0  0  0
   44.6744  -31.9082 -103.1354 N   0  0  0  0  0  0  0  0  0  0  0  0
   45.9856  -32.0347 -103.4561 C   0  0  0  0  0  0  0  0  0  0  0  0
   46.9630  -31.6112 -102.6277 N   0  0  0  0  0  0  0  0  0  0  0  0
   46.6635  -30.9655 -101.4889 C   0  0  0  0  0  0  0  0  0  0  0  0
   45.2797  -30.7721 -101.1278 C   0  0  0  0  0  0  0  0  0  0  0  0
   44.2787  -31.2846 -102.0056 C   0  0  0  0  0  0  0  0  0  0  0  0
   42.9366  -31.1433 -101.7165 N   0  0  0  0  0  0  0  0  0  0  0  0
   45.2600  -30.1061  -99.9672 N   0  0  0  0  0  0  0  0  0  0  0  0
   46.4828  -29.8700  -99.5952 C   0  0  0  0  0  0  0  0  0  0  0  0
   47.3930  -30.3827 -100.4898 N   0  0  0  0  0  0  0  0  0  0  0  0
  2  1  1  1  0  0  0
  2  3  1  0  0  0  0
  2  5  1  0  0  0  0
  3  4  1  0  0  0  0
  3 17  1  0  0  0  0
  5  6  1  0  0  0  0
  7  6  1  6  0  0  0
  7  8  1  0  0  0  0
  7  9  1  0  0  0  0
 10  9  1  6  0  0  0
 10 11  1  0  0  0  0
 10 12  1  0  0  0  0
 11 16  1  0  0  0  0
 12 13  1  1  0  0  0
 12 14  1  0  0  0  0
 14 15  1  1  0  0  0
 14 16  1  0  0  0  0
 16 27  1  6  0  0  0
 18 19  2  0  0  0  0
 18 23  1  0  0  0  0
 19 20  1  0  0  0  0
 20 21  2  0  0  0  0
 21 22  1  0  0  0  0
 21 27  1  0  0  0  0
 22 23  2  0  0  0  0
 22 25  1  0  0  0  0
 23 24  1  0  0  0  0
 25 26  2  0  0  0  0
 26 27  1  0  0  0  0
M  END
>  <CHROM.1>
-37.97800217,-175.10239721,178.86051831,173.63331678,-135.71547404,49.03156143
94.92960169,47.47488271,-29.40025658,-102.51490222,3.07371110,0.25549030
2.45412315

>  <Name>
ligand

>  <RI>
0

>  <Rbt.Current_Directory>
/home/itssahil/PROJECTS/Mol_Feturizer/Test_systems_manuscript/rnas/4l81

>  <Rbt.Executable>
rbdock ($Id: //depot/dev/client3/rdock/2013.1/src/exe/rbdock.cxx#4 $)

>  <Rbt.Library>
libRbt.so (2013.1, Build901 2013/11/27)

>  <Rbt.Parameter_File>
/export/apps/rDock/src/rDock_2013.1_src/data/scripts/dock_solv.prm

>  <Rbt.Receptor>
prm/pocket_docking_3.prm

>  <SCORE>
-17.0227

>  <SCORE.INTER>
-14.4084

>  <SCORE.INTER.CONST>
1

>  <SCORE.INTER.POLAR>
0

>  <SCORE.INTER.ROT>
7

>  <SCORE.INTER.SOLV>
18.3173

>  <SCORE.INTER.VDW>
-23.978

>  <SCORE.INTER.norm>
-0.533644

>  <SCORE.INTRA>
-2.61431

>  <SCORE.INTRA.DIHEDRAL>
-0.284068

>  <SCORE.INTRA.DIHEDRAL.0>
8.34559

>  <SCORE.INTRA.POLAR>
0

>  <SCORE.INTRA.POLAR.0>
0

>  <SCORE.INTRA.REPUL>
0

>  <SCORE.INTRA.REPUL.0>
0

>  <SCORE.INTRA.SOLV>
0.988079

>  <SCORE.INTRA.SOLV.lig_0>
-48.829

>  <SCORE.INTRA.VDW>
-2.96632

>  <SCORE.INTRA.VDW.0>
-1.77092

>  <SCORE.INTRA.norm>
-0.0968264

>  <SCORE.RESTR>
0

>  <SCORE.RESTR.CAVITY>
0

>  <SCORE.RESTR.norm>
0

>  <SCORE.SYSTEM>
0

>  <SCORE.SYSTEM.CONST>
0

>  <SCORE.SYSTEM.DIHEDRAL>
0

>  <SCORE.SYSTEM.SOLV>
0

>  <SCORE.SYSTEM.norm>
0

>  <SCORE.heavy>
27

>  <SCORE.norm>
-0.630471

>  <RMSD>
1.075

$$$$
ligand
 OpenBabel02271912153D
libRbt.so/2013.1/901 2013/11/27
 27 29  0  0  0  0  0  0  0  0999 V2000
   45.3529  -28.4776 -104.0228 N   0  0  0  0  0  0  0  0  0  0  0  0
   46.0034  -27.2633 -103.5177 C   0  0  2  0  0  0  0  0  0  0  0  0
   45.4451  -26.0541 -104.2381 C   0  0  0  0  0  0  0  0  0  0  0  0
   46.1484  -25.0734 -104.4287 O   0  0  0  0  0  0  0  0  0  0  0  0
   47.5221  -27.3117 -103.7337 C   0  0  0  0  0  0  0  0  0  0  0  0
   48.2454  -26.4865 -102.6788 C   0  0  0  0  0  0  0  0  0  0  0  0
   50.0721  -26.5696 -102.8193 S   0  0  2  0  0  0  0  0  0  0  0  0
   50.4134  -25.9302 -104.4909 C   0  0  0  0  0  0  0  0  0  0  0  0
   50.1434  -28.3250 -103.1689 C   0  0  0  0  0  0  0  0  0  0  0  0
   50.4607  -29.1703 -101.9640 C   0  0  1  0  0  0  0  0  0  0  0  0
   49.3780  -29.0294 -101.0286 O   0  0  0  0  0  0  0  0  0  0  0  0
   50.3765  -30.5430 -102.4992 C   0  0  1  0  0  0  0  0  0  0  0  0
   51.6845  -31.0124 -102.8220 O   0  0  0  0  0  0  0  0  0  0  0  0
   49.8307  -31.3105 -101.3351 C   0  0  1  0  0  0  0  0  0  0  0  0
   50.9039  -31.7564 -100.4803 O   0  0  0  0  0  0  0  0  0  0  0  0
   48.9130  -30.3195 -100.5582 C   0  0  2  0  0  0  0  0  0  0  0  0
   44.3026  -26.0618 -104.6620 O   0  0  0  0  0  0  0  0  0  0  0  0
   44.8358  -32.3923 -103.2560 N   0  0  0  0  0  0  0  0  0  0  0  0
   46.1491  -32.7095 -103.3681 C   0  0  0  0  0  0  0  0  0  0  0  0
   47.0875  -32.1337 -102.5878 N   0  0  0  0  0  0  0  0  0  0  0  0
   46.7578  -31.1553 -101.7290 C   0  0  0  0  0  0  0  0  0  0  0  0
   45.3763  -30.7567 -101.6066 C   0  0  0  0  0  0  0  0  0  0  0  0
   44.4092  -31.4302 -102.4107 C   0  0  0  0  0  0  0  0  0  0  0  0
   43.0698  -31.1060 -102.3367 N   0  0  0  0  0  0  0  0  0  0  0  0
   45.3238  -29.7740 -100.6998 N   0  0  0  0  0  0  0  0  0  0  0  0
   46.5262  -29.5320 -100.2696 C   0  0  0  0  0  0  0  0  0  0  0  0
   47.4527  -30.3577 -100.8624 N   0  0  0  0  0  0  0  0  0  0  0  0
  2  1  1  6  0  0  0
  2  3  1  0  0  0  0
  2  5  1  0  0  0  0
  3  4  1  0  0  0  0
  3 17  1  0  0  0  0
  5  6  1  0  0  0  0
  7  6  1  6  0  0  0
  7  8  1  0  0  0  0
  7  9  1  0  0  0  0
 10  9  1  6  0  0  0
 10 11  1  0  0  0  0
 10 12  1  0  0  0  0
 11 16  1  0  0  0  0
 12 13  1  1  0  0  0
 12 14  1  0  0  0  0
 14 15  1  1  0  0  0
 14 16  1  0  0  0  0
 16 27  1  6  0  0  0
 18 19  2  0  0  0  0
 18 23  1  0  0  0  0
 19 20  1  0  0  0  0
 20 21  2  0  0  0  0
 21 22  1  0  0  0  0
 21 27  1  0  0  0  0
 22 23  2  0  0  0  0
 22 25  1  0  0  0  0
 23 24  1  0  0  0  0
 25 26  2  0  0  0  0
 26 27  1  0  0  0  0
M  END
>  <CHROM.1>
-148.94780594,-151.97554457,176.92666677,59.53738242,-98.46818388,64.39505416
114.20425691,47.67295995,-29.14498458,-102.54119841,2.71261523,0.14950736
2.75746186

>  <Name>
ligand

>  <RI>
0

>  <Rbt.Current_Directory>
/home/itssahil/PROJECTS/Mol_Feturizer/Test_systems_manuscript/rnas/4l81

>  <Rbt.Executable>
rbdock ($Id: //depot/dev/client3/rdock/2013.1/src/exe/rbdock.cxx#4 $)

>  <Rbt.Library>
libRbt.so (2013.1, Build901 2013/11/27)

>  <Rbt.Parameter_File>
/export/apps/rDock/src/rDock_2013.1_src/data/scripts/dock_solv.prm

>  <Rbt.Receptor>
prm/pocket_docking_4.prm

>  <SCORE>
-15.6407

>  <SCORE.INTER>
-16.4349

>  <SCORE.INTER.CONST>
1

>  <SCORE.INTER.POLAR>
0

>  <SCORE.INTER.ROT>
7

>  <SCORE.INTER.SOLV>
14.9679

>  <SCORE.INTER.VDW>
-24.2126

>  <SCORE.INTER.norm>
-0.608699

>  <SCORE.INTRA>
0.794174

>  <SCORE.INTRA.DIHEDRAL>
0.301967

>  <SCORE.INTRA.DIHEDRAL.0>
8.34559

>  <SCORE.INTRA.POLAR>
0

>  <SCORE.INTRA.POLAR.0>
0

>  <SCORE.INTRA.REPUL>
0

>  <SCORE.INTRA.REPUL.0>
0

>  <SCORE.INTRA.SOLV>
0.849473

>  <SCORE.INTRA.SOLV.lig_0>
-48.829

>  <SCORE.INTRA.VDW>
0.218454

>  <SCORE.INTRA.VDW.0>
-1.77092

>  <SCORE.INTRA.norm>
0.0294139

>  <SCORE.RESTR>
0

>  <SCORE.RESTR.CAVITY>
0

>  <SCORE.RESTR.norm>
0

>  <SCORE.SYSTEM>
0

>  <SCORE.SYSTEM.CONST>
0

>  <SCORE.SYSTEM.DIHEDRAL>
0

>  <SCORE.SYSTEM.SOLV>
0

>  <SCORE.SYSTEM.norm>
0

>  <SCORE.heavy>
27

>  <SCORE.norm>
-0.579285

>  <RMSD>
1.080

$$$$
ligand
 OpenBabel02271912153D
libRbt.so/2013.1/901 2013/11/27
 27 29  0  0  0  0  0  0  0  0999 V2000
   45.9827  -25.3821 -105.6937 N   0  0  0  0  0  0  0  0  0  0  0  0
   45.6855  -26.6689 -105.0545 C   0  0  2  0  0  0  0  0  0  0  0  0
   44.2417  -26.6850 -104.5984 C   0  0  0  0  0  0  0  0  0  0  0  0
   43.9688  -26.9187 -103.4306 O   0  0  0  0  0  0  0  0  0  0  0  0
   46.5919  -26.9124 -103.8403 C   0  0  0  0  0  0  0  0  0  0  0  0
   48.0493  -26.6484 -104.1911 C   0  0  0  0  0  0  0  0  0  0  0  0
   49.1764  -26.7709 -102.7496 S   0  0  2  0  0  0  0  0  0  0  0  0
   50.5947  -25.7244 -103.2109 C   0  0  0  0  0  0  0  0  0  0  0  0
   49.8520  -28.3709 -103.1881 C   0  0  0  0  0  0  0  0  0  0  0  0
   50.3603  -29.1576 -102.0093 C   0  0  1  0  0  0  0  0  0  0  0  0
   49.4171  -29.0025 -100.9355 O   0  0  0  0  0  0  0  0  0  0  0  0
   50.2407  -30.5530 -102.4744 C   0  0  1  0  0  0  0  0  0  0  0  0
   51.5029  -31.0054 -102.9619 O   0  0  0  0  0  0  0  0  0  0  0  0
   49.8870  -31.2835 -101.2161 C   0  0  1  0  0  0  0  0  0  0  0  0
   51.0825  -31.6686 -100.5064 O   0  0  0  0  0  0  0  0  0  0  0  0
   49.0602  -30.2822 -100.3548 C   0  0  2  0  0  0  0  0  0  0  0  0
   43.3442  -26.4328 -105.3831 O   0  0  0  0  0  0  0  0  0  0  0  0
   44.6990  -31.8214 -102.9642 N   0  0  0  0  0  0  0  0  0  0  0  0
   45.9898  -31.9620 -103.3543 C   0  0  0  0  0  0  0  0  0  0  0  0
   47.0150  -31.5624 -102.5732 N   0  0  0  0  0  0  0  0  0  0  0  0
   46.7845  -30.9268 -101.4128 C   0  0  0  0  0  0  0  0  0  0  0  0
   45.4243  -30.7188 -100.9777 C   0  0  0  0  0  0  0  0  0  0  0  0
   44.3717  -31.2065 -101.8080 C   0  0  0  0  0  0  0  0  0  0  0  0
   43.0486  -31.0503 -101.4476 N   0  0  0  0  0  0  0  0  0  0  0  0
   45.4746  -30.0670  -99.8101 N   0  0  0  0  0  0  0  0  0  0  0  0
   46.7185  -29.8525  -99.4997 C   0  0  0  0  0  0  0  0  0  0  0  0
   47.5734  -30.3666 -100.4465 N   0  0  0  0  0  0  0  0  0  0  0  0
  2  1  1  1  0  0  0
  2  3  1  0  0  0  0
  2  5  1  0  0  0  0
  3  4  1  0  0  0  0
  3 17  1  0  0  0  0
  5  6  1  0  0  0  0
  7  6  1  6  0  0  0
  7  8  1  0  0  0  0
  7  9  1  0  0  0  0
 10  9  1  6  0  0  0
 10 11  1  0  0  0  0
 10 12  1  0  0  0  0
 11 16  1  0  0  0  0
 12 13  1  1  0  0  0
 12 14  1  0  0  0  0
 14 15  1  1  0  0  0
 14 16  1  0  0  0  0
 16 27  1  6  0  0  0
 18 19  2  0  0  0  0
 18 23  1  0  0  0  0
 19 20  1  0  0  0  0
 20 21  2  0  0  0  0
 21 22  1  0  0  0  0
 21 27  1  0  0  0  0
 22 23  2  0  0  0  0
 22 25  1  0  0  0  0
 23 24  1  0  0  0  0
 25 26  2  0  0  0  0
 26 27  1  0  0  0  0
M  END
>  <CHROM.1>
-124.50748145,-48.56621555,174.76001635,-155.02539690,-153.88285212,41.73686316
93.65125197,47.40581837,-29.05846404,-102.48741813,-2.42709399,0.12337521
2.57962916

>  <Name>
ligand

>  <RI>
0

>  <Rbt.Current_Directory>
/home/itssahil/PROJECTS/Mol_Feturizer/Test_systems_manuscript/rnas/4l81

>  <Rbt.Executable>
rbdock ($Id: //depot/dev/client3/rdock/2013.1/src/exe/rbdock.cxx#4 $)

>  <Rbt.Library>
libRbt.so (2013.1, Build901 2013/11/27)

>  <Rbt.Parameter_File>
/export/apps/rDock/src/rDock_2013.1_src/data/scripts/dock_solv.prm

>  <Rbt.Receptor>
prm/pocket_docking_2.prm

>  <SCORE>
-16.0368

>  <SCORE.INTER>
-16.8466

>  <SCORE.INTER.CONST>
1

>  <SCORE.INTER.POLAR>
0

>  <SCORE.INTER.ROT>
7

>  <SCORE.INTER.SOLV>
18.5709

>  <SCORE.INTER.VDW>
-25.688

>  <SCORE.INTER.norm>
-0.623949

>  <SCORE.INTRA>
0.791975

>  <SCORE.INTRA.DIHEDRAL>
1.79651

>  <SCORE.INTRA.DIHEDRAL.0>
8.34559

>  <SCORE.INTRA.POLAR>
0

>  <SCORE.INTRA.POLAR.0>
0

>  <SCORE.INTRA.REPUL>
0

>  <SCORE.INTRA.REPUL.0>
0

>  <SCORE.INTRA.SOLV>
-0.452858

>  <SCORE.INTRA.SOLV.lig_0>
-48.829

>  <SCORE.INTRA.VDW>
0.12015

>  <SCORE.INTRA.VDW.0>
-1.77092

>  <SCORE.INTRA.norm>
0.0293324

>  <SCORE.RESTR>
0.0178642

>  <SCORE.RESTR.CAVITY>
0.0178642

>  <SCORE.RESTR.norm>
0.000661637

>  <SCORE.SYSTEM>
0

>  <SCORE.SYSTEM.CONST>
0

>  <SCORE.SYSTEM.DIHEDRAL>
0

>  <SCORE.SYSTEM.SOLV>
0

>  <SCORE.SYSTEM.norm>
0

>  <SCORE.heavy>
27

>  <SCORE.norm>
-0.593955

>  <RMSD>
1.106

$$$$
ligand
 OpenBabel02271912153D
libRbt.so/2013.1/901 2013/11/27
 27 29  0  0  0  0  0  0  0  0999 V2000
   43.9588  -27.2602 -104.1212 N   0  0  0  0  0  0  0  0  0  0  0  0
   45.2755  -26.8178 -104.5937 C   0  0  2  0  0  0  0  0  0  0  0  0
   45.7328  -27.7128 -105.7262 C   0  0  0  0  0  0  0  0  0  0  0  0
   46.3366  -27.2403 -106.6774 O   0  0  0  0  0  0  0  0  0  0  0  0
   46.3189  -26.8685 -103.4693 C   0  0  0  0  0  0  0  0  0  0  0  0
   47.6180  -26.2063 -103.9060 C   0  0  0  0  0  0  0  0  0  0  0  0
   48.9408  -26.2982 -102.6392 S   0  0  2  0  0  0  0  0  0  0  0  0
   50.3518  -25.4456 -103.4150 C   0  0  0  0  0  0  0  0  0  0  0  0
   49.4064  -27.9917 -102.9913 C   0  0  0  0  0  0  0  0  0  0  0  0
   49.9055  -28.7457 -101.7875 C   0  0  1  0  0  0  0  0  0  0  0  0
   48.8897  -28.6783 -100.7723 O   0  0  0  0  0  0  0  0  0  0  0  0
   49.9288  -30.1416 -102.2654 C   0  0  1  0  0  0  0  0  0  0  0  0
   51.2509  -30.4850 -102.6774 O   0  0  0  0  0  0  0  0  0  0  0  0
   49.5610  -30.9107 -101.0344 C   0  0  1  0  0  0  0  0  0  0  0  0
   50.7391  -31.2038 -100.2551 O   0  0  0  0  0  0  0  0  0  0  0  0
   48.6046  -29.9883 -100.2203 C   0  0  2  0  0  0  0  0  0  0  0  0
   45.5321  -28.9140 -105.6826 O   0  0  0  0  0  0  0  0  0  0  0  0
   44.5563  -31.9564 -103.0373 N   0  0  0  0  0  0  0  0  0  0  0  0
   45.8769  -32.0085 -103.3389 C   0  0  0  0  0  0  0  0  0  0  0  0
   46.8147  -31.5023 -102.5109 N   0  0  0  0  0  0  0  0  0  0  0  0
   46.4599  -30.8467 -101.3939 C   0  0  0  0  0  0  0  0  0  0  0  0
   45.0620  -30.7314 -101.0545 C   0  0  0  0  0  0  0  0  0  0  0  0
   44.1070  -31.3292 -101.9297 C   0  0  0  0  0  0  0  0  0  0  0  0
   42.7549  -31.2651 -101.6605 N   0  0  0  0  0  0  0  0  0  0  0  0
   44.9849  -30.0373  -99.9130 N   0  0  0  0  0  0  0  0  0  0  0  0
   46.1853  -29.7147  -99.5333 C   0  0  0  0  0  0  0  0  0  0  0  0
   47.1379  -30.1927 -100.4027 N   0  0  0  0  0  0  0  0  0  0  0  0
  2  1  1  1  0  0  0
  2  3  1  0  0  0  0
  2  5  1  0  0  0  0
  3  4  1  0  0  0  0
  3 17  1  0  0  0  0
  5  6  1  0  0  0  0
  7  6  1  6  0  0  0
  7  8  1  0  0  0  0
  7  9  1  0  0  0  0
 10  9  1  6  0  0  0
 10 11  1  0  0  0  0
 10 12  1  0  0  0  0
 11 16  1  0  0  0  0
 12 13  1  1  0  0  0
 12 14  1  0  0  0  0
 14 15  1  1  0  0  0
 14 16  1  0  0  0  0
 16 27  1  6  0  0  0
 18 19  2  0  0  0  0
 18 23  1  0  0  0  0
 19 20  1  0  0  0  0
 20 21  2  0  0  0  0
 21 22  1  0  0  0  0
 21 27  1  0  0  0  0
 22 23  2  0  0  0  0
 22 25  1  0  0  0  0
 23 24  1  0  0  0  0
 25 26  2  0  0  0  0
 26 27  1  0  0  0  0
M  END
>  <CHROM.1>
142.11220611,-171.10911526,-177.30250303,179.95591522,-148.49810803,55.75921984
96.23216426,47.27924306,-29.09530117,-102.52650568,2.74395164,0.30791153
2.44297994

>  <Name>
ligand

>  <RI>
0

>  <Rbt.Current_Directory>
/home/itssahil/PROJECTS/Mol_Feturizer/Test_systems_manuscript/rnas/4l81

>  <Rbt.Executable>
rbdock ($Id: //depot/dev/client3/rdock/2013.1/src/exe/rbdock.cxx#4 $)

>  <Rbt.Library>
libRbt.so (2013.1, Build901 2013/11/27)

>  <Rbt.Parameter_File>
/export/apps/rDock/src/rDock_2013.1_src/data/scripts/dock_solv.prm

>  <Rbt.Receptor>
prm/pocket_docking_3.prm

>  <SCORE>
-16.9813

>  <SCORE.INTER>
-14.0277

>  <SCORE.INTER.CONST>
1

>  <SCORE.INTER.POLAR>
0

>  <SCORE.INTER.ROT>
7

>  <SCORE.INTER.SOLV>
21.7541

>  <SCORE.INTER.VDW>
-24.8698

>  <SCORE.INTER.norm>
-0.519543

>  <SCORE.INTRA>
-2.95362

>  <SCORE.INTRA.DIHEDRAL>
-1.2779

>  <SCORE.INTRA.DIHEDRAL.0>
8.34559

>  <SCORE.INTRA.POLAR>
0

>  <SCORE.INTRA.POLAR.0>
0

>  <SCORE.INTRA.REPUL>
0

>  <SCORE.INTRA.REPUL.0>
0

>  <SCORE.INTRA.SOLV>
-1.27916

>  <SCORE.INTRA.SOLV.lig_0>
-48.829

>  <SCORE.INTRA.VDW>
-1.67509

>  <SCORE.INTRA.VDW.0>
-1.77092

>  <SCORE.INTRA.norm>
-0.109394

>  <SCORE.RESTR>
0

>  <SCORE.RESTR.CAVITY>
0

>  <SCORE.RESTR.norm>
0

>  <SCORE.SYSTEM>
0

>  <SCORE.SYSTEM.CONST>
0

>  <SCORE.SYSTEM.DIHEDRAL>
0

>  <SCORE.SYSTEM.SOLV>
0

>  <SCORE.SYSTEM.norm>
0

>  <SCORE.heavy>
27

>  <SCORE.norm>
-0.628936

>  <RMSD>
1.106

$$$$
ligand
 OpenBabel02271912153D
libRbt.so/2013.1/901 2013/11/27
 27 29  0  0  0  0  0  0  0  0999 V2000
   46.6785  -28.1138 -105.3803 N   0  0  0  0  0  0  0  0  0  0  0  0
   45.6894  -27.6332 -104.4090 C   0  0  2  0  0  0  0  0  0  0  0  0
   44.7917  -26.6071 -105.0677 C   0  0  0  0  0  0  0  0  0  0  0  0
   43.6495  -26.4420 -104.6665 O   0  0  0  0  0  0  0  0  0  0  0  0
   46.3679  -26.9901 -103.1919 C   0  0  0  0  0  0  0  0  0  0  0  0
   47.5088  -26.0808 -103.6258 C   0  0  0  0  0  0  0  0  0  0  0  0
   48.9942  -26.2208 -102.5593 S   0  0  2  0  0  0  0  0  0  0  0  0
   50.3043  -25.3968 -103.5207 C   0  0  0  0  0  0  0  0  0  0  0  0
   49.3590  -27.9219 -102.9858 C   0  0  0  0  0  0  0  0  0  0  0  0
   49.8338  -28.7500 -101.8214 C   0  0  1  0  0  0  0  0  0  0  0  0
   48.8178  -28.7057 -100.8051 O   0  0  0  0  0  0  0  0  0  0  0  0
   49.8189  -30.1199 -102.3698 C   0  0  1  0  0  0  0  0  0  0  0  0
   51.1317  -30.4791 -102.7974 O   0  0  0  0  0  0  0  0  0  0  0  0
   49.4265  -30.9399 -101.1799 C   0  0  1  0  0  0  0  0  0  0  0  0
   50.5941  -31.3055 -100.4154 O   0  0  0  0  0  0  0  0  0  0  0  0
   48.4946  -30.0335 -100.3209 C   0  0  2  0  0  0  0  0  0  0  0  0
   45.2107  -25.9158 -105.9795 O   0  0  0  0  0  0  0  0  0  0  0  0
   44.4061  -32.1259 -102.9863 N   0  0  0  0  0  0  0  0  0  0  0  0
   45.7280  -32.2778 -103.2460 C   0  0  0  0  0  0  0  0  0  0  0  0
   46.6742  -31.7222 -102.4604 N   0  0  0  0  0  0  0  0  0  0  0  0
   46.3318  -30.9211 -101.4384 C   0  0  0  0  0  0  0  0  0  0  0  0
   44.9354  -30.6983 -101.1507 C   0  0  0  0  0  0  0  0  0  0  0  0
   43.9681  -31.3495 -101.9727 C   0  0  0  0  0  0  0  0  0  0  0  0
   42.6161  -31.1881 -101.7474 N   0  0  0  0  0  0  0  0  0  0  0  0
   44.8718  -29.8695 -100.1019 N   0  0  0  0  0  0  0  0  0  0  0  0
   46.0796  -29.5624  -99.7328 C   0  0  0  0  0  0  0  0  0  0  0  0
   47.0231  -30.1868 -100.5149 N   0  0  0  0  0  0  0  0  0  0  0  0
  2  1  1  6  0  0  0
  2  3  1  0  0  0  0
  2  5  1  0  0  0  0
  3  4  1  0  0  0  0
  3 17  1  0  0  0  0
  5  6  1  0  0  0  0
  7  6  1  6  0  0  0
  7  8  1  0  0  0  0
  7  9  1  0  0  0  0
 10  9  1  6  0  0  0
 10 11  1  0  0  0  0
 10 12  1  0  0  0  0
 11 16  1  0  0  0  0
 12 13  1  1  0  0  0
 12 14  1  0  0  0  0
 14 15  1  1  0  0  0
 14 16  1  0  0  0  0
 16 27  1  6  0  0  0
 18 19  2  0  0  0  0
 18 23  1  0  0  0  0
 19 20  1  0  0  0  0
 20 21  2  0  0  0  0
 21 22  1  0  0  0  0
 21 27  1  0  0  0  0
 22 23  2  0  0  0  0
 22 25  1  0  0  0  0
 23 24  1  0  0  0  0
 25 26  2  0  0  0  0
 26 27  1  0  0  0  0
M  END
>  <CHROM.1>
152.69679704,43.83762149,-138.87449785,165.83647148,-140.93296140,57.74648848
106.15122415,47.16555037,-28.97003700,-102.49714834,1.34257217,-0.23703676
-0.55962847

>  <Name>
ligand

>  <RI>
0

>  <Rbt.Current_Directory>
/home/itssahil/PROJECTS/Mol_Feturizer/Test_systems_manuscript/rnas/4l81

>  <Rbt.Executable>
rbdock ($Id: //depot/dev/client3/rdock/2013.1/src/exe/rbdock.cxx#4 $)

>  <Rbt.Library>
libRbt.so (2013.1, Build901 2013/11/27)

>  <Rbt.Parameter_File>
/export/apps/rDock/src/rDock_2013.1_src/data/scripts/dock_solv.prm

>  <Rbt.Receptor>
prm/pocket_docking_2.prm

>  <SCORE>
-15.8931

>  <SCORE.INTER>
-16.9558

>  <SCORE.INTER.CONST>
1

>  <SCORE.INTER.POLAR>
0

>  <SCORE.INTER.ROT>
7

>  <SCORE.INTER.SOLV>
16.9359

>  <SCORE.INTER.VDW>
-25.2159

>  <SCORE.INTER.norm>
-0.627994

>  <SCORE.INTRA>
1.04569

>  <SCORE.INTRA.DIHEDRAL>
4.10402

>  <SCORE.INTRA.DIHEDRAL.0>
8.34559

>  <SCORE.INTRA.POLAR>
0

>  <SCORE.INTRA.POLAR.0>
0

>  <SCORE.INTRA.REPUL>
0

>  <SCORE.INTRA.REPUL.0>
0

>  <SCORE.INTRA.SOLV>
0.697893

>  <SCORE.INTRA.SOLV.lig_0>
-48.829

>  <SCORE.INTRA.VDW>
-1.35526

>  <SCORE.INTRA.VDW.0>
-1.77092

>  <SCORE.INTRA.norm>
0.0387294

>  <SCORE.RESTR>
0.0170523

>  <SCORE.RESTR.CAVITY>
0.0170523

>  <SCORE.RESTR.norm>
0.000631566

>  <SCORE.SYSTEM>
0

>  <SCORE.SYSTEM.CONST>
0

>  <SCORE.SYSTEM.DIHEDRAL>
0

>  <SCORE.SYSTEM.SOLV>
0

>  <SCORE.SYSTEM.norm>
0

>  <SCORE.heavy>
27

>  <SCORE.norm>
-0.588633

>  <RMSD>
1.107

$$$$
ligand
 OpenBabel02271912153D
libRbt.so/2013.1/901 2013/11/27
 27 29  0  0  0  0  0  0  0  0999 V2000
   46.0919  -27.4412 -106.2708 N   0  0  0  0  0  0  0  0  0  0  0  0
   45.6732  -27.4232 -104.8647 C   0  0  2  0  0  0  0  0  0  0  0  0
   44.4454  -26.5500 -104.7143 C   0  0  0  0  0  0  0  0  0  0  0  0
   44.1512  -25.7476 -105.5874 O   0  0  0  0  0  0  0  0  0  0  0  0
   46.7843  -26.8773 -103.9576 C   0  0  0  0  0  0  0  0  0  0  0  0
   47.9234  -27.8793 -103.8340 C   0  0  0  0  0  0  0  0  0  0  0  0
   49.3442  -27.2463 -102.8624 S   0  0  2  0  0  0  0  0  0  0  0  0
   50.0960  -25.9925 -103.9496 C   0  0  0  0  0  0  0  0  0  0  0  0
   50.4330  -28.6222 -103.2235 C   0  0  0  0  0  0  0  0  0  0  0  0
   50.7661  -29.4632 -102.0200 C   0  0  1  0  0  0  0  0  0  0  0  0
   49.8096  -29.1592 -100.9907 O   0  0  0  0  0  0  0  0  0  0  0  0
   50.4616  -30.8303 -102.4849 C   0  0  1  0  0  0  0  0  0  0  0  0
   51.6631  -31.4695 -102.9129 O   0  0  0  0  0  0  0  0  0  0  0  0
   49.9480  -31.4874 -101.2413 C   0  0  1  0  0  0  0  0  0  0  0  0
   51.0405  -32.0378 -100.4766 O   0  0  0  0  0  0  0  0  0  0  0  0
   49.2415  -30.3659 -100.4221 C   0  0  2  0  0  0  0  0  0  0  0  0
   43.7237  -26.6633 -103.7389 O   0  0  0  0  0  0  0  0  0  0  0  0
   44.7587  -31.6426 -102.9663 N   0  0  0  0  0  0  0  0  0  0  0  0
   46.0187  -32.0523 -103.2534 C   0  0  0  0  0  0  0  0  0  0  0  0
   47.0742  -31.6854 -102.4969 N   0  0  0  0  0  0  0  0  0  0  0  0
   46.9201  -30.8235 -101.4786 C   0  0  0  0  0  0  0  0  0  0  0  0
   45.6016  -30.3293 -101.1629 C   0  0  0  0  0  0  0  0  0  0  0  0
   44.5059  -30.7863 -101.9540 C   0  0  0  0  0  0  0  0  0  0  0  0
   43.2174  -30.3615 -101.7007 N   0  0  0  0  0  0  0  0  0  0  0  0
   45.7270  -29.4946 -100.1244 N   0  0  0  0  0  0  0  0  0  0  0  0
   46.9802  -29.4263  -99.7867 C   0  0  0  0  0  0  0  0  0  0  0  0
   47.7641  -30.2301 -100.5810 N   0  0  0  0  0  0  0  0  0  0  0  0
  2  1  1  6  0  0  0
  2  3  1  0  0  0  0
  2  5  1  0  0  0  0
  3  4  1  0  0  0  0
  3 17  1  0  0  0  0
  5  6  1  0  0  0  0
  7  6  1  6  0  0  0
  7  8  1  0  0  0  0
  7  9  1  0  0  0  0
 10  9  1  6  0  0  0
 10 11  1  0  0  0  0
 10 12  1  0  0  0  0
 11 16  1  0  0  0  0
 12 13  1  1  0  0  0
 12 14  1  0  0  0  0
 14 15  1  1  0  0  0
 14 16  1  0  0  0  0
 16 27  1  6  0  0  0
 18 19  2  0  0  0  0
 18 23  1  0  0  0  0
 19 20  1  0  0  0  0
 20 21  2  0  0  0  0
 21 22  1  0  0  0  0
 21 27  1  0  0  0  0
 22 23  2  0  0  0  0
 22 25  1  0  0  0  0
 23 24  1  0  0  0  0
 25 26  2  0  0  0  0
 26 27  1  0  0  0  0
M  END
>  <CHROM.1>
-17.75283676,-71.70264982,175.81593182,-71.14621968,-113.43548443,16.66215402
103.47133242,47.55528614,-29.19519072,-102.60003835,-2.47723434,0.06698396
2.52659413

>  <Name>
ligand

>  <RI>
0

>  <Rbt.Current_Directory>
/home/itssahil/PROJECTS/Mol_Feturizer/Test_systems_manuscript/rnas/4l81

>  <Rbt.Executable>
rbdock ($Id: //depot/dev/client3/rdock/2013.1/src/exe/rbdock.cxx#4 $)

>  <Rbt.Library>
libRbt.so (2013.1, Build901 2013/11/27)

>  <Rbt.Parameter_File>
/export/apps/rDock/src/rDock_2013.1_src/data/scripts/dock_solv.prm

>  <Rbt.Receptor>
prm/pocket_docking_2.prm

>  <SCORE>
-15.7845

>  <SCORE.INTER>
-15.8249

>  <SCORE.INTER.CONST>
1

>  <SCORE.INTER.POLAR>
0

>  <SCORE.INTER.ROT>
7

>  <SCORE.INTER.SOLV>
16.4702

>  <SCORE.INTER.VDW>
-24.3067

>  <SCORE.INTER.norm>
-0.586109

>  <SCORE.INTRA>
-0.0170025

>  <SCORE.INTRA.DIHEDRAL>
3.51874

>  <SCORE.INTRA.DIHEDRAL.0>
8.34559

>  <SCORE.INTRA.POLAR>
0

>  <SCORE.INTRA.POLAR.0>
0

>  <SCORE.INTRA.REPUL>
0

>  <SCORE.INTRA.REPUL.0>
0

>  <SCORE.INTRA.SOLV>
-0.566887

>  <SCORE.INTRA.SOLV.lig_0>
-48.829

>  <SCORE.INTRA.VDW>
-1.49293

>  <SCORE.INTRA.VDW.0>
-1.77092

>  <SCORE.INTRA.norm>
-0.000629722

>  <SCORE.RESTR>
0.057405

>  <SCORE.RESTR.CAVITY>
0.057405

>  <SCORE.RESTR.norm>
0.00212611

>  <SCORE.SYSTEM>
0

>  <SCORE.SYSTEM.CONST>
0

>  <SCORE.SYSTEM.DIHEDRAL>
0

>  <SCORE.SYSTEM.SOLV>
0

>  <SCORE.SYSTEM.norm>
0

>  <SCORE.heavy>
27

>  <SCORE.norm>
-0.584612

>  <RMSD>
1.108

$$$$
ligand
 OpenBabel02271912153D
libRbt.so/2013.1/901 2013/11/27
 27 29  0  0  0  0  0  0  0  0999 V2000
   45.5504  -25.4016 -105.9727 N   0  0  0  0  0  0  0  0  0  0  0  0
   45.8920  -26.4327 -104.9865 C   0  0  2  0  0  0  0  0  0  0  0  0
   44.7043  -26.6781 -104.0799 C   0  0  0  0  0  0  0  0  0  0  0  0
   44.8746  -26.8999 -102.8906 O   0  0  0  0  0  0  0  0  0  0  0  0
   47.0919  -26.0096 -104.1283 C   0  0  0  0  0  0  0  0  0  0  0  0
   47.7858  -27.2256 -103.5309 C   0  0  0  0  0  0  0  0  0  0  0  0
   49.5656  -26.9487 -103.1857 S   0  0  2  0  0  0  0  0  0  0  0  0
   50.2050  -26.2241 -104.7303 C   0  0  0  0  0  0  0  0  0  0  0  0
   50.0633  -28.6498 -103.4450 C   0  0  0  0  0  0  0  0  0  0  0  0
   50.5021  -29.3511 -102.1870 C   0  0  1  0  0  0  0  0  0  0  0  0
   49.5191  -29.0905 -101.1707 O   0  0  0  0  0  0  0  0  0  0  0  0
   50.3667  -30.7761 -102.5457 C   0  0  1  0  0  0  0  0  0  0  0  0
   51.6363  -31.2934 -102.9408 O   0  0  0  0  0  0  0  0  0  0  0  0
   49.9425  -31.3963 -101.2505 C   0  0  1  0  0  0  0  0  0  0  0  0
   51.0974  -31.7497 -100.4613 O   0  0  0  0  0  0  0  0  0  0  0  0
   49.1062  -30.3117 -100.5074 C   0  0  2  0  0  0  0  0  0  0  0  0
   43.5698  -26.6235 -104.5214 O   0  0  0  0  0  0  0  0  0  0  0  0
   44.8182  -32.0210 -103.1322 N   0  0  0  0  0  0  0  0  0  0  0  0
   46.1198  -32.2331 -103.4462 C   0  0  0  0  0  0  0  0  0  0  0  0
   47.1218  -31.7757 -102.6666 N   0  0  0  0  0  0  0  0  0  0  0  0
   46.8602  -31.0132 -101.5924 C   0  0  0  0  0  0  0  0  0  0  0  0
   45.4892  -30.7276 -101.2441 C   0  0  0  0  0  0  0  0  0  0  0  0
   44.4594  -31.2773 -102.0643 C   0  0  0  0  0  0  0  0  0  0  0  0
   43.1272  -31.0520 -101.7830 N   0  0  0  0  0  0  0  0  0  0  0  0
   45.5082  -29.9548 -100.1517 N   0  0  0  0  0  0  0  0  0  0  0  0
   46.7432  -29.7373  -99.8101 C   0  0  0  0  0  0  0  0  0  0  0  0
   47.6228  -30.3706 -100.6568 N   0  0  0  0  0  0  0  0  0  0  0  0
  2  1  1  6  0  0  0
  2  3  1  0  0  0  0
  2  5  1  0  0  0  0
  3  4  1  0  0  0  0
  3 17  1  0  0  0  0
  5  6  1  0  0  0  0
  7  6  1  6  0  0  0
  7  8  1  0  0  0  0
  7  9  1  0  0  0  0
 10  9  1  6  0  0  0
 10 11  1  0  0  0  0
 10 12  1  0  0  0  0
 11 16  1  0  0  0  0
 12 13  1  1  0  0  0
 12 14  1  0  0  0  0
 14 15  1  1  0  0  0
 14 16  1  0  0  0  0
 16 27  1  6  0  0  0
 18 19  2  0  0  0  0
 18 23  1  0  0  0  0
 19 20  1  0  0  0  0
 20 21  2  0  0  0  0
 21 22  1  0  0  0  0
 21 27  1  0  0  0  0
 22 23  2  0  0  0  0
 22 25  1  0  0  0  0
 23 24  1  0  0  0  0
 25 26  2  0  0  0  0
 26 27  1  0  0  0  0
M  END
>  <CHROM.1>
-142.52167958,-157.10472826,153.01805474,-48.91614266,-111.23158157,47.55833966
95.29093990,47.53910331,-29.14856015,-102.60862382,-2.34768229,0.05285260
2.60659086

>  <Name>
ligand

>  <RI>
0

>  <Rbt.Current_Directory>
/home/itssahil/PROJECTS/Mol_Feturizer/Test_systems_manuscript/rnas/4l81

>  <Rbt.Executable>
rbdock ($Id: //depot/dev/client3/rdock/2013.1/src/exe/rbdock.cxx#4 $)

>  <Rbt.Library>
libRbt.so (2013.1, Build901 2013/11/27)

>  <Rbt.Parameter_File>
/export/apps/rDock/src/rDock_2013.1_src/data/scripts/dock_solv.prm

>  <Rbt.Receptor>
prm/pocket_docking_2.prm

>  <SCORE>
-15.1983

>  <SCORE.INTER>
-16.7701

>  <SCORE.INTER.CONST>
1

>  <SCORE.INTER.POLAR>
0

>  <SCORE.INTER.ROT>
7

>  <SCORE.INTER.SOLV>
18.505

>  <SCORE.INTER.VDW>
-25.615

>  <SCORE.INTER.norm>
-0.621114

>  <SCORE.INTRA>
1.54011

>  <SCORE.INTRA.DIHEDRAL>
4.45795

>  <SCORE.INTRA.DIHEDRAL.0>
8.34559

>  <SCORE.INTRA.POLAR>
0

>  <SCORE.INTRA.POLAR.0>
0

>  <SCORE.INTRA.REPUL>
0

>  <SCORE.INTRA.REPUL.0>
0

>  <SCORE.INTRA.SOLV>
-1.20957

>  <SCORE.INTRA.SOLV.lig_0>
-48.829

>  <SCORE.INTRA.VDW>
-0.0840805

>  <SCORE.INTRA.VDW.0>
-1.77092

>  <SCORE.INTRA.norm>
0.0570411

>  <SCORE.RESTR>
0.0316277

>  <SCORE.RESTR.CAVITY>
0.0316277

>  <SCORE.RESTR.norm>
0.0011714

>  <SCORE.SYSTEM>
0

>  <SCORE.SYSTEM.CONST>
0

>  <SCORE.SYSTEM.DIHEDRAL>
0

>  <SCORE.SYSTEM.SOLV>
0

>  <SCORE.SYSTEM.norm>
0

>  <SCORE.heavy>
27

>  <SCORE.norm>
-0.562901

>  <RMSD>
1.117

$$$$
ligand
 OpenBabel02271912153D
libRbt.so/2013.1/901 2013/11/27
 27 29  0  0  0  0  0  0  0  0999 V2000
   45.5952  -25.4352 -105.3654 N   0  0  0  0  0  0  0  0  0  0  0  0
   45.8076  -26.8591 -105.0823 C   0  0  2  0  0  0  0  0  0  0  0  0
   45.1755  -27.2094 -103.7517 C   0  0  0  0  0  0  0  0  0  0  0  0
   44.8840  -28.3681 -103.4960 O   0  0  0  0  0  0  0  0  0  0  0  0
   47.3028  -27.2009 -105.0263 C   0  0  0  0  0  0  0  0  0  0  0  0
   47.9949  -26.4220 -103.9168 C   0  0  0  0  0  0  0  0  0  0  0  0
   49.7954  -26.7545 -103.8112 S   0  0  2  0  0  0  0  0  0  0  0  0
   50.3609  -26.6639 -105.5408 C   0  0  0  0  0  0  0  0  0  0  0  0
   49.6388  -28.5323 -103.6584 C   0  0  0  0  0  0  0  0  0  0  0  0
   50.1964  -29.0814 -102.3722 C   0  0  1  0  0  0  0  0  0  0  0  0
   49.2576  -28.7884 -101.3235 O   0  0  0  0  0  0  0  0  0  0  0  0
   50.1400  -30.5398 -102.5902 C   0  0  1  0  0  0  0  0  0  0  0  0
   51.4177  -31.0104 -103.0163 O   0  0  0  0  0  0  0  0  0  0  0  0
   49.8347  -31.0597 -101.2196 C   0  0  1  0  0  0  0  0  0  0  0  0
   51.0546  -31.2621 -100.4764 O   0  0  0  0  0  0  0  0  0  0  0  0
   48.9691  -29.9649 -100.5268 C   0  0  2  0  0  0  0  0  0  0  0  0
   44.9832  -26.3458 -102.9138 O   0  0  0  0  0  0  0  0  0  0  0  0
   44.6460  -31.9504 -102.8863 N   0  0  0  0  0  0  0  0  0  0  0  0
   45.9348  -32.0600 -103.2926 C   0  0  0  0  0  0  0  0  0  0  0  0
   46.9522  -31.5407 -102.5743 N   0  0  0  0  0  0  0  0  0  0  0  0
   46.7106  -30.8159 -101.4698 C   0  0  0  0  0  0  0  0  0  0  0  0
   45.3499  -30.6387 -101.0231 C   0  0  0  0  0  0  0  0  0  0  0  0
   44.3088  -31.2515 -101.7819 C   0  0  0  0  0  0  0  0  0  0  0  0
   42.9864  -31.1305 -101.4058 N   0  0  0  0  0  0  0  0  0  0  0  0
   45.3880  -29.8830  -99.9193 N   0  0  0  0  0  0  0  0  0  0  0  0
   46.6245  -29.5789  -99.6585 C   0  0  0  0  0  0  0  0  0  0  0  0
   47.4872  -30.1321 -100.5757 N   0  0  0  0  0  0  0  0  0  0  0  0
  2  1  1  1  0  0  0
  2  3  1  0  0  0  0
  2  5  1  0  0  0  0
  3  4  1  0  0  0  0
  3 17  1  0  0  0  0
  5  6  1  0  0  0  0
  7  6  1  6  0  0  0
  7  8  1  0  0  0  0
  7  9  1  0  0  0  0
 10  9  1  6  0  0  0
 10 11  1  0  0  0  0
 10 12  1  0  0  0  0
 11 16  1  0  0  0  0
 12 13  1  1  0  0  0
 12 14  1  0  0  0  0
 14 15  1  1  0  0  0
 14 16  1  0  0  0  0
 16 27  1  6  0  0  0
 18 19  2  0  0  0  0
 18 23  1  0  0  0  0
 19 20  1  0  0  0  0
 20 21  2  0  0  0  0
 21 22  1  0  0  0  0
 21 27  1  0  0  0  0
 22 23  2  0  0  0  0
 22 25  1  0  0  0  0
 23 24  1  0  0  0  0
 25 26  2  0  0  0  0
 26 27  1  0  0  0  0
M  END
>  <CHROM.1>
158.54436825,61.17670182,-178.83803566,45.85823600,-118.81682181,76.29200709
88.91034967,47.53871570,-29.11710500,-102.62691608,0.78878681,-0.00190426
-0.63307533

>  <Name>
ligand

>  <RI>
0

>  <Rbt.Current_Directory>
/home/itssahil/PROJECTS/Mol_Feturizer/Test_systems_manuscript/rnas/4l81

>  <Rbt.Executable>
rbdock ($Id: //depot/dev/client3/rdock/2013.1/src/exe/rbdock.cxx#4 $)

>  <Rbt.Library>
libRbt.so (2013.1, Build901 2013/11/27)

>  <Rbt.Parameter_File>
/export/apps/rDock/src/rDock_2013.1_src/data/scripts/dock_solv.prm

>  <Rbt.Receptor>
prm/pocket_docking_2.prm

>  <SCORE>
-14.6843

>  <SCORE.INTER>
-14.0897

>  <SCORE.INTER.CONST>
1

>  <SCORE.INTER.POLAR>
0

>  <SCORE.INTER.ROT>
7

>  <SCORE.INTER.SOLV>
18.4665

>  <SCORE.INTER.VDW>
-23.8153

>  <SCORE.INTER.norm>
-0.521841

>  <SCORE.INTRA>
-0.594599

>  <SCORE.INTRA.DIHEDRAL>
0.0308042

>  <SCORE.INTRA.DIHEDRAL.0>
8.34559

>  <SCORE.INTRA.POLAR>
0

>  <SCORE.INTRA.POLAR.0>
0

>  <SCORE.INTRA.REPUL>
0

>  <SCORE.INTRA.REPUL.0>
0

>  <SCORE.INTRA.SOLV>
-0.587707

>  <SCORE.INTRA.SOLV.lig_0>
-48.829

>  <SCORE.INTRA.VDW>
-0.316147

>  <SCORE.INTRA.VDW.0>
-1.77092

>  <SCORE.INTRA.norm>
-0.0220222

>  <SCORE.RESTR>
0

>  <SCORE.RESTR.CAVITY>
0

>  <SCORE.RESTR.norm>
0

>  <SCORE.SYSTEM>
0

>  <SCORE.SYSTEM.CONST>
0

>  <SCORE.SYSTEM.DIHEDRAL>
0

>  <SCORE.SYSTEM.SOLV>
0

>  <SCORE.SYSTEM.norm>
0

>  <SCORE.heavy>
27

>  <SCORE.norm>
-0.543863

>  <RMSD>
1.118

$$$$
ligand
 OpenBabel02271912153D
libRbt.so/2013.1/901 2013/11/27
 27 29  0  0  0  0  0  0  0  0999 V2000
   45.7602  -25.4047 -105.4976 N   0  0  0  0  0  0  0  0  0  0  0  0
   45.9856  -26.8392 -105.2876 C   0  0  2  0  0  0  0  0  0  0  0  0
   44.9420  -27.3802 -104.3331 C   0  0  0  0  0  0  0  0  0  0  0  0
   44.6312  -28.5613 -104.3675 O   0  0  0  0  0  0  0  0  0  0  0  0
   47.3790  -27.1063 -104.7023 C   0  0  0  0  0  0  0  0  0  0  0  0
   47.5678  -26.3573 -103.3907 C   0  0  0  0  0  0  0  0  0  0  0  0
   49.2824  -26.4442 -102.7459 S   0  0  2  0  0  0  0  0  0  0  0  0
   50.2959  -25.7679 -104.1006 C   0  0  0  0  0  0  0  0  0  0  0  0
   49.5061  -28.1914 -103.0715 C   0  0  0  0  0  0  0  0  0  0  0  0
   50.0330  -28.9649 -101.8922 C   0  0  1  0  0  0  0  0  0  0  0  0
   49.0501  -28.8971 -100.8452 O   0  0  0  0  0  0  0  0  0  0  0  0
   50.0246  -30.3554 -102.3860 C   0  0  1  0  0  0  0  0  0  0  0  0
   51.3290  -30.7097 -102.8426 O   0  0  0  0  0  0  0  0  0  0  0  0
   49.6857  -31.1341 -101.1527 C   0  0  1  0  0  0  0  0  0  0  0  0
   50.8838  -31.4500 -100.4136 O   0  0  0  0  0  0  0  0  0  0  0  0
   48.7663  -30.2099 -100.2991 C   0  0  2  0  0  0  0  0  0  0  0  0
   44.4289  -26.6510 -103.5025 O   0  0  0  0  0  0  0  0  0  0  0  0
   44.5998  -31.9707 -103.0808 N   0  0  0  0  0  0  0  0  0  0  0  0
   45.9077  -32.0093 -103.4355 C   0  0  0  0  0  0  0  0  0  0  0  0
   46.8798  -31.5627 -102.6130 N   0  0  0  0  0  0  0  0  0  0  0  0
   46.5724  -30.9796 -101.4429 C   0  0  0  0  0  0  0  0  0  0  0  0
   45.1892  -30.8799 -101.0436 C   0  0  0  0  0  0  0  0  0  0  0  0
   44.1974  -31.4148 -101.9184 C   0  0  0  0  0  0  0  0  0  0  0  0
   42.8570  -31.3619 -101.5940 N   0  0  0  0  0  0  0  0  0  0  0  0
   45.1605  -30.2613  -99.8573 N   0  0  0  0  0  0  0  0  0  0  0  0
   46.3769  -29.9699  -99.5036 C   0  0  0  0  0  0  0  0  0  0  0  0
   47.2923  -30.3948 -100.4381 N   0  0  0  0  0  0  0  0  0  0  0  0
  2  1  1  1  0  0  0
  2  3  1  0  0  0  0
  2  5  1  0  0  0  0
  3  4  1  0  0  0  0
  3 17  1  0  0  0  0
  5  6  1  0  0  0  0
  7  6  1  6  0  0  0
  7  8  1  0  0  0  0
  7  9  1  0  0  0  0
 10  9  1  6  0  0  0
 10 11  1  0  0  0  0
 10 12  1  0  0  0  0
 11 16  1  0  0  0  0
 12 13  1  1  0  0  0
 12 14  1  0  0  0  0
 14 15  1  1  0  0  0
 14 16  1  0  0  0  0
 16 27  1  6  0  0  0
 18 19  2  0  0  0  0
 18 23  1  0  0  0  0
 19 20  1  0  0  0  0
 20 21  2  0  0  0  0
 21 22  1  0  0  0  0
 21 27  1  0  0  0  0
 22 23  2  0  0  0  0
 22 25  1  0  0  0  0
 23 24  1  0  0  0  0
 25 26  2  0  0  0  0
 26 27  1  0  0  0  0
M  END
>  <CHROM.1>
154.30477979,57.45757289,-172.22267471,57.08370276,-130.13032982,63.61463869
93.10089755,47.36298567,-29.12429344,-102.47130633,1.07984443,-0.17509189
-0.57619804

>  <Name>
ligand

>  <RI>
0

>  <Rbt.Current_Directory>
/home/itssahil/PROJECTS/Mol_Feturizer/Test_systems_manuscript/rnas/4l81

>  <Rbt.Executable>
rbdock ($Id: //depot/dev/client3/rdock/2013.1/src/exe/rbdock.cxx#4 $)

>  <Rbt.Library>
libRbt.so (2013.1, Build901 2013/11/27)

>  <Rbt.Parameter_File>
/export/apps/rDock/src/rDock_2013.1_src/data/scripts/dock_solv.prm

>  <Rbt.Receptor>
prm/pocket_docking_2.prm

>  <SCORE>
-14.5013

>  <SCORE.INTER>
-14.6582

>  <SCORE.INTER.CONST>
1

>  <SCORE.INTER.POLAR>
0

>  <SCORE.INTER.ROT>
7

>  <SCORE.INTER.SOLV>
18.9433

>  <SCORE.INTER.VDW>
-24.3532

>  <SCORE.INTER.norm>
-0.542896

>  <SCORE.INTRA>
0.156893

>  <SCORE.INTRA.DIHEDRAL>
-0.299155

>  <SCORE.INTRA.DIHEDRAL.0>
8.34559

>  <SCORE.INTRA.POLAR>
0

>  <SCORE.INTRA.POLAR.0>
0

>  <SCORE.INTRA.REPUL>
0

>  <SCORE.INTRA.REPUL.0>
0

>  <SCORE.INTRA.SOLV>
-0.560423

>  <SCORE.INTRA.SOLV.lig_0>
-48.829

>  <SCORE.INTRA.VDW>
0.586682

>  <SCORE.INTRA.VDW.0>
-1.77092

>  <SCORE.INTRA.norm>
0.00581084

>  <SCORE.RESTR>
0

>  <SCORE.RESTR.CAVITY>
0

>  <SCORE.RESTR.norm>
0

>  <SCORE.SYSTEM>
0

>  <SCORE.SYSTEM.CONST>
0

>  <SCORE.SYSTEM.DIHEDRAL>
0

>  <SCORE.SYSTEM.SOLV>
0

>  <SCORE.SYSTEM.norm>
0

>  <SCORE.heavy>
27

>  <SCORE.norm>
-0.537085

>  <RMSD>
1.122

$$$$
ligand
 OpenBabel02271912153D
libRbt.so/2013.1/901 2013/11/27
 27 29  0  0  0  0  0  0  0  0999 V2000
   44.3547  -25.7220 -105.0258 N   0  0  0  0  0  0  0  0  0  0  0  0
   45.6649  -26.3760 -105.1174 C   0  0  2  0  0  0  0  0  0  0  0  0
   45.4800  -27.8788 -105.1262 C   0  0  0  0  0  0  0  0  0  0  0  0
   46.3980  -28.6089 -105.4681 O   0  0  0  0  0  0  0  0  0  0  0  0
   46.5642  -25.9939 -103.9339 C   0  0  0  0  0  0  0  0  0  0  0  0
   48.0251  -26.2829 -104.2488 C   0  0  0  0  0  0  0  0  0  0  0  0
   49.0601  -26.5046 -102.7511 S   0  0  2  0  0  0  0  0  0  0  0  0
   50.6078  -25.6317 -103.1537 C   0  0  0  0  0  0  0  0  0  0  0  0
   49.5718  -28.1777 -103.1352 C   0  0  0  0  0  0  0  0  0  0  0  0
   50.0844  -28.9431 -101.9442 C   0  0  1  0  0  0  0  0  0  0  0  0
   49.1042  -28.8390 -100.8977 O   0  0  0  0  0  0  0  0  0  0  0  0
   50.0473  -30.3408 -102.4161 C   0  0  1  0  0  0  0  0  0  0  0  0
   51.3438  -30.7284 -102.8681 O   0  0  0  0  0  0  0  0  0  0  0  0
   49.6942  -31.0929 -101.1704 C   0  0  1  0  0  0  0  0  0  0  0  0
   50.8865  -31.4213 -100.4274 O   0  0  0  0  0  0  0  0  0  0  0  0
   48.7946  -30.1370 -100.3308 C   0  0  2  0  0  0  0  0  0  0  0  0
   44.4274  -28.3728 -104.7615 O   0  0  0  0  0  0  0  0  0  0  0  0
   44.5877  -31.8139 -103.1035 N   0  0  0  0  0  0  0  0  0  0  0  0
   45.8936  -31.8760 -103.4623 C   0  0  0  0  0  0  0  0  0  0  0  0
   46.8763  -31.4494 -102.6418 N   0  0  0  0  0  0  0  0  0  0  0  0
   46.5833  -30.8633 -101.4695 C   0  0  0  0  0  0  0  0  0  0  0  0
   45.2034  -30.7389 -101.0656 C   0  0  0  0  0  0  0  0  0  0  0  0
   44.1992  -31.2534 -101.9387 C   0  0  0  0  0  0  0  0  0  0  0  0
   42.8610  -31.1763 -101.6100 N   0  0  0  0  0  0  0  0  0  0  0  0
   45.1898  -30.1226  -99.8779 N   0  0  0  0  0  0  0  0  0  0  0  0
   46.4124  -29.8546  -99.5273 C   0  0  0  0  0  0  0  0  0  0  0  0
   47.3169  -30.2943 -100.4655 N   0  0  0  0  0  0  0  0  0  0  0  0
  2  1  1  1  0  0  0
  2  3  1  0  0  0  0
  2  5  1  0  0  0  0
  3  4  1  0  0  0  0
  3 17  1  0  0  0  0
  5  6  1  0  0  0  0
  7  6  1  6  0  0  0
  7  8  1  0  0  0  0
  7  9  1  0  0  0  0
 10  9  1  6  0  0  0
 10 11  1  0  0  0  0
 10 12  1  0  0  0  0
 11 16  1  0  0  0  0
 12 13  1  1  0  0  0
 12 14  1  0  0  0  0
 14 15  1  1  0  0  0
 14 16  1  0  0  0  0
 16 27  1  6  0  0  0
 18 19  2  0  0  0  0
 18 23  1  0  0  0  0
 19 20  1  0  0  0  0
 20 21  2  0  0  0  0
 21 22  1  0  0  0  0
 21 27  1  0  0  0  0
 22 23  2  0  0  0  0
 22 25  1  0  0  0  0
 23 24  1  0  0  0  0
 25 26  2  0  0  0  0
 26 27  1  0  0  0  0
M  END
>  <CHROM.1>
164.99188793,-161.42253730,-156.91521803,-139.19702172,-160.69111444,51.53287287
92.05648171,47.38367592,-29.11140146,-102.55525809,-2.75901031,0.23529396
2.54056362

>  <Name>
ligand

>  <RI>
0

>  <Rbt.Current_Directory>
/home/itssahil/PROJECTS/Mol_Feturizer/Test_systems_manuscript/rnas/4l81

>  <Rbt.Executable>
rbdock ($Id: //depot/dev/client3/rdock/2013.1/src/exe/rbdock.cxx#4 $)

>  <Rbt.Library>
libRbt.so (2013.1, Build901 2013/11/27)

>  <Rbt.Parameter_File>
/export/apps/rDock/src/rDock_2013.1_src/data/scripts/dock_solv.prm

>  <Rbt.Receptor>
prm/pocket_docking_2.prm

>  <SCORE>
-12.5533

>  <SCORE.INTER>
-12.5411

>  <SCORE.INTER.CONST>
1

>  <SCORE.INTER.POLAR>
0

>  <SCORE.INTER.ROT>
7

>  <SCORE.INTER.SOLV>
22.4531

>  <SCORE.INTER.VDW>
-24.1118

>  <SCORE.INTER.norm>
-0.464484

>  <SCORE.INTRA>
-0.525273

>  <SCORE.INTRA.DIHEDRAL>
3.93572

>  <SCORE.INTRA.DIHEDRAL.0>
8.34559

>  <SCORE.INTRA.POLAR>
0

>  <SCORE.INTRA.POLAR.0>
0

>  <SCORE.INTRA.REPUL>
0

>  <SCORE.INTRA.REPUL.0>
0

>  <SCORE.INTRA.SOLV>
-1.26709

>  <SCORE.INTRA.SOLV.lig_0>
-48.829

>  <SCORE.INTRA.VDW>
-1.85959

>  <SCORE.INTRA.VDW.0>
-1.77092

>  <SCORE.INTRA.norm>
-0.0194545

>  <SCORE.RESTR>
0.513076

>  <SCORE.RESTR.CAVITY>
0.513076

>  <SCORE.RESTR.norm>
0.0190028

>  <SCORE.SYSTEM>
0

>  <SCORE.SYSTEM.CONST>
0

>  <SCORE.SYSTEM.DIHEDRAL>
0

>  <SCORE.SYSTEM.SOLV>
0

>  <SCORE.SYSTEM.norm>
0

>  <SCORE.heavy>
27

>  <SCORE.norm>
-0.464936

>  <RMSD>
1.127

$$$$
ligand
 OpenBabel02271912153D
libRbt.so/2013.1/901 2013/11/27
 27 29  0  0  0  0  0  0  0  0999 V2000
   45.1361  -27.2516 -103.7884 N   0  0  0  0  0  0  0  0  0  0  0  0
   45.8830  -26.0019 -103.9707 C   0  0  2  0  0  0  0  0  0  0  0  0
   46.3647  -25.9055 -105.4029 C   0  0  0  0  0  0  0  0  0  0  0  0
   47.5029  -25.5330 -105.6446 O   0  0  0  0  0  0  0  0  0  0  0  0
   47.0966  -25.9343 -103.0336 C   0  0  0  0  0  0  0  0  0  0  0  0
   47.9637  -27.1767 -103.1805 C   0  0  0  0  0  0  0  0  0  0  0  0
   49.7136  -26.9003 -102.7065 S   0  0  2  0  0  0  0  0  0  0  0  0
   50.3998  -25.9448 -104.0978 C   0  0  0  0  0  0  0  0  0  0  0  0
   50.2844  -28.5320 -103.1762 C   0  0  0  0  0  0  0  0  0  0  0  0
   50.6765  -29.3964 -102.0075 C   0  0  1  0  0  0  0  0  0  0  0  0
   49.7256  -29.1706 -100.9531 O   0  0  0  0  0  0  0  0  0  0  0  0
   50.4257  -30.7597 -102.5135 C   0  0  1  0  0  0  0  0  0  0  0  0
   51.6470  -31.3290 -102.9825 O   0  0  0  0  0  0  0  0  0  0  0  0
   49.9643  -31.4805 -101.2848 C   0  0  1  0  0  0  0  0  0  0  0  0
   51.0939  -32.0056 -100.5571 O   0  0  0  0  0  0  0  0  0  0  0  0
   49.2227  -30.4202 -100.4167 C   0  0  2  0  0  0  0  0  0  0  0  0
   45.6339  -26.2296 -106.3226 O   0  0  0  0  0  0  0  0  0  0  0  0
   44.7646  -31.7525 -102.9757 N   0  0  0  0  0  0  0  0  0  0  0  0
   46.0378  -32.0818 -103.3049 C   0  0  0  0  0  0  0  0  0  0  0  0
   47.0869  -31.7118 -102.5411 N   0  0  0  0  0  0  0  0  0  0  0  0
   46.9087  -30.9235 -101.4686 C   0  0  0  0  0  0  0  0  0  0  0  0
   45.5735  -30.5146 -101.1046 C   0  0  0  0  0  0  0  0  0  0  0  0
   44.4879  -30.9742 -101.9081 C   0  0  0  0  0  0  0  0  0  0  0  0
   43.1850  -30.6291 -101.6114 N   0  0  0  0  0  0  0  0  0  0  0  0
   45.6760  -29.7410 -100.0175 N   0  0  0  0  0  0  0  0  0  0  0  0
   46.9300  -29.6330  -99.6930 C   0  0  0  0  0  0  0  0  0  0  0  0
   47.7381  -30.3468 -100.5468 N   0  0  0  0  0  0  0  0  0  0  0  0
  2  1  1  6  0  0  0
  2  3  1  0  0  0  0
  2  5  1  0  0  0  0
  3  4  1  0  0  0  0
  3 17  1  0  0  0  0
  5  6  1  0  0  0  0
  7  6  1  6  0  0  0
  7  8  1  0  0  0  0
  7  9  1  0  0  0  0
 10  9  1  6  0  0  0
 10 11  1  0  0  0  0
 10 12  1  0  0  0  0
 11 16  1  0  0  0  0
 12 13  1  1  0  0  0
 12 14  1  0  0  0  0
 14 15  1  1  0  0  0
 14 16  1  0  0  0  0
 16 27  1  6  0  0  0
 18 19  2  0  0  0  0
 18 23  1  0  0  0  0
 19 20  1  0  0  0  0
 20 21  2  0  0  0  0
 21 22  1  0  0  0  0
 21 27  1  0  0  0  0
 22 23  2  0  0  0  0
 22 25  1  0  0  0  0
 23 24  1  0  0  0  0
 25 26  2  0  0  0  0
 26 27  1  0  0  0  0
M  END
>  <CHROM.1>
-136.46500744,53.09065314,155.05204668,-74.69904553,-110.74856482,39.77421041
101.79255131,47.83991829,-29.04170446,-102.54035012,1.86138630,-0.08622159
-0.56398920

>  <Name>
ligand

>  <RI>
0

>  <Rbt.Current_Directory>
/home/itssahil/PROJECTS/Mol_Feturizer/Test_systems_manuscript/rnas/4l81

>  <Rbt.Executable>
rbdock ($Id: //depot/dev/client3/rdock/2013.1/src/exe/rbdock.cxx#4 $)

>  <Rbt.Library>
libRbt.so (2013.1, Build901 2013/11/27)

>  <Rbt.Parameter_File>
/export/apps/rDock/src/rDock_2013.1_src/data/scripts/dock_solv.prm

>  <Rbt.Receptor>
prm/pocket_docking_2.prm

>  <SCORE>
-14.5828

>  <SCORE.INTER>
-15.2252

>  <SCORE.INTER.CONST>
1

>  <SCORE.INTER.POLAR>
0

>  <SCORE.INTER.ROT>
7

>  <SCORE.INTER.SOLV>
17.4711

>  <SCORE.INTER.VDW>
-24.2405

>  <SCORE.INTER.norm>
-0.563897

>  <SCORE.INTRA>
0.597806

>  <SCORE.INTRA.DIHEDRAL>
2.15542

>  <SCORE.INTRA.DIHEDRAL.0>
8.34559

>  <SCORE.INTRA.POLAR>
0

>  <SCORE.INTRA.POLAR.0>
0

>  <SCORE.INTRA.REPUL>
0

>  <SCORE.INTRA.REPUL.0>
0

>  <SCORE.INTRA.SOLV>
-0.478578

>  <SCORE.INTRA.SOLV.lig_0>
-48.829

>  <SCORE.INTRA.VDW>
-0.240616

>  <SCORE.INTRA.VDW.0>
-1.77092

>  <SCORE.INTRA.norm>
0.022141

>  <SCORE.RESTR>
0.0446464

>  <SCORE.RESTR.CAVITY>
0.0446464

>  <SCORE.RESTR.norm>
0.00165357

>  <SCORE.SYSTEM>
0

>  <SCORE.SYSTEM.CONST>
0

>  <SCORE.SYSTEM.DIHEDRAL>
0

>  <SCORE.SYSTEM.SOLV>
0

>  <SCORE.SYSTEM.norm>
0

>  <SCORE.heavy>
27

>  <SCORE.norm>
-0.540102

>  <RMSD>
1.152

$$$$
ligand
 OpenBabel02271912153D
libRbt.so/2013.1/901 2013/11/27
 27 29  0  0  0  0  0  0  0  0999 V2000
   45.9267  -25.7045 -105.2987 N   0  0  0  0  0  0  0  0  0  0  0  0
   46.3630  -26.6319 -104.2488 C   0  0  2  0  0  0  0  0  0  0  0  0
   45.1616  -27.0929 -103.4507 C   0  0  0  0  0  0  0  0  0  0  0  0
   44.0413  -26.7067 -103.7482 O   0  0  0  0  0  0  0  0  0  0  0  0
   47.3653  -25.9661 -103.2962 C   0  0  0  0  0  0  0  0  0  0  0  0
   48.2302  -27.0103 -102.6044 C   0  0  0  0  0  0  0  0  0  0  0  0
   50.0026  -26.9039 -103.0634 S   0  0  2  0  0  0  0  0  0  0  0  0
   49.9745  -26.3459 -104.7976 C   0  0  0  0  0  0  0  0  0  0  0  0
   50.2210  -28.6609 -103.3360 C   0  0  0  0  0  0  0  0  0  0  0  0
   50.6134  -29.4220 -102.0976 C   0  0  1  0  0  0  0  0  0  0  0  0
   49.6564  -29.1154 -101.0695 O   0  0  0  0  0  0  0  0  0  0  0  0
   50.3737  -30.8245 -102.4889 C   0  0  1  0  0  0  0  0  0  0  0  0
   51.6007  -31.4225 -102.9038 O   0  0  0  0  0  0  0  0  0  0  0  0
   49.9115  -31.4432 -101.2061 C   0  0  1  0  0  0  0  0  0  0  0  0
   51.0412  -31.8979 -100.4326 O   0  0  0  0  0  0  0  0  0  0  0  0
   49.1591  -30.3191 -100.4325 C   0  0  2  0  0  0  0  0  0  0  0  0
   45.2981  -27.8772 -102.5281 O   0  0  0  0  0  0  0  0  0  0  0  0
   44.7335  -31.7818 -102.9767 N   0  0  0  0  0  0  0  0  0  0  0  0
   46.0125  -32.1064 -103.2876 C   0  0  0  0  0  0  0  0  0  0  0  0
   47.0523  -31.7008 -102.5291 N   0  0  0  0  0  0  0  0  0  0  0  0
   46.8581  -30.8817 -101.4827 C   0  0  0  0  0  0  0  0  0  0  0  0
   45.5159  -30.4771 -101.1400 C   0  0  0  0  0  0  0  0  0  0  0  0
   44.4410  -30.9740 -101.9356 C   0  0  0  0  0  0  0  0  0  0  0  0
   43.1323  -30.6350 -101.6579 N   0  0  0  0  0  0  0  0  0  0  0  0
   45.6024  -29.6690 -100.0769 N   0  0  0  0  0  0  0  0  0  0  0  0
   46.8529  -29.5365  -99.7480 C   0  0  0  0  0  0  0  0  0  0  0  0
   47.6747  -30.2671 -100.5742 N   0  0  0  0  0  0  0  0  0  0  0  0
  2  1  1  6  0  0  0
  2  3  1  0  0  0  0
  2  5  1  0  0  0  0
  3  4  1  0  0  0  0
  3 17  1  0  0  0  0
  5  6  1  0  0  0  0
  7  6  1  6  0  0  0
  7  8  1  0  0  0  0
  7  9  1  0  0  0  0
 10  9  1  6  0  0  0
 10 11  1  0  0  0  0
 10 12  1  0  0  0  0
 11 16  1  0  0  0  0
 12 13  1  1  0  0  0
 12 14  1  0  0  0  0
 14 15  1  1  0  0  0
 14 16  1  0  0  0  0
 16 27  1  6  0  0  0
 18 19  2  0  0  0  0
 18 23  1  0  0  0  0
 19 20  1  0  0  0  0
 20 21  2  0  0  0  0
 21 22  1  0  0  0  0
 21 27  1  0  0  0  0
 22 23  2  0  0  0  0
 22 25  1  0  0  0  0
 23 24  1  0  0  0  0
 25 26  2  0  0  0  0
 26 27  1  0  0  0  0
M  END
>  <CHROM.1>
1.46250025,-156.49992022,114.82004803,-33.08430729,-88.54567536,53.14149233
98.76414531,47.68423117,-29.16123321,-102.36569919,-2.70657071,0.01470648
2.65676976

>  <Name>
ligand

>  <RI>
0

>  <Rbt.Current_Directory>
/home/itssahil/PROJECTS/Mol_Feturizer/Test_systems_manuscript/rnas/4l81

>  <Rbt.Executable>
rbdock ($Id: //depot/dev/client3/rdock/2013.1/src/exe/rbdock.cxx#4 $)

>  <Rbt.Library>
libRbt.so (2013.1, Build901 2013/11/27)

>  <Rbt.Parameter_File>
/export/apps/rDock/src/rDock_2013.1_src/data/scripts/dock_solv.prm

>  <Rbt.Receptor>
prm/pocket_docking_2.prm

>  <SCORE>
-15.792

>  <SCORE.INTER>
-17.6654

>  <SCORE.INTER.CONST>
1

>  <SCORE.INTER.POLAR>
0

>  <SCORE.INTER.ROT>
7

>  <SCORE.INTER.SOLV>
16.9482

>  <SCORE.INTER.VDW>
-25.693

>  <SCORE.INTER.norm>
-0.654276

>  <SCORE.INTRA>
1.86657

>  <SCORE.INTRA.DIHEDRAL>
6.45823

>  <SCORE.INTRA.DIHEDRAL.0>
8.34559

>  <SCORE.INTRA.POLAR>
0

>  <SCORE.INTRA.POLAR.0>
0

>  <SCORE.INTRA.REPUL>
0

>  <SCORE.INTRA.REPUL.0>
0

>  <SCORE.INTRA.SOLV>
-0.259221

>  <SCORE.INTRA.SOLV.lig_0>
-48.829

>  <SCORE.INTRA.VDW>
-1.23294

>  <SCORE.INTRA.VDW.0>
-1.77092

>  <SCORE.INTRA.norm>
0.0691322

>  <SCORE.RESTR>
0.00686819

>  <SCORE.RESTR.CAVITY>
0.00686819

>  <SCORE.RESTR.norm>
0.000254377

>  <SCORE.SYSTEM>
0

>  <SCORE.SYSTEM.CONST>
0

>  <SCORE.SYSTEM.DIHEDRAL>
0

>  <SCORE.SYSTEM.SOLV>
0

>  <SCORE.SYSTEM.norm>
0

>  <SCORE.heavy>
27

>  <SCORE.norm>
-0.584889

>  <RMSD>
1.166

$$$$
ligand
 OpenBabel02271912153D
libRbt.so/2013.1/901 2013/11/27
 27 29  0  0  0  0  0  0  0  0999 V2000
   46.0828  -27.5245 -106.0954 N   0  0  0  0  0  0  0  0  0  0  0  0
   45.6028  -27.7629 -104.7296 C   0  0  2  0  0  0  0  0  0  0  0  0
   44.7385  -26.6008 -104.2877 C   0  0  0  0  0  0  0  0  0  0  0  0
   44.3178  -26.5488 -103.1418 O   0  0  0  0  0  0  0  0  0  0  0  0
   46.7705  -27.9150 -103.7453 C   0  0  0  0  0  0  0  0  0  0  0  0
   47.7624  -26.7711 -103.9015 C   0  0  0  0  0  0  0  0  0  0  0  0
   49.0757  -26.7696 -102.6213 S   0  0  2  0  0  0  0  0  0  0  0  0
   50.3320  -25.6276 -103.2823 C   0  0  0  0  0  0  0  0  0  0  0  0
   49.8143  -28.3225 -103.1232 C   0  0  0  0  0  0  0  0  0  0  0  0
   50.3371  -29.1439 -101.9748 C   0  0  1  0  0  0  0  0  0  0  0  0
   49.3938  -29.0428 -100.8945 O   0  0  0  0  0  0  0  0  0  0  0  0
   50.2380  -30.5230 -102.4904 C   0  0  1  0  0  0  0  0  0  0  0  0
   51.5060  -30.9377 -102.9961 O   0  0  0  0  0  0  0  0  0  0  0  0
   49.8983  -31.3045 -101.2592 C   0  0  1  0  0  0  0  0  0  0  0  0
   51.1011  -31.6967 -100.5659 O   0  0  0  0  0  0  0  0  0  0  0  0
   49.0580  -30.3482 -100.3605 C   0  0  2  0  0  0  0  0  0  0  0  0
   44.4835  -25.6933 -105.0599 O   0  0  0  0  0  0  0  0  0  0  0  0
   44.7135  -31.8065 -103.0432 N   0  0  0  0  0  0  0  0  0  0  0  0
   46.0049  -31.9024 -103.4443 C   0  0  0  0  0  0  0  0  0  0  0  0
   47.0262  -31.5317 -102.6441 N   0  0  0  0  0  0  0  0  0  0  0  0
   46.7894  -30.9685 -101.4481 C   0  0  0  0  0  0  0  0  0  0  0  0
   45.4276  -30.8091 -100.9980 C   0  0  0  0  0  0  0  0  0  0  0  0
   44.3802  -31.2655 -101.8523 C   0  0  0  0  0  0  0  0  0  0  0  0
   43.0560  -31.1527 -101.4800 N   0  0  0  0  0  0  0  0  0  0  0  0
   45.4713  -30.2255  -99.7945 N   0  0  0  0  0  0  0  0  0  0  0  0
   46.7125  -30.0084  -99.4756 C   0  0  0  0  0  0  0  0  0  0  0  0
   47.5724  -30.4522 -100.4530 N   0  0  0  0  0  0  0  0  0  0  0  0
  2  1  1  6  0  0  0
  2  3  1  0  0  0  0
  2  5  1  0  0  0  0
  3  4  1  0  0  0  0
  3 17  1  0  0  0  0
  5  6  1  0  0  0  0
  7  6  1  6  0  0  0
  7  8  1  0  0  0  0
  7  9  1  0  0  0  0
 10  9  1  6  0  0  0
 10 11  1  0  0  0  0
 10 12  1  0  0  0  0
 11 16  1  0  0  0  0
 12 13  1  1  0  0  0
 12 14  1  0  0  0  0
 14 15  1  1  0  0  0
 14 16  1  0  0  0  0
 16 27  1  6  0  0  0
 18 19  2  0  0  0  0
 18 23  1  0  0  0  0
 19 20  1  0  0  0  0
 20 21  2  0  0  0  0
 21 22  1  0  0  0  0
 21 27  1  0  0  0  0
 22 23  2  0  0  0  0
 22 25  1  0  0  0  0
 23 24  1  0  0  0  0
 25 26  2  0  0  0  0
 26 27  1  0  0  0  0
M  END
>  <CHROM.1>
-174.45998718,49.92965684,172.85821708,165.33807995,-144.41333022,40.19832935
92.41191167,47.46050578,-29.17973448,-102.44690756,-2.46716825,0.12849402
2.58876385

>  <Name>
ligand

>  <RI>
0

>  <Rbt.Current_Directory>
/home/itssahil/PROJECTS/Mol_Feturizer/Test_systems_manuscript/rnas/4l81

>  <Rbt.Executable>
rbdock ($Id: //depot/dev/client3/rdock/2013.1/src/exe/rbdock.cxx#4 $)

>  <Rbt.Library>
libRbt.so (2013.1, Build901 2013/11/27)

>  <Rbt.Parameter_File>
/export/apps/rDock/src/rDock_2013.1_src/data/scripts/dock_solv.prm

>  <Rbt.Receptor>
prm/pocket_docking_2.prm

>  <SCORE>
-17.5775

>  <SCORE.INTER>
-16.6491

>  <SCORE.INTER.CONST>
1

>  <SCORE.INTER.POLAR>
0

>  <SCORE.INTER.ROT>
7

>  <SCORE.INTER.SOLV>
16.7858

>  <SCORE.INTER.VDW>
-24.9613

>  <SCORE.INTER.norm>
-0.616634

>  <SCORE.INTRA>
-0.933037

>  <SCORE.INTRA.DIHEDRAL>
0.402628

>  <SCORE.INTRA.DIHEDRAL.0>
8.34559

>  <SCORE.INTRA.POLAR>
0

>  <SCORE.INTRA.POLAR.0>
0

>  <SCORE.INTRA.REPUL>
0

>  <SCORE.INTRA.REPUL.0>
0

>  <SCORE.INTRA.SOLV>
-0.433339

>  <SCORE.INTRA.SOLV.lig_0>
-48.829

>  <SCORE.INTRA.VDW>
-0.917682

>  <SCORE.INTRA.VDW.0>
-1.77092

>  <SCORE.INTRA.norm>
-0.0345569

>  <SCORE.RESTR>
0.00463485

>  <SCORE.RESTR.CAVITY>
0.00463485

>  <SCORE.RESTR.norm>
0.000171661

>  <SCORE.SYSTEM>
0

>  <SCORE.SYSTEM.CONST>
0

>  <SCORE.SYSTEM.DIHEDRAL>
0

>  <SCORE.SYSTEM.SOLV>
0

>  <SCORE.SYSTEM.norm>
0

>  <SCORE.heavy>
27

>  <SCORE.norm>
-0.651019

>  <RMSD>
1.178

$$$$
ligand
 OpenBabel02271912153D
libRbt.so/2013.1/901 2013/11/27
 27 29  0  0  0  0  0  0  0  0999 V2000
   46.2375  -25.1612 -105.1375 N   0  0  0  0  0  0  0  0  0  0  0  0
   46.2454  -26.6135 -104.9287 C   0  0  2  0  0  0  0  0  0  0  0  0
   45.2346  -26.9759 -103.8611 C   0  0  0  0  0  0  0  0  0  0  0  0
   44.6217  -28.0307 -103.9279 O   0  0  0  0  0  0  0  0  0  0  0  0
   47.6302  -27.1075 -104.4886 C   0  0  0  0  0  0  0  0  0  0  0  0
   47.9620  -26.6116 -103.0883 C   0  0  0  0  0  0  0  0  0  0  0  0
   49.7600  -26.6076 -102.7270 S   0  0  2  0  0  0  0  0  0  0  0  0
   50.4989  -25.8013 -104.1842 C   0  0  0  0  0  0  0  0  0  0  0  0
   50.0359  -28.3183 -103.1811 C   0  0  0  0  0  0  0  0  0  0  0  0
   50.4953  -29.1823 -102.0368 C   0  0  1  0  0  0  0  0  0  0  0  0
   49.5224  -29.0741 -100.9839 O   0  0  0  0  0  0  0  0  0  0  0  0
   50.3673  -30.5454 -102.5876 C   0  0  1  0  0  0  0  0  0  0  0  0
   51.6362  -30.9908 -103.0638 O   0  0  0  0  0  0  0  0  0  0  0  0
   49.9636  -31.3426 -101.3861 C   0  0  1  0  0  0  0  0  0  0  0  0
   51.1306  -31.7904 -100.6656 O   0  0  0  0  0  0  0  0  0  0  0  0
   49.1273  -30.3792 -100.4913 C   0  0  2  0  0  0  0  0  0  0  0  0
   45.0485  -26.2356 -102.9112 O   0  0  0  0  0  0  0  0  0  0  0  0
   44.8139  -32.1191 -103.0535 N   0  0  0  0  0  0  0  0  0  0  0  0
   46.1124  -32.3474 -103.3693 C   0  0  0  0  0  0  0  0  0  0  0  0
   47.1216  -31.8790 -102.6057 N   0  0  0  0  0  0  0  0  0  0  0  0
   46.8708  -31.0901 -101.5482 C   0  0  0  0  0  0  0  0  0  0  0  0
   45.5037  -30.7870 -101.1995 C   0  0  0  0  0  0  0  0  0  0  0  0
   44.4659  -31.3484 -102.0013 C   0  0  0  0  0  0  0  0  0  0  0  0
   43.1367  -31.1075 -101.7185 N   0  0  0  0  0  0  0  0  0  0  0  0
   45.5338  -29.9894 -100.1254 N   0  0  0  0  0  0  0  0  0  0  0  0
   46.7721  -29.7725  -99.7953 C   0  0  0  0  0  0  0  0  0  0  0  0
   47.6428  -30.4312 -100.6316 N   0  0  0  0  0  0  0  0  0  0  0  0
  2  1  1  1  0  0  0
  2  3  1  0  0  0  0
  2  5  1  0  0  0  0
  3  4  1  0  0  0  0
  3 17  1  0  0  0  0
  5  6  1  0  0  0  0
  7  6  1  6  0  0  0
  7  8  1  0  0  0  0
  7  9  1  0  0  0  0
 10  9  1  6  0  0  0
 10 11  1  0  0  0  0
 10 12  1  0  0  0  0
 11 16  1  0  0  0  0
 12 13  1  1  0  0  0
 12 14  1  0  0  0  0
 14 15  1  1  0  0  0
 14 16  1  0  0  0  0
 16 27  1  6  0  0  0
 18 19  2  0  0  0  0
 18 23  1  0  0  0  0
 19 20  1  0  0  0  0
 20 21  2  0  0  0  0
 21 22  1  0  0  0  0
 21 27  1  0  0  0  0
 22 23  2  0  0  0  0
 22 25  1  0  0  0  0
 23 24  1  0  0  0  0
 25 26  2  0  0  0  0
 26 27  1  0  0  0  0
M  END
>  <CHROM.1>
146.10316009,68.44085105,-158.69817779,47.81355594,-116.58925564,56.15067839
104.60855370,47.70020972,-29.14610034,-102.46483581,1.15997055,-0.08827205
-0.45580984

>  <Name>
ligand

>  <RI>
0

>  <Rbt.Current_Directory>
/home/itssahil/PROJECTS/Mol_Feturizer/Test_systems_manuscript/rnas/4l81

>  <Rbt.Executable>
rbdock ($Id: //depot/dev/client3/rdock/2013.1/src/exe/rbdock.cxx#4 $)

>  <Rbt.Library>
libRbt.so (2013.1, Build901 2013/11/27)

>  <Rbt.Parameter_File>
/export/apps/rDock/src/rDock_2013.1_src/data/scripts/dock_solv.prm

>  <Rbt.Receptor>
prm/pocket_docking_3.prm

>  <SCORE>
-15.0096

>  <SCORE.INTER>
-15.857

>  <SCORE.INTER.CONST>
1

>  <SCORE.INTER.POLAR>
0

>  <SCORE.INTER.ROT>
7

>  <SCORE.INTER.SOLV>
16.9645

>  <SCORE.INTER.VDW>
-24.4929

>  <SCORE.INTER.norm>
-0.587298

>  <SCORE.INTRA>
0.847477

>  <SCORE.INTRA.DIHEDRAL>
0.82888

>  <SCORE.INTRA.DIHEDRAL.0>
8.34559

>  <SCORE.INTRA.POLAR>
0

>  <SCORE.INTRA.POLAR.0>
0

>  <SCORE.INTRA.REPUL>
0

>  <SCORE.INTRA.REPUL.0>
0

>  <SCORE.INTRA.SOLV>
-0.309159

>  <SCORE.INTRA.SOLV.lig_0>
-48.829

>  <SCORE.INTRA.VDW>
0.587617

>  <SCORE.INTRA.VDW.0>
-1.77092

>  <SCORE.INTRA.norm>
0.031388

>  <SCORE.RESTR>
0

>  <SCORE.RESTR.CAVITY>
0

>  <SCORE.RESTR.norm>
0

>  <SCORE.SYSTEM>
0

>  <SCORE.SYSTEM.CONST>
0

>  <SCORE.SYSTEM.DIHEDRAL>
0

>  <SCORE.SYSTEM.SOLV>
0

>  <SCORE.SYSTEM.norm>
0

>  <SCORE.heavy>
27

>  <SCORE.norm>
-0.55591

>  <RMSD>
1.185

$$$$
ligand
 OpenBabel02271912153D
libRbt.so/2013.1/901 2013/11/27
 27 29  0  0  0  0  0  0  0  0999 V2000
   45.0841  -26.2832 -104.8916 N   0  0  0  0  0  0  0  0  0  0  0  0
   45.6976  -27.6071 -104.7378 C   0  0  2  0  0  0  0  0  0  0  0  0
   44.6266  -28.6248 -104.4061 C   0  0  0  0  0  0  0  0  0  0  0  0
   44.3662  -29.5217 -105.1937 O   0  0  0  0  0  0  0  0  0  0  0  0
   46.7480  -27.6099 -103.6189 C   0  0  0  0  0  0  0  0  0  0  0  0
   47.9153  -26.6983 -103.9700 C   0  0  0  0  0  0  0  0  0  0  0  0
   49.2620  -26.7318 -102.7255 S   0  0  2  0  0  0  0  0  0  0  0  0
   50.5987  -25.7651 -103.4988 C   0  0  0  0  0  0  0  0  0  0  0  0
   49.8358  -28.3800 -103.1295 C   0  0  0  0  0  0  0  0  0  0  0  0
   50.3191  -29.1624 -101.9374 C   0  0  1  0  0  0  0  0  0  0  0  0
   49.3523  -29.0052 -100.8850 O   0  0  0  0  0  0  0  0  0  0  0  0
   50.2114  -30.5593 -102.4006 C   0  0  1  0  0  0  0  0  0  0  0  0
   51.4846  -31.0116 -102.8589 O   0  0  0  0  0  0  0  0  0  0  0  0
   49.8311  -31.2865 -101.1481 C   0  0  1  0  0  0  0  0  0  0  0  0
   51.0112  -31.6678 -100.4111 O   0  0  0  0  0  0  0  0  0  0  0  0
   48.9844  -30.2836 -100.3083 C   0  0  2  0  0  0  0  0  0  0  0  0
   44.0401  -28.5774 -103.3390 O   0  0  0  0  0  0  0  0  0  0  0  0
   44.6830  -31.8023 -103.0267 N   0  0  0  0  0  0  0  0  0  0  0  0
   45.9820  -31.9355 -103.3910 C   0  0  0  0  0  0  0  0  0  0  0  0
   46.9895  -31.5427 -102.5839 N   0  0  0  0  0  0  0  0  0  0  0  0
   46.7330  -30.9210 -101.4215 C   0  0  0  0  0  0  0  0  0  0  0  0
   45.3635  -30.7210 -101.0129 C   0  0  0  0  0  0  0  0  0  0  0  0
   44.3298  -31.2015 -101.8707 C   0  0  0  0  0  0  0  0  0  0  0  0
   42.9990  -31.0523 -101.5366 N   0  0  0  0  0  0  0  0  0  0  0  0
   45.3876  -30.0826  -99.8370 N   0  0  0  0  0  0  0  0  0  0  0  0
   46.6240  -29.8688  -99.4980 C   0  0  0  0  0  0  0  0  0  0  0  0
   47.5000  -30.3702 -100.4324 N   0  0  0  0  0  0  0  0  0  0  0  0
  2  1  1  1  0  0  0
  2  3  1  0  0  0  0
  2  5  1  0  0  0  0
  3  4  1  0  0  0  0
  3 17  1  0  0  0  0
  5  6  1  0  0  0  0
  7  6  1  6  0  0  0
  7  8  1  0  0  0  0
  7  9  1  0  0  0  0
 10  9  1  6  0  0  0
 10 11  1  0  0  0  0
 10 12  1  0  0  0  0
 11 16  1  0  0  0  0
 12 13  1  1  0  0  0
 12 14  1  0  0  0  0
 14 15  1  1  0  0  0
 14 16  1  0  0  0  0
 16 27  1  6  0  0  0
 18 19  2  0  0  0  0
 18 23  1  0  0  0  0
 19 20  1  0  0  0  0
 20 21  2  0  0  0  0
 21 22  1  0  0  0  0
 21 27  1  0  0  0  0
 22 23  2  0  0  0  0
 22 25  1  0  0  0  0
 23 24  1  0  0  0  0
 25 26  2  0  0  0  0
 26 27  1  0  0  0  0
M  END
>  <CHROM.1>
114.50417732,-64.59709590,-176.37102241,172.15649595,-144.61056780,46.06037047
92.81304029,47.40803117,-29.40153709,-102.41351034,-3.11091478,0.20936642
2.54219634

>  <Name>
ligand

>  <RI>
0

>  <Rbt.Current_Directory>
/home/itssahil/PROJECTS/Mol_Feturizer/Test_systems_manuscript/rnas/4l81

>  <Rbt.Executable>
rbdock ($Id: //depot/dev/client3/rdock/2013.1/src/exe/rbdock.cxx#4 $)

>  <Rbt.Library>
libRbt.so (2013.1, Build901 2013/11/27)

>  <Rbt.Parameter_File>
/export/apps/rDock/src/rDock_2013.1_src/data/scripts/dock_solv.prm

>  <Rbt.Receptor>
prm/pocket_docking_3.prm

>  <SCORE>
-18.512

>  <SCORE.INTER>
-15.1405

>  <SCORE.INTER.CONST>
1

>  <SCORE.INTER.POLAR>
0

>  <SCORE.INTER.ROT>
7

>  <SCORE.INTER.SOLV>
18.2798

>  <SCORE.INTER.VDW>
-24.4536

>  <SCORE.INTER.norm>
-0.56076

>  <SCORE.INTRA>
-3.37152

>  <SCORE.INTRA.DIHEDRAL>
-0.709473

>  <SCORE.INTRA.DIHEDRAL.0>
8.34559

>  <SCORE.INTRA.POLAR>
0

>  <SCORE.INTRA.POLAR.0>
0

>  <SCORE.INTRA.REPUL>
0

>  <SCORE.INTRA.REPUL.0>
0

>  <SCORE.INTRA.SOLV>
0.1146

>  <SCORE.INTRA.SOLV.lig_0>
-48.829

>  <SCORE.INTRA.VDW>
-3.07408

>  <SCORE.INTRA.VDW.0>
-1.77092

>  <SCORE.INTRA.norm>
-0.124871

>  <SCORE.RESTR>
0

>  <SCORE.RESTR.CAVITY>
0

>  <SCORE.RESTR.norm>
0

>  <SCORE.SYSTEM>
0

>  <SCORE.SYSTEM.CONST>
0

>  <SCORE.SYSTEM.DIHEDRAL>
0

>  <SCORE.SYSTEM.SOLV>
0

>  <SCORE.SYSTEM.norm>
0

>  <SCORE.heavy>
27

>  <SCORE.norm>
-0.685631

>  <RMSD>
1.188

$$$$
ligand
 OpenBabel02271912153D
libRbt.so/2013.1/901 2013/11/27
 27 29  0  0  0  0  0  0  0  0999 V2000
   45.6976  -24.4230 -106.0895 N   0  0  0  0  0  0  0  0  0  0  0  0
   46.0853  -25.7434 -105.5805 C   0  0  2  0  0  0  0  0  0  0  0  0
   44.8511  -26.4888 -105.1180 C   0  0  0  0  0  0  0  0  0  0  0  0
   43.7389  -26.0812 -105.4172 O   0  0  0  0  0  0  0  0  0  0  0  0
   47.0626  -25.6238 -104.4033 C   0  0  0  0  0  0  0  0  0  0  0  0
   47.8359  -26.9202 -104.2079 C   0  0  0  0  0  0  0  0  0  0  0  0
   49.0651  -26.8342 -102.8496 S   0  0  2  0  0  0  0  0  0  0  0  0
   50.3717  -25.7484 -103.5078 C   0  0  0  0  0  0  0  0  0  0  0  0
   49.8192  -28.4226 -103.1920 C   0  0  0  0  0  0  0  0  0  0  0  0
   50.2957  -29.1452 -101.9601 C   0  0  1  0  0  0  0  0  0  0  0  0
   49.3158  -28.9488 -100.9266 O   0  0  0  0  0  0  0  0  0  0  0  0
   50.2052  -30.5628 -102.3599 C   0  0  1  0  0  0  0  0  0  0  0  0
   51.4872  -31.0241 -102.7831 O   0  0  0  0  0  0  0  0  0  0  0  0
   49.8170  -31.2353 -101.0796 C   0  0  1  0  0  0  0  0  0  0  0  0
   50.9920  -31.5718 -100.3131 O   0  0  0  0  0  0  0  0  0  0  0  0
   48.9524  -30.2027 -100.2959 C   0  0  2  0  0  0  0  0  0  0  0  0
   44.9573  -27.5174 -104.4733 O   0  0  0  0  0  0  0  0  0  0  0  0
   44.6938  -31.8161 -103.0270 N   0  0  0  0  0  0  0  0  0  0  0  0
   45.9975  -31.9406 -103.3773 C   0  0  0  0  0  0  0  0  0  0  0  0
   46.9930  -31.5227 -102.5678 N   0  0  0  0  0  0  0  0  0  0  0  0
   46.7188  -30.8844 -101.4185 C   0  0  0  0  0  0  0  0  0  0  0  0
   45.3434  -30.6932 -101.0258 C   0  0  0  0  0  0  0  0  0  0  0  0
   44.3231  -31.1999 -101.8847 C   0  0  0  0  0  0  0  0  0  0  0  0
   42.9877  -31.0602 -101.5653 N   0  0  0  0  0  0  0  0  0  0  0  0
   45.3493  -30.0348  -99.8608 N   0  0  0  0  0  0  0  0  0  0  0  0
   46.5801  -29.8013  -99.5142 C   0  0  0  0  0  0  0  0  0  0  0  0
   47.4703  -30.3083 -100.4319 N   0  0  0  0  0  0  0  0  0  0  0  0
  2  1  1  1  0  0  0
  2  3  1  0  0  0  0
  2  5  1  0  0  0  0
  3  4  1  0  0  0  0
  3 17  1  0  0  0  0
  5  6  1  0  0  0  0
  7  6  1  6  0  0  0
  7  8  1  0  0  0  0
  7  9  1  0  0  0  0
 10  9  1  6  0  0  0
 10 11  1  0  0  0  0
 10 12  1  0  0  0  0
 11 16  1  0  0  0  0
 12 13  1  1  0  0  0
 12 14  1  0  0  0  0
 14 15  1  1  0  0  0
 14 16  1  0  0  0  0
 16 27  1  6  0  0  0
 18 19  2  0  0  0  0
 18 23  1  0  0  0  0
 19 20  1  0  0  0  0
 20 21  2  0  0  0  0
 21 22  1  0  0  0  0
 21 27  1  0  0  0  0
 22 23  2  0  0  0  0
 22 25  1  0  0  0  0
 23 24  1  0  0  0  0
 25 26  2  0  0  0  0
 26 27  1  0  0  0  0
M  END
>  <CHROM.1>
13.12070864,-159.57590309,178.13554789,-71.35330329,-146.06605769,39.83994885
91.14630087,47.43555105,-28.94994291,-102.60505578,-2.04252332,0.15449469
2.54882716

>  <Name>
ligand

>  <RI>
0

>  <Rbt.Current_Directory>
/home/itssahil/PROJECTS/Mol_Feturizer/Test_systems_manuscript/rnas/4l81

>  <Rbt.Executable>
rbdock ($Id: //depot/dev/client3/rdock/2013.1/src/exe/rbdock.cxx#4 $)

>  <Rbt.Library>
libRbt.so (2013.1, Build901 2013/11/27)

>  <Rbt.Parameter_File>
/export/apps/rDock/src/rDock_2013.1_src/data/scripts/dock_solv.prm

>  <Rbt.Receptor>
prm/pocket_docking_3.prm

>  <SCORE>
-16.6617

>  <SCORE.INTER>
-16.0608

>  <SCORE.INTER.CONST>
1

>  <SCORE.INTER.POLAR>
0

>  <SCORE.INTER.ROT>
7

>  <SCORE.INTER.SOLV>
20.2547

>  <SCORE.INTER.VDW>
-25.7254

>  <SCORE.INTER.norm>
-0.594844

>  <SCORE.INTRA>
-0.600876

>  <SCORE.INTRA.DIHEDRAL>
1.10714

>  <SCORE.INTRA.DIHEDRAL.0>
8.34559

>  <SCORE.INTRA.POLAR>
0

>  <SCORE.INTRA.POLAR.0>
0

>  <SCORE.INTRA.REPUL>
0

>  <SCORE.INTRA.REPUL.0>
0

>  <SCORE.INTRA.SOLV>
-1.23264

>  <SCORE.INTRA.SOLV.lig_0>
-48.829

>  <SCORE.INTRA.VDW>
-0.538124

>  <SCORE.INTRA.VDW.0>
-1.77092

>  <SCORE.INTRA.norm>
-0.0222547

>  <SCORE.RESTR>
0

>  <SCORE.RESTR.CAVITY>
0

>  <SCORE.RESTR.norm>
0

>  <SCORE.SYSTEM>
0

>  <SCORE.SYSTEM.CONST>
0

>  <SCORE.SYSTEM.DIHEDRAL>
0

>  <SCORE.SYSTEM.SOLV>
0

>  <SCORE.SYSTEM.norm>
0

>  <SCORE.heavy>
27

>  <SCORE.norm>
-0.617098

>  <RMSD>
1.191

$$$$
ligand
 OpenBabel02271912153D
libRbt.so/2013.1/901 2013/11/27
 27 29  0  0  0  0  0  0  0  0999 V2000
   46.6880  -24.8169 -103.9259 N   0  0  0  0  0  0  0  0  0  0  0  0
   45.9055  -25.3623 -105.0407 C   0  0  2  0  0  0  0  0  0  0  0  0
   44.8674  -26.3260 -104.5056 C   0  0  0  0  0  0  0  0  0  0  0  0
   43.8152  -26.4906 -105.1044 O   0  0  0  0  0  0  0  0  0  0  0  0
   46.8012  -26.1040 -106.0422 C   0  0  0  0  0  0  0  0  0  0  0  0
   47.4977  -27.2822 -105.3762 C   0  0  0  0  0  0  0  0  0  0  0  0
   48.7416  -26.7779 -104.1265 S   0  0  2  0  0  0  0  0  0  0  0  0
   50.1448  -26.1771 -105.1213 C   0  0  0  0  0  0  0  0  0  0  0  0
   49.3289  -28.4348 -103.7822 C   0  0  0  0  0  0  0  0  0  0  0  0
   49.9218  -28.5939 -102.4074 C   0  0  1  0  0  0  0  0  0  0  0  0
   48.8937  -28.2991 -101.4467 O   0  0  0  0  0  0  0  0  0  0  0  0
   50.1677  -30.0467 -102.3261 C   0  0  1  0  0  0  0  0  0  0  0  0
   51.5326  -30.3198 -102.6388 O   0  0  0  0  0  0  0  0  0  0  0  0
   49.9061  -30.3381 -100.8808 C   0  0  1  0  0  0  0  0  0  0  0  0
   51.1044  -30.1360 -100.1032 O   0  0  0  0  0  0  0  0  0  0  0  0
   48.8071  -29.3295 -100.4303 C   0  0  2  0  0  0  0  0  0  0  0  0
   45.0862  -26.9688 -103.4937 O   0  0  0  0  0  0  0  0  0  0  0  0
   44.4489  -30.6387 -103.1671 N   0  0  0  0  0  0  0  0  0  0  0  0
   45.6248  -30.1742 -103.6562 C   0  0  0  0  0  0  0  0  0  0  0  0
   46.6766  -29.9171 -102.8508 N   0  0  0  0  0  0  0  0  0  0  0  0
   46.5620  -30.0304 -101.5176 C   0  0  0  0  0  0  0  0  0  0  0  0
   45.3145  -30.4825 -100.9503 C   0  0  0  0  0  0  0  0  0  0  0  0
   44.2459  -30.7962 -101.8419 C   0  0  0  0  0  0  0  0  0  0  0  0
   43.0293  -31.2431 -101.3677 N   0  0  0  0  0  0  0  0  0  0  0  0
   45.4648  -30.5013  -99.6207 N   0  0  0  0  0  0  0  0  0  0  0  0
   46.6657  -30.1007  -99.3261 C   0  0  0  0  0  0  0  0  0  0  0  0
   47.3924  -29.8031 -100.4552 N   0  0  0  0  0  0  0  0  0  0  0  0
  2  1  1  1  0  0  0
  2  3  1  0  0  0  0
  2  5  1  0  0  0  0
  3  4  1  0  0  0  0
  3 17  1  0  0  0  0
  5  6  1  0  0  0  0
  7  6  1  6  0  0  0
  7  8  1  0  0  0  0
  7  9  1  0  0  0  0
 10  9  1  6  0  0  0
 10 11  1  0  0  0  0
 10 12  1  0  0  0  0
 11 16  1  0  0  0  0
 12 13  1  1  0  0  0
 12 14  1  0  0  0  0
 14 15  1  1  0  0  0
 14 16  1  0  0  0  0
 16 27  1  6  0  0  0
 18 19  2  0  0  0  0
 18 23  1  0  0  0  0
 19 20  1  0  0  0  0
 20 21  2  0  0  0  0
 21 22  1  0  0  0  0
 21 27  1  0  0  0  0
 22 23  2  0  0  0  0
 22 25  1  0  0  0  0
 23 24  1  0  0  0  0
 25 26  2  0  0  0  0
 26 27  1  0  0  0  0
M  END
>  <CHROM.1>
151.19218549,61.27742038,-67.93966942,-74.57364180,-154.23209848,61.24305690
40.23805278,47.33888584,-28.58926312,-102.74766478,-1.91916147,0.07073489
2.37572577

>  <Name>
ligand

>  <RI>
0

>  <Rbt.Current_Directory>
/home/itssahil/PROJECTS/Mol_Feturizer/Test_systems_manuscript/rnas/4l81

>  <Rbt.Executable>
rbdock ($Id: //depot/dev/client3/rdock/2013.1/src/exe/rbdock.cxx#4 $)

>  <Rbt.Library>
libRbt.so (2013.1, Build901 2013/11/27)

>  <Rbt.Parameter_File>
/export/apps/rDock/src/rDock_2013.1_src/data/scripts/dock_solv.prm

>  <Rbt.Receptor>
prm/pocket_docking_4.prm

>  <SCORE>
-14.2396

>  <SCORE.INTER>
-11.9182

>  <SCORE.INTER.CONST>
1

>  <SCORE.INTER.POLAR>
0

>  <SCORE.INTER.ROT>
7

>  <SCORE.INTER.SOLV>
19.1463

>  <SCORE.INTER.VDW>
-22.5942

>  <SCORE.INTER.norm>
-0.441414

>  <SCORE.INTRA>
-2.32145

>  <SCORE.INTRA.DIHEDRAL>
-2.23803

>  <SCORE.INTRA.DIHEDRAL.0>
8.34559

>  <SCORE.INTRA.POLAR>
0

>  <SCORE.INTRA.POLAR.0>
0

>  <SCORE.INTRA.REPUL>
0

>  <SCORE.INTRA.REPUL.0>
0

>  <SCORE.INTRA.SOLV>
1.50171

>  <SCORE.INTRA.SOLV.lig_0>
-48.829

>  <SCORE.INTRA.VDW>
-1.95329

>  <SCORE.INTRA.VDW.0>
-1.77092

>  <SCORE.INTRA.norm>
-0.0859797

>  <SCORE.RESTR>
0

>  <SCORE.RESTR.CAVITY>
0

>  <SCORE.RESTR.norm>
0

>  <SCORE.SYSTEM>
0

>  <SCORE.SYSTEM.CONST>
0

>  <SCORE.SYSTEM.DIHEDRAL>
0

>  <SCORE.SYSTEM.SOLV>
0

>  <SCORE.SYSTEM.norm>
0

>  <SCORE.heavy>
27

>  <SCORE.norm>
-0.527394

>  <RMSD>
1.191

$$$$
ligand
 OpenBabel02271912153D
libRbt.so/2013.1/901 2013/11/27
 27 29  0  0  0  0  0  0  0  0999 V2000
   46.8035  -25.2849 -103.6771 N   0  0  0  0  0  0  0  0  0  0  0  0
   46.7839  -25.4591 -105.1338 C   0  0  2  0  0  0  0  0  0  0  0  0
   45.3592  -25.3551 -105.6360 C   0  0  0  0  0  0  0  0  0  0  0  0
   45.0915  -24.6247 -106.5781 O   0  0  0  0  0  0  0  0  0  0  0  0
   47.3549  -26.8242 -105.5412 C   0  0  0  0  0  0  0  0  0  0  0  0
   48.8350  -26.9161 -105.1979 C   0  0  0  0  0  0  0  0  0  0  0  0
   49.1533  -27.0916 -103.4003 S   0  0  2  0  0  0  0  0  0  0  0  0
   50.6585  -26.1033 -103.1224 C   0  0  0  0  0  0  0  0  0  0  0  0
   49.8992  -28.7166 -103.5101 C   0  0  0  0  0  0  0  0  0  0  0  0
   50.3953  -29.2458 -102.1908 C   0  0  1  0  0  0  0  0  0  0  0  0
   49.4164  -28.9217 -101.1890 O   0  0  0  0  0  0  0  0  0  0  0  0
   50.3309  -30.7076 -102.3825 C   0  0  1  0  0  0  0  0  0  0  0  0
   51.6199  -31.2006 -102.7445 O   0  0  0  0  0  0  0  0  0  0  0  0
   49.9617  -31.1966 -101.0162 C   0  0  1  0  0  0  0  0  0  0  0  0
   51.1465  -31.3974 -100.2179 O   0  0  0  0  0  0  0  0  0  0  0  0
   49.0805  -30.0787 -100.3824 C   0  0  2  0  0  0  0  0  0  0  0  0
   44.4757  -26.0226 -105.1273 O   0  0  0  0  0  0  0  0  0  0  0  0
   44.8287  -31.8903 -102.9975 N   0  0  0  0  0  0  0  0  0  0  0  0
   46.1299  -31.9872 -103.3654 C   0  0  0  0  0  0  0  0  0  0  0  0
   47.1253  -31.5182 -102.5843 N   0  0  0  0  0  0  0  0  0  0  0  0
   46.8505  -30.8558 -101.4489 C   0  0  0  0  0  0  0  0  0  0  0  0
   45.4764  -30.6931 -101.0392 C   0  0  0  0  0  0  0  0  0  0  0  0
   44.4581  -31.2529 -101.8668 C   0  0  0  0  0  0  0  0  0  0  0  0
   43.1243  -31.1427 -101.5296 N   0  0  0  0  0  0  0  0  0  0  0  0
   45.4813  -30.0021  -99.8932 N   0  0  0  0  0  0  0  0  0  0  0  0
   46.7100  -29.7236  -99.5735 C   0  0  0  0  0  0  0  0  0  0  0  0
   47.6002  -30.2306 -100.4912 N   0  0  0  0  0  0  0  0  0  0  0  0
  2  1  1  1  0  0  0
  2  3  1  0  0  0  0
  2  5  1  0  0  0  0
  3  4  1  0  0  0  0
  3 17  1  0  0  0  0
  5  6  1  0  0  0  0
  7  6  1  6  0  0  0
  7  8  1  0  0  0  0
  7  9  1  0  0  0  0
 10  9  1  6  0  0  0
 10 11  1  0  0  0  0
 10 12  1  0  0  0  0
 11 16  1  0  0  0  0
 12 13  1  1  0  0  0
 12 14  1  0  0  0  0
 14 15  1  1  0  0  0
 14 16  1  0  0  0  0
 16 27  1  6  0  0  0
 18 19  2  0  0  0  0
 18 23  1  0  0  0  0
 19 20  1  0  0  0  0
 20 21  2  0  0  0  0
 21 22  1  0  0  0  0
 21 27  1  0  0  0  0
 22 23  2  0  0  0  0
 22 25  1  0  0  0  0
 23 24  1  0  0  0  0
 25 26  2  0  0  0  0
 26 27  1  0  0  0  0
M  END
>  <CHROM.1>
130.54528274,-65.62327089,72.98580791,-142.75911799,177.19138258,41.33073778
84.46102799,47.69418125,-28.90693227,-102.73048194,-1.87567676,0.10035460
2.51880212

>  <Name>
ligand

>  <RI>
0

>  <Rbt.Current_Directory>
/home/itssahil/PROJECTS/Mol_Feturizer/Test_systems_manuscript/rnas/4l81

>  <Rbt.Executable>
rbdock ($Id: //depot/dev/client3/rdock/2013.1/src/exe/rbdock.cxx#4 $)

>  <Rbt.Library>
libRbt.so (2013.1, Build901 2013/11/27)

>  <Rbt.Parameter_File>
/export/apps/rDock/src/rDock_2013.1_src/data/scripts/dock_solv.prm

>  <Rbt.Receptor>
prm/pocket_docking_8.prm

>  <SCORE>
-16.2121

>  <SCORE.INTER>
-15.8129

>  <SCORE.INTER.CONST>
1

>  <SCORE.INTER.POLAR>
0

>  <SCORE.INTER.ROT>
7

>  <SCORE.INTER.SOLV>
17.8539

>  <SCORE.INTER.VDW>
-24.7599

>  <SCORE.INTER.norm>
-0.585662

>  <SCORE.INTRA>
-0.399218

>  <SCORE.INTRA.DIHEDRAL>
0.478733

>  <SCORE.INTRA.DIHEDRAL.0>
8.34559

>  <SCORE.INTRA.POLAR>
0

>  <SCORE.INTRA.POLAR.0>
0

>  <SCORE.INTRA.REPUL>
0

>  <SCORE.INTRA.REPUL.0>
0

>  <SCORE.INTRA.SOLV>
1.25484

>  <SCORE.INTRA.SOLV.lig_0>
-48.829

>  <SCORE.INTRA.VDW>
-1.266

>  <SCORE.INTRA.VDW.0>
-1.77092

>  <SCORE.INTRA.norm>
-0.0147858

>  <SCORE.RESTR>
0

>  <SCORE.RESTR.CAVITY>
0

>  <SCORE.RESTR.norm>
0

>  <SCORE.SYSTEM>
0

>  <SCORE.SYSTEM.CONST>
0

>  <SCORE.SYSTEM.DIHEDRAL>
0

>  <SCORE.SYSTEM.SOLV>
0

>  <SCORE.SYSTEM.norm>
0

>  <SCORE.heavy>
27

>  <SCORE.norm>
-0.600447

>  <RMSD>
1.207

$$$$
ligand
 OpenBabel02271912153D
libRbt.so/2013.1/901 2013/11/27
 27 29  0  0  0  0  0  0  0  0999 V2000
   45.6677  -27.6015 -106.3464 N   0  0  0  0  0  0  0  0  0  0  0  0
   45.9973  -27.1445 -104.9917 C   0  0  2  0  0  0  0  0  0  0  0  0
   44.7552  -26.5842 -104.3313 C   0  0  0  0  0  0  0  0  0  0  0  0
   44.7014  -26.4758 -103.1156 O   0  0  0  0  0  0  0  0  0  0  0  0
   47.0794  -26.0565 -105.0166 C   0  0  0  0  0  0  0  0  0  0  0  0
   48.4674  -26.6708 -104.9029 C   0  0  0  0  0  0  0  0  0  0  0  0
   48.9972  -26.9506 -103.1696 S   0  0  2  0  0  0  0  0  0  0  0  0
   50.4815  -25.9092 -102.9906 C   0  0  0  0  0  0  0  0  0  0  0  0
   49.7932  -28.5252 -103.4794 C   0  0  0  0  0  0  0  0  0  0  0  0
   50.3299  -29.1873 -102.2383 C   0  0  1  0  0  0  0  0  0  0  0  0
   49.3933  -28.9532 -101.1730 O   0  0  0  0  0  0  0  0  0  0  0  0
   50.2376  -30.6222 -102.5701 C   0  0  1  0  0  0  0  0  0  0  0  0
   51.5052  -31.0907 -103.0276 O   0  0  0  0  0  0  0  0  0  0  0  0
   49.9120  -31.2397 -101.2454 C   0  0  1  0  0  0  0  0  0  0  0  0
   51.1224  -31.5309 -100.5164 O   0  0  0  0  0  0  0  0  0  0  0  0
   49.0708  -30.1805 -100.4718 C   0  0  2  0  0  0  0  0  0  0  0  0
   43.8142  -26.2067 -105.0073 O   0  0  0  0  0  0  0  0  0  0  0  0
   44.7102  -31.8448 -103.0043 N   0  0  0  0  0  0  0  0  0  0  0  0
   45.9976  -31.9517 -103.4154 C   0  0  0  0  0  0  0  0  0  0  0  0
   47.0244  -31.5222 -102.6525 N   0  0  0  0  0  0  0  0  0  0  0  0
   46.7961  -30.8895 -101.4902 C   0  0  0  0  0  0  0  0  0  0  0  0
   45.4382  -30.7170 -101.0331 C   0  0  0  0  0  0  0  0  0  0  0  0
   44.3855  -31.2354 -101.8444 C   0  0  0  0  0  0  0  0  0  0  0  0
   43.0648  -31.1138 -101.4625 N   0  0  0  0  0  0  0  0  0  0  0  0
   45.4902  -30.0605  -99.8681 N   0  0  0  0  0  0  0  0  0  0  0  0
   46.7327  -29.8115  -99.5790 C   0  0  0  0  0  0  0  0  0  0  0  0
   47.5854  -30.3052 -100.5386 N   0  0  0  0  0  0  0  0  0  0  0  0
  2  1  1  6  0  0  0
  2  3  1  0  0  0  0
  2  5  1  0  0  0  0
  3  4  1  0  0  0  0
  3 17  1  0  0  0  0
  5  6  1  0  0  0  0
  7  6  1  6  0  0  0
  7  8  1  0  0  0  0
  7  9  1  0  0  0  0
 10  9  1  6  0  0  0
 10 11  1  0  0  0  0
 10 12  1  0  0  0  0
 11 16  1  0  0  0  0
 12 13  1  1  0  0  0
 12 14  1  0  0  0  0
 14 15  1  1  0  0  0
 14 16  1  0  0  0  0
 16 27  1  6  0  0  0
 18 19  2  0  0  0  0
 18 23  1  0  0  0  0
 19 20  1  0  0  0  0
 20 21  2  0  0  0  0
 21 22  1  0  0  0  0
 21 27  1  0  0  0  0
 22 23  2  0  0  0  0
 22 25  1  0  0  0  0
 23 24  1  0  0  0  0
 25 26  2  0  0  0  0
 26 27  1  0  0  0  0
M  END
>  <CHROM.1>
160.63410506,-91.22305470,-85.95775323,-118.41600392,-176.56742575,38.24503730
88.44707574,47.48637140,-29.11253884,-102.62481294,-2.34900833,0.09682364
2.52787797

>  <Name>
ligand

>  <RI>
0

>  <Rbt.Current_Directory>
/home/itssahil/PROJECTS/Mol_Feturizer/Test_systems_manuscript/rnas/4l81

>  <Rbt.Executable>
rbdock ($Id: //depot/dev/client3/rdock/2013.1/src/exe/rbdock.cxx#4 $)

>  <Rbt.Library>
libRbt.so (2013.1, Build901 2013/11/27)

>  <Rbt.Parameter_File>
/export/apps/rDock/src/rDock_2013.1_src/data/scripts/dock_solv.prm

>  <Rbt.Receptor>
prm/pocket_docking_2.prm

>  <SCORE>
-14.423

>  <SCORE.INTER>
-15.5447

>  <SCORE.INTER.CONST>
1

>  <SCORE.INTER.POLAR>
0

>  <SCORE.INTER.ROT>
7

>  <SCORE.INTER.SOLV>
18.0439

>  <SCORE.INTER.VDW>
-24.6444

>  <SCORE.INTER.norm>
-0.57573

>  <SCORE.INTRA>
1.08878

>  <SCORE.INTRA.DIHEDRAL>
5.78464

>  <SCORE.INTRA.DIHEDRAL.0>
8.34559

>  <SCORE.INTRA.POLAR>
0

>  <SCORE.INTRA.POLAR.0>
0

>  <SCORE.INTRA.REPUL>
0

>  <SCORE.INTRA.REPUL.0>
0

>  <SCORE.INTRA.SOLV>
-0.751802

>  <SCORE.INTRA.SOLV.lig_0>
-48.829

>  <SCORE.INTRA.VDW>
-1.42764

>  <SCORE.INTRA.VDW.0>
-1.77092

>  <SCORE.INTRA.norm>
0.0403251

>  <SCORE.RESTR>
0.032918

>  <SCORE.RESTR.CAVITY>
0.032918

>  <SCORE.RESTR.norm>
0.00121919

>  <SCORE.SYSTEM>
0

>  <SCORE.SYSTEM.CONST>
0

>  <SCORE.SYSTEM.DIHEDRAL>
0

>  <SCORE.SYSTEM.SOLV>
0

>  <SCORE.SYSTEM.norm>
0

>  <SCORE.heavy>
27

>  <SCORE.norm>
-0.534186

>  <RMSD>
1.211

$$$$
ligand
 OpenBabel02271912153D
libRbt.so/2013.1/901 2013/11/27
 27 29  0  0  0  0  0  0  0  0999 V2000
   45.0119  -28.5760 -104.8792 N   0  0  0  0  0  0  0  0  0  0  0  0
   46.1145  -27.7237 -104.4201 C   0  0  2  0  0  0  0  0  0  0  0  0
   45.6019  -26.3190 -104.1821 C   0  0  0  0  0  0  0  0  0  0  0  0
   45.5769  -25.8574 -103.0511 O   0  0  0  0  0  0  0  0  0  0  0  0
   47.2472  -27.6697 -105.4543 C   0  0  0  0  0  0  0  0  0  0  0  0
   48.2810  -26.6205 -105.0704 C   0  0  0  0  0  0  0  0  0  0  0  0
   48.8765  -26.7864 -103.3438 S   0  0  2  0  0  0  0  0  0  0  0  0
   50.4501  -25.8680 -103.3319 C   0  0  0  0  0  0  0  0  0  0  0  0
   49.5205  -28.4467 -103.5370 C   0  0  0  0  0  0  0  0  0  0  0  0
   50.0312  -29.0514 -102.2562 C   0  0  1  0  0  0  0  0  0  0  0  0
   49.0559  -28.8003 -101.2302 O   0  0  0  0  0  0  0  0  0  0  0  0
   49.9804  -30.4991 -102.5378 C   0  0  1  0  0  0  0  0  0  0  0  0
   51.2718  -30.9550 -102.9377 O   0  0  0  0  0  0  0  0  0  0  0  0
   49.6257  -31.0756 -101.2022 C   0  0  1  0  0  0  0  0  0  0  0  0
   50.8180  -31.3129 -100.4253 O   0  0  0  0  0  0  0  0  0  0  0  0
   48.7375  -30.0085 -100.4948 C   0  0  2  0  0  0  0  0  0  0  0  0
   45.2419  -25.6269 -105.1182 O   0  0  0  0  0  0  0  0  0  0  0  0
   44.5066  -32.0153 -102.9989 N   0  0  0  0  0  0  0  0  0  0  0  0
   45.8107  -32.1389 -103.3482 C   0  0  0  0  0  0  0  0  0  0  0  0
   46.7999  -31.6116 -102.5969 N   0  0  0  0  0  0  0  0  0  0  0  0
   46.5160  -30.8654 -101.5170 C   0  0  0  0  0  0  0  0  0  0  0  0
   45.1387  -30.6730 -101.1317 C   0  0  0  0  0  0  0  0  0  0  0  0
   44.1270  -31.2944 -101.9227 C   0  0  0  0  0  0  0  0  0  0  0  0
   42.7906  -31.1599 -101.6053 N   0  0  0  0  0  0  0  0  0  0  0  0
   45.1345  -29.8973 -100.0412 N   0  0  0  0  0  0  0  0  0  0  0  0
   46.3606  -29.5947  -99.7338 C   0  0  0  0  0  0  0  0  0  0  0  0
   47.2581  -30.1691 -100.6035 N   0  0  0  0  0  0  0  0  0  0  0  0
  2  1  1  6  0  0  0
  2  3  1  0  0  0  0
  2  5  1  0  0  0  0
  3  4  1  0  0  0  0
  3 17  1  0  0  0  0
  5  6  1  0  0  0  0
  7  6  1  6  0  0  0
  7  8  1  0  0  0  0
  7  9  1  0  0  0  0
 10  9  1  6  0  0  0
 10 11  1  0  0  0  0
 10 12  1  0  0  0  0
 11 16  1  0  0  0  0
 12 13  1  1  0  0  0
 12 14  1  0  0  0  0
 14 15  1  1  0  0  0
 14 16  1  0  0  0  0
 16 27  1  6  0  0  0
 18 19  2  0  0  0  0
 18 23  1  0  0  0  0
 19 20  1  0  0  0  0
 20 21  2  0  0  0  0
 21 22  1  0  0  0  0
 21 27  1  0  0  0  0
 22 23  2  0  0  0  0
 22 25  1  0  0  0  0
 23 24  1  0  0  0  0
 25 26  2  0  0  0  0
 26 27  1  0  0  0  0
M  END
>  <CHROM.1>
113.57726989,171.18433403,51.13293573,160.52339763,-175.01782319,45.90662988
92.41406849,47.39785036,-29.10624840,-102.61588733,1.16608576,-0.11577652
-0.57714654

>  <Name>
ligand

>  <RI>
0

>  <Rbt.Current_Directory>
/home/itssahil/PROJECTS/Mol_Feturizer/Test_systems_manuscript/rnas/4l81

>  <Rbt.Executable>
rbdock ($Id: //depot/dev/client3/rdock/2013.1/src/exe/rbdock.cxx#4 $)

>  <Rbt.Library>
libRbt.so (2013.1, Build901 2013/11/27)

>  <Rbt.Parameter_File>
/export/apps/rDock/src/rDock_2013.1_src/data/scripts/dock_solv.prm

>  <Rbt.Receptor>
prm/pocket_docking_2.prm

>  <SCORE>
-16.089

>  <SCORE.INTER>
-13.4171

>  <SCORE.INTER.CONST>
1

>  <SCORE.INTER.POLAR>
0

>  <SCORE.INTER.ROT>
7

>  <SCORE.INTER.SOLV>
16.1378

>  <SCORE.INTER.VDW>
-22.5907

>  <SCORE.INTER.norm>
-0.496931

>  <SCORE.INTRA>
-2.71443

>  <SCORE.INTRA.DIHEDRAL>
-3.10854

>  <SCORE.INTRA.DIHEDRAL.0>
8.34559

>  <SCORE.INTRA.POLAR>
0

>  <SCORE.INTRA.POLAR.0>
0

>  <SCORE.INTRA.REPUL>
0

>  <SCORE.INTRA.REPUL.0>
0

>  <SCORE.INTRA.SOLV>
-1.02293

>  <SCORE.INTRA.SOLV.lig_0>
-48.829

>  <SCORE.INTRA.VDW>
-0.648688

>  <SCORE.INTRA.VDW.0>
-1.77092

>  <SCORE.INTRA.norm>
-0.100534

>  <SCORE.RESTR>
0.042594

>  <SCORE.RESTR.CAVITY>
0.042594

>  <SCORE.RESTR.norm>
0.00157755

>  <SCORE.SYSTEM>
0

>  <SCORE.SYSTEM.CONST>
0

>  <SCORE.SYSTEM.DIHEDRAL>
0

>  <SCORE.SYSTEM.SOLV>
0

>  <SCORE.SYSTEM.norm>
0

>  <SCORE.heavy>
27

>  <SCORE.norm>
-0.595887

>  <RMSD>
1.213

$$$$
ligand
 OpenBabel02271912153D
libRbt.so/2013.1/901 2013/11/27
 27 29  0  0  0  0  0  0  0  0999 V2000
   45.6644  -26.1874 -106.1573 N   0  0  0  0  0  0  0  0  0  0  0  0
   45.7636  -26.8381 -104.8461 C   0  0  2  0  0  0  0  0  0  0  0  0
   44.3786  -27.2114 -104.3613 C   0  0  0  0  0  0  0  0  0  0  0  0
   43.4000  -26.9695 -105.0515 O   0  0  0  0  0  0  0  0  0  0  0  0
   46.4187  -25.9132 -103.8112 C   0  0  0  0  0  0  0  0  0  0  0  0
   47.9030  -25.7414 -104.1016 C   0  0  0  0  0  0  0  0  0  0  0  0
   48.9707  -26.0866 -102.6510 S   0  0  2  0  0  0  0  0  0  0  0  0
   50.6159  -25.4976 -103.1668 C   0  0  0  0  0  0  0  0  0  0  0  0
   49.1761  -27.8328 -102.9936 C   0  0  0  0  0  0  0  0  0  0  0  0
   49.7462  -28.6136 -101.8394 C   0  0  1  0  0  0  0  0  0  0  0  0
   48.7705  -28.6162 -100.7835 O   0  0  0  0  0  0  0  0  0  0  0  0
   49.7934  -29.9897 -102.3702 C   0  0  1  0  0  0  0  0  0  0  0  0
   51.1079  -30.2749 -102.8460 O   0  0  0  0  0  0  0  0  0  0  0  0
   49.4993  -30.8146 -101.1557 C   0  0  1  0  0  0  0  0  0  0  0  0
   50.7163  -31.0978 -100.4345 O   0  0  0  0  0  0  0  0  0  0  0  0
   48.5484  -29.9540 -100.2707 C   0  0  2  0  0  0  0  0  0  0  0  0
   44.2317  -27.7849 -103.2961 O   0  0  0  0  0  0  0  0  0  0  0  0
   44.4359  -31.8068 -103.0729 N   0  0  0  0  0  0  0  0  0  0  0  0
   45.7407  -31.7769 -103.4395 C   0  0  0  0  0  0  0  0  0  0  0  0
   46.7003  -31.3144 -102.6111 N   0  0  0  0  0  0  0  0  0  0  0  0
   46.3791  -30.7826 -101.4205 C   0  0  0  0  0  0  0  0  0  0  0  0
   44.9969  -30.7563 -101.0067 C   0  0  0  0  0  0  0  0  0  0  0  0
   44.0209  -31.3062 -101.8901 C   0  0  0  0  0  0  0  0  0  0  0  0
   42.6826  -31.3224 -101.5531 N   0  0  0  0  0  0  0  0  0  0  0  0
   44.9527  -30.1774  -99.8010 N   0  0  0  0  0  0  0  0  0  0  0  0
   46.1585  -29.8444  -99.4482 C   0  0  0  0  0  0  0  0  0  0  0  0
   47.0825  -30.1989 -100.4033 N   0  0  0  0  0  0  0  0  0  0  0  0
  2  1  1  6  0  0  0
  2  3  1  0  0  0  0
  2  5  1  0  0  0  0
  3  4  1  0  0  0  0
  3 17  1  0  0  0  0
  5  6  1  0  0  0  0
  7  6  1  6  0  0  0
  7  8  1  0  0  0  0
  7  9  1  0  0  0  0
 10  9  1  6  0  0  0
 10 11  1  0  0  0  0
 10 12  1  0  0  0  0
 11 16  1  0  0  0  0
 12 13  1  1  0  0  0
 12 14  1  0  0  0  0
 14 15  1  1  0  0  0
 14 16  1  0  0  0  0
 16 27  1  6  0  0  0
 18 19  2  0  0  0  0
 18 23  1  0  0  0  0
 19 20  1  0  0  0  0
 20 21  2  0  0  0  0
 21 22  1  0  0  0  0
 21 27  1  0  0  0  0
 22 23  2  0  0  0  0
 22 25  1  0  0  0  0
 23 24  1  0  0  0  0
 25 26  2  0  0  0  0
 26 27  1  0  0  0  0
M  END
>  <CHROM.1>
0.67744956,-70.94783278,-127.93371804,-169.23690250,-166.17156628,67.03137916
92.79495071,47.10782150,-28.87339367,-102.43363348,2.83965285,0.23000395
2.55986538

>  <Name>
ligand

>  <RI>
0

>  <Rbt.Current_Directory>
/home/itssahil/PROJECTS/Mol_Feturizer/Test_systems_manuscript/rnas/4l81

>  <Rbt.Executable>
rbdock ($Id: //depot/dev/client3/rdock/2013.1/src/exe/rbdock.cxx#4 $)

>  <Rbt.Library>
libRbt.so (2013.1, Build901 2013/11/27)

>  <Rbt.Parameter_File>
/export/apps/rDock/src/rDock_2013.1_src/data/scripts/dock_solv.prm

>  <Rbt.Receptor>
prm/pocket_docking_2.prm

>  <SCORE>
-15.3191

>  <SCORE.INTER>
-14.9891

>  <SCORE.INTER.CONST>
1

>  <SCORE.INTER.POLAR>
0

>  <SCORE.INTER.ROT>
7

>  <SCORE.INTER.SOLV>
19.8689

>  <SCORE.INTER.VDW>
-24.8824

>  <SCORE.INTER.norm>
-0.555153

>  <SCORE.INTRA>
-0.347943

>  <SCORE.INTRA.DIHEDRAL>
3.18661

>  <SCORE.INTRA.DIHEDRAL.0>
8.34559

>  <SCORE.INTRA.POLAR>
0

>  <SCORE.INTRA.POLAR.0>
0

>  <SCORE.INTRA.REPUL>
0

>  <SCORE.INTRA.REPUL.0>
0

>  <SCORE.INTRA.SOLV>
-0.686006

>  <SCORE.INTRA.SOLV.lig_0>
-48.829

>  <SCORE.INTRA.VDW>
-1.59824

>  <SCORE.INTRA.VDW.0>
-1.77092

>  <SCORE.INTRA.norm>
-0.0128868

>  <SCORE.RESTR>
0.0179855

>  <SCORE.RESTR.CAVITY>
0.0179855

>  <SCORE.RESTR.norm>
0.000666131

>  <SCORE.SYSTEM>
0

>  <SCORE.SYSTEM.CONST>
0

>  <SCORE.SYSTEM.DIHEDRAL>
0

>  <SCORE.SYSTEM.SOLV>
0

>  <SCORE.SYSTEM.norm>
0

>  <SCORE.heavy>
27

>  <SCORE.norm>
-0.567374

>  <RMSD>
1.216

$$$$
ligand
 OpenBabel02271912153D
libRbt.so/2013.1/901 2013/11/27
 27 29  0  0  0  0  0  0  0  0999 V2000
   45.0179  -26.3678 -104.8031 N   0  0  0  0  0  0  0  0  0  0  0  0
   45.6670  -27.6784 -104.6864 C   0  0  2  0  0  0  0  0  0  0  0  0
   44.6263  -28.7311 -104.3677 C   0  0  0  0  0  0  0  0  0  0  0  0
   44.4104  -29.6399 -105.1553 O   0  0  0  0  0  0  0  0  0  0  0  0
   46.7290  -27.6796 -103.5784 C   0  0  0  0  0  0  0  0  0  0  0  0
   47.8736  -26.7379 -103.9247 C   0  0  0  0  0  0  0  0  0  0  0  0
   49.2184  -26.7411 -102.6778 S   0  0  2  0  0  0  0  0  0  0  0  0
   50.5408  -25.7584 -103.4556 C   0  0  0  0  0  0  0  0  0  0  0  0
   49.8194  -28.3826 -103.0693 C   0  0  0  0  0  0  0  0  0  0  0  0
   50.2878  -29.1590 -101.8674 C   0  0  1  0  0  0  0  0  0  0  0  0
   49.3028  -29.0053 -100.8315 O   0  0  0  0  0  0  0  0  0  0  0  0
   50.1966  -30.5577 -102.3287 C   0  0  1  0  0  0  0  0  0  0  0  0
   51.4799  -31.0031 -102.7647 O   0  0  0  0  0  0  0  0  0  0  0  0
   49.8002  -31.2841 -101.0808 C   0  0  1  0  0  0  0  0  0  0  0  0
   50.9703  -31.6562 -100.3234 O   0  0  0  0  0  0  0  0  0  0  0  0
   48.9334  -30.2845 -100.2577 C   0  0  2  0  0  0  0  0  0  0  0  0
   44.0205  -28.6994 -103.3109 O   0  0  0  0  0  0  0  0  0  0  0  0
   44.6869  -31.8192 -103.0523 N   0  0  0  0  0  0  0  0  0  0  0  0
   45.9925  -31.9416 -103.3964 C   0  0  0  0  0  0  0  0  0  0  0  0
   46.9842  -31.5458 -102.5713 N   0  0  0  0  0  0  0  0  0  0  0  0
   46.7047  -30.9319 -101.4100 C   0  0  0  0  0  0  0  0  0  0  0  0
   45.3275  -30.7435 -101.0225 C   0  0  0  0  0  0  0  0  0  0  0  0
   44.3110  -31.2268 -101.8992 C   0  0  0  0  0  0  0  0  0  0  0  0
   42.9741  -31.0885 -101.5858 N   0  0  0  0  0  0  0  0  0  0  0  0
   45.3282  -30.1109  -99.8432 N   0  0  0  0  0  0  0  0  0  0  0  0
   46.5575  -29.8903  -99.4833 C   0  0  0  0  0  0  0  0  0  0  0  0
   47.4519  -30.3808 -100.4060 N   0  0  0  0  0  0  0  0  0  0  0  0
  2  1  1  1  0  0  0
  2  3  1  0  0  0  0
  2  5  1  0  0  0  0
  3  4  1  0  0  0  0
  3 17  1  0  0  0  0
  5  6  1  0  0  0  0
  7  6  1  6  0  0  0
  7  8  1  0  0  0  0
  7  9  1  0  0  0  0
 10  9  1  6  0  0  0
 10 11  1  0  0  0  0
 10 12  1  0  0  0  0
 11 16  1  0  0  0  0
 12 13  1  1  0  0  0
 12 14  1  0  0  0  0
 14 15  1  1  0  0  0
 14 16  1  0  0  0  0
 16 27  1  6  0  0  0
 18 19  2  0  0  0  0
 18 23  1  0  0  0  0
 19 20  1  0  0  0  0
 20 21  2  0  0  0  0
 21 22  1  0  0  0  0
 21 27  1  0  0  0  0
 22 23  2  0  0  0  0
 22 25  1  0  0  0  0
 23 24  1  0  0  0  0
 25 26  2  0  0  0  0
 26 27  1  0  0  0  0
M  END
>  <CHROM.1>
116.78599742,-65.02229779,-177.51718931,171.38939351,-143.46893624,45.67394752
92.37603067,47.37982216,-29.42962377,-102.37761685,-3.12300013,0.22342539
2.54466950

>  <Name>
ligand

>  <RI>
0

>  <Rbt.Current_Directory>
/home/itssahil/PROJECTS/Mol_Feturizer/Test_systems_manuscript/rnas/4l81

>  <Rbt.Executable>
rbdock ($Id: //depot/dev/client3/rdock/2013.1/src/exe/rbdock.cxx#4 $)

>  <Rbt.Library>
libRbt.so (2013.1, Build901 2013/11/27)

>  <Rbt.Parameter_File>
/export/apps/rDock/src/rDock_2013.1_src/data/scripts/dock_solv.prm

>  <Rbt.Receptor>
prm/pocket_docking_4.prm

>  <SCORE>
-18.5602

>  <SCORE.INTER>
-15.1467

>  <SCORE.INTER.CONST>
1

>  <SCORE.INTER.POLAR>
0

>  <SCORE.INTER.ROT>
7

>  <SCORE.INTER.SOLV>
18.3911

>  <SCORE.INTER.VDW>
-24.4948

>  <SCORE.INTER.norm>
-0.560988

>  <SCORE.INTRA>
-3.41351

>  <SCORE.INTRA.DIHEDRAL>
-0.598535

>  <SCORE.INTRA.DIHEDRAL.0>
8.34559

>  <SCORE.INTRA.POLAR>
0

>  <SCORE.INTRA.POLAR.0>
0

>  <SCORE.INTRA.REPUL>
0

>  <SCORE.INTRA.REPUL.0>
0

>  <SCORE.INTRA.SOLV>
0.211109

>  <SCORE.INTRA.SOLV.lig_0>
-48.829

>  <SCORE.INTRA.VDW>
-3.2198

>  <SCORE.INTRA.VDW.0>
-1.77092

>  <SCORE.INTRA.norm>
-0.126426

>  <SCORE.RESTR>
0

>  <SCORE.RESTR.CAVITY>
0

>  <SCORE.RESTR.norm>
0

>  <SCORE.SYSTEM>
0

>  <SCORE.SYSTEM.CONST>
0

>  <SCORE.SYSTEM.DIHEDRAL>
0

>  <SCORE.SYSTEM.SOLV>
0

>  <SCORE.SYSTEM.norm>
0

>  <SCORE.heavy>
27

>  <SCORE.norm>
-0.687414

>  <RMSD>
1.220

$$$$
ligand
 OpenBabel02271912153D
libRbt.so/2013.1/901 2013/11/27
 27 29  0  0  0  0  0  0  0  0999 V2000
   45.0520  -24.9571 -105.9918 N   0  0  0  0  0  0  0  0  0  0  0  0
   45.6732  -26.1900 -105.4948 C   0  0  2  0  0  0  0  0  0  0  0  0
   44.9551  -26.6485 -104.2431 C   0  0  0  0  0  0  0  0  0  0  0  0
   44.2535  -27.6484 -104.2685 O   0  0  0  0  0  0  0  0  0  0  0  0
   47.1565  -25.9748 -105.1650 C   0  0  0  0  0  0  0  0  0  0  0  0
   47.7490  -27.2115 -104.5043 C   0  0  0  0  0  0  0  0  0  0  0  0
   49.5411  -27.0553 -104.1475 S   0  0  2  0  0  0  0  0  0  0  0  0
   50.2952  -26.8052 -105.7871 C   0  0  0  0  0  0  0  0  0  0  0  0
   49.8394  -28.8121 -103.9649 C   0  0  0  0  0  0  0  0  0  0  0  0
   50.2880  -29.2101 -102.5838 C   0  0  1  0  0  0  0  0  0  0  0  0
   49.2629  -28.8157 -101.6561 O   0  0  0  0  0  0  0  0  0  0  0  0
   50.2547  -30.6842 -102.6439 C   0  0  1  0  0  0  0  0  0  0  0  0
   51.5652  -31.1828 -102.9072 O   0  0  0  0  0  0  0  0  0  0  0  0
   49.8362  -31.0547 -101.2548 C   0  0  1  0  0  0  0  0  0  0  0  0
   50.9895  -31.1594 -100.3944 O   0  0  0  0  0  0  0  0  0  0  0  0
   48.9117  -29.9014 -100.7616 C   0  0  2  0  0  0  0  0  0  0  0  0
   45.0971  -26.0444 -103.1943 O   0  0  0  0  0  0  0  0  0  0  0  0
   44.8157  -32.3864 -103.0519 N   0  0  0  0  0  0  0  0  0  0  0  0
   46.1363  -32.5652 -103.3008 C   0  0  0  0  0  0  0  0  0  0  0  0
   47.0852  -31.8951 -102.6142 N   0  0  0  0  0  0  0  0  0  0  0  0
   46.7459  -30.9565 -101.7156 C   0  0  0  0  0  0  0  0  0  0  0  0
   45.3504  -30.7039 -101.4485 C   0  0  0  0  0  0  0  0  0  0  0  0
   44.3809  -31.4741 -102.1571 C   0  0  0  0  0  0  0  0  0  0  0  0
   43.0298  -31.2910 -101.9433 N   0  0  0  0  0  0  0  0  0  0  0  0
   45.2899  -29.7322 -100.5304 N   0  0  0  0  0  0  0  0  0  0  0  0
   46.4986  -29.3665 -100.2225 C   0  0  0  0  0  0  0  0  0  0  0  0
   47.4398  -30.0912 -100.9158 N   0  0  0  0  0  0  0  0  0  0  0  0
  2  1  1  1  0  0  0
  2  3  1  0  0  0  0
  2  5  1  0  0  0  0
  3  4  1  0  0  0  0
  3 17  1  0  0  0  0
  5  6  1  0  0  0  0
  7  6  1  6  0  0  0
  7  8  1  0  0  0  0
  7  9  1  0  0  0  0
 10  9  1  6  0  0  0
 10 11  1  0  0  0  0
 10 12  1  0  0  0  0
 11 16  1  0  0  0  0
 12 13  1  1  0  0  0
 12 14  1  0  0  0  0
 14 15  1  1  0  0  0
 14 16  1  0  0  0  0
 16 27  1  6  0  0  0
 18 19  2  0  0  0  0
 18 23  1  0  0  0  0
 19 20  1  0  0  0  0
 20 21  2  0  0  0  0
 21 22  1  0  0  0  0
 21 27  1  0  0  0  0
 22 23  2  0  0  0  0
 22 25  1  0  0  0  0
 23 24  1  0  0  0  0
 25 26  2  0  0  0  0
 26 27  1  0  0  0  0
M  END
>  <CHROM.1>
109.33194042,173.57456714,177.45753305,-60.68835256,-116.55536079,59.24987951
94.84176286,47.47795288,-29.10328779,-102.92989396,2.00864827,-0.01279017
-0.59436458

>  <Name>
ligand

>  <RI>
0

>  <Rbt.Current_Directory>
/home/itssahil/PROJECTS/Mol_Feturizer/Test_systems_manuscript/rnas/4l81

>  <Rbt.Executable>
rbdock ($Id: //depot/dev/client3/rdock/2013.1/src/exe/rbdock.cxx#4 $)

>  <Rbt.Library>
libRbt.so (2013.1, Build901 2013/11/27)

>  <Rbt.Parameter_File>
/export/apps/rDock/src/rDock_2013.1_src/data/scripts/dock_solv.prm

>  <Rbt.Receptor>
prm/pocket_docking_2.prm

>  <SCORE>
-13.7736

>  <SCORE.INTER>
-12.3398

>  <SCORE.INTER.CONST>
1

>  <SCORE.INTER.POLAR>
0

>  <SCORE.INTER.ROT>
7

>  <SCORE.INTER.SOLV>
20.549

>  <SCORE.INTER.VDW>
-23.3429

>  <SCORE.INTER.norm>
-0.45703

>  <SCORE.INTRA>
-1.43945

>  <SCORE.INTRA.DIHEDRAL>
-0.536893

>  <SCORE.INTRA.DIHEDRAL.0>
8.34559

>  <SCORE.INTRA.POLAR>
0

>  <SCORE.INTRA.POLAR.0>
0

>  <SCORE.INTRA.REPUL>
0

>  <SCORE.INTRA.REPUL.0>
0

>  <SCORE.INTRA.SOLV>
-1.3226

>  <SCORE.INTRA.SOLV.lig_0>
-48.829

>  <SCORE.INTRA.VDW>
-0.509708

>  <SCORE.INTRA.VDW.0>
-1.77092

>  <SCORE.INTRA.norm>
-0.0533131

>  <SCORE.RESTR>
0.00564224

>  <SCORE.RESTR.CAVITY>
0.00564224

>  <SCORE.RESTR.norm>
0.000208972

>  <SCORE.SYSTEM>
0

>  <SCORE.SYSTEM.CONST>
0

>  <SCORE.SYSTEM.DIHEDRAL>
0

>  <SCORE.SYSTEM.SOLV>
0

>  <SCORE.SYSTEM.norm>
0

>  <SCORE.heavy>
27

>  <SCORE.norm>
-0.510134

>  <RMSD>
1.222

$$$$
ligand
 OpenBabel02271912153D
libRbt.so/2013.1/901 2013/11/27
 27 29  0  0  0  0  0  0  0  0999 V2000
   45.0372  -26.3773 -104.7830 N   0  0  0  0  0  0  0  0  0  0  0  0
   45.7252  -27.6669 -104.6556 C   0  0  2  0  0  0  0  0  0  0  0  0
   44.7126  -28.7525 -104.3572 C   0  0  0  0  0  0  0  0  0  0  0  0
   44.0722  -28.7263 -103.3170 O   0  0  0  0  0  0  0  0  0  0  0  0
   46.7660  -27.6361 -103.5282 C   0  0  0  0  0  0  0  0  0  0  0  0
   47.8913  -26.6652 -103.8566 C   0  0  0  0  0  0  0  0  0  0  0  0
   49.2664  -26.7111 -102.6440 S   0  0  2  0  0  0  0  0  0  0  0  0
   50.5933  -25.7563 -103.4485 C   0  0  0  0  0  0  0  0  0  0  0  0
   49.8156  -28.3642 -103.0613 C   0  0  0  0  0  0  0  0  0  0  0  0
   50.2792  -29.1662 -101.8744 C   0  0  1  0  0  0  0  0  0  0  0  0
   49.2920  -29.0315 -100.8380 O   0  0  0  0  0  0  0  0  0  0  0  0
   50.1858  -30.5550 -102.3645 C   0  0  1  0  0  0  0  0  0  0  0  0
   51.4691  -30.9945 -102.8064 O   0  0  0  0  0  0  0  0  0  0  0  0
   49.7845  -31.3059 -101.1327 C   0  0  1  0  0  0  0  0  0  0  0  0
   50.9519  -31.6963 -100.3803 O   0  0  0  0  0  0  0  0  0  0  0  0
   48.9181  -30.3212 -100.2914 C   0  0  2  0  0  0  0  0  0  0  0  0
   44.5046  -29.6408 -105.1650 O   0  0  0  0  0  0  0  0  0  0  0  0
   44.6755  -31.9108 -103.0612 N   0  0  0  0  0  0  0  0  0  0  0  0
   45.9820  -32.0539 -103.3936 C   0  0  0  0  0  0  0  0  0  0  0  0
   46.9721  -31.6399 -102.5755 N   0  0  0  0  0  0  0  0  0  0  0  0
   46.6909  -30.9876 -101.4358 C   0  0  0  0  0  0  0  0  0  0  0  0
   45.3130  -30.7766 -101.0625 C   0  0  0  0  0  0  0  0  0  0  0  0
   44.2978  -31.2795 -101.9294 C   0  0  0  0  0  0  0  0  0  0  0  0
   42.9602  -31.1212 -101.6284 N   0  0  0  0  0  0  0  0  0  0  0  0
   45.3121  -30.1072  -99.9037 N   0  0  0  0  0  0  0  0  0  0  0  0
   46.5411  -29.8847  -99.5438 C   0  0  0  0  0  0  0  0  0  0  0  0
   47.4367  -30.4108 -100.4453 N   0  0  0  0  0  0  0  0  0  0  0  0
  2  1  1  1  0  0  0
  2  3  1  0  0  0  0
  2  5  1  0  0  0  0
  3  4  1  0  0  0  0
  3 17  1  0  0  0  0
  5  6  1  0  0  0  0
  7  6  1  6  0  0  0
  7  8  1  0  0  0  0
  7  9  1  0  0  0  0
 10  9  1  6  0  0  0
 10 11  1  0  0  0  0
 10 12  1  0  0  0  0
 11 16  1  0  0  0  0
 12 13  1  1  0  0  0
 12 14  1  0  0  0  0
 14 15  1  1  0  0  0
 14 16  1  0  0  0  0
 16 27  1  6  0  0  0
 18 19  2  0  0  0  0
 18 23  1  0  0  0  0
 19 20  1  0  0  0  0
 20 21  2  0  0  0  0
 21 22  1  0  0  0  0
 21 27  1  0  0  0  0
 22 23  2  0  0  0  0
 22 25  1  0  0  0  0
 23 24  1  0  0  0  0
 25 26  2  0  0  0  0
 26 27  1  0  0  0  0
M  END
>  <CHROM.1>
-63.89942076,-65.40434724,-173.60348749,168.23907689,-142.79686896,47.51112353
95.37655538,47.39098752,-29.44487881,-102.38750055,3.10187054,0.22645840
2.56924985

>  <Name>
ligand

>  <RI>
0

>  <Rbt.Current_Directory>
/home/itssahil/PROJECTS/Mol_Feturizer/Test_systems_manuscript/rnas/4l81

>  <Rbt.Executable>
rbdock ($Id: //depot/dev/client3/rdock/2013.1/src/exe/rbdock.cxx#4 $)

>  <Rbt.Library>
libRbt.so (2013.1, Build901 2013/11/27)

>  <Rbt.Parameter_File>
/export/apps/rDock/src/rDock_2013.1_src/data/scripts/dock_solv.prm

>  <Rbt.Receptor>
prm/pocket_docking_6.prm

>  <SCORE>
-18.3813

>  <SCORE.INTER>
-15.1034

>  <SCORE.INTER.CONST>
1

>  <SCORE.INTER.POLAR>
0

>  <SCORE.INTER.ROT>
7

>  <SCORE.INTER.SOLV>
18.1962

>  <SCORE.INTER.VDW>
-24.401

>  <SCORE.INTER.norm>
-0.559385

>  <SCORE.INTRA>
-3.27791

>  <SCORE.INTRA.DIHEDRAL>
-0.569833

>  <SCORE.INTRA.DIHEDRAL.0>
8.34559

>  <SCORE.INTRA.POLAR>
0

>  <SCORE.INTRA.POLAR.0>
0

>  <SCORE.INTRA.REPUL>
0

>  <SCORE.INTRA.REPUL.0>
0

>  <SCORE.INTRA.SOLV>
0.216128

>  <SCORE.INTRA.SOLV.lig_0>
-48.829

>  <SCORE.INTRA.VDW>
-3.10106

>  <SCORE.INTRA.VDW.0>
-1.77092

>  <SCORE.INTRA.norm>
-0.121404

>  <SCORE.RESTR>
0

>  <SCORE.RESTR.CAVITY>
0

>  <SCORE.RESTR.norm>
0

>  <SCORE.SYSTEM>
0

>  <SCORE.SYSTEM.CONST>
0

>  <SCORE.SYSTEM.DIHEDRAL>
0

>  <SCORE.SYSTEM.SOLV>
0

>  <SCORE.SYSTEM.norm>
0

>  <SCORE.heavy>
27

>  <SCORE.norm>
-0.680789

>  <RMSD>
1.224

$$$$
ligand
 OpenBabel02271912153D
libRbt.so/2013.1/901 2013/11/27
 27 29  0  0  0  0  0  0  0  0999 V2000
   43.8804  -28.1982 -104.3253 N   0  0  0  0  0  0  0  0  0  0  0  0
   44.6655  -26.9590 -104.3475 C   0  0  2  0  0  0  0  0  0  0  0  0
   45.1121  -26.6691 -105.7649 C   0  0  0  0  0  0  0  0  0  0  0  0
   45.1211  -25.5214 -106.1838 O   0  0  0  0  0  0  0  0  0  0  0  0
   45.9052  -27.0665 -103.4491 C   0  0  0  0  0  0  0  0  0  0  0  0
   46.8784  -25.9307 -103.7314 C   0  0  0  0  0  0  0  0  0  0  0  0
   48.3375  -25.9324 -102.6202 S   0  0  2  0  0  0  0  0  0  0  0  0
   49.5576  -24.9010 -103.4960 C   0  0  0  0  0  0  0  0  0  0  0  0
   48.9317  -27.5497 -103.1103 C   0  0  0  0  0  0  0  0  0  0  0  0
   49.5449  -28.3370 -101.9830 C   0  0  1  0  0  0  0  0  0  0  0  0
   48.5775  -28.4157 -100.9224 O   0  0  0  0  0  0  0  0  0  0  0  0
   49.6517  -29.6933 -102.5548 C   0  0  1  0  0  0  0  0  0  0  0  0
   50.9746  -29.9034 -103.0460 O   0  0  0  0  0  0  0  0  0  0  0  0
   49.4040  -30.5663 -101.3637 C   0  0  1  0  0  0  0  0  0  0  0  0
   50.6375  -30.8141 -100.6578 O   0  0  0  0  0  0  0  0  0  0  0  0
   48.4205  -29.7769 -100.4484 C   0  0  2  0  0  0  0  0  0  0  0  0
   45.4969  -27.5720 -106.4872 O   0  0  0  0  0  0  0  0  0  0  0  0
   44.4499  -32.1782 -103.0304 N   0  0  0  0  0  0  0  0  0  0  0  0
   45.7646  -32.1663 -103.3611 C   0  0  0  0  0  0  0  0  0  0  0  0
   46.6847  -31.5485 -102.5912 N   0  0  0  0  0  0  0  0  0  0  0  0
   46.3117  -30.8446 -101.5101 C   0  0  0  0  0  0  0  0  0  0  0  0
   44.9167  -30.7958 -101.1438 C   0  0  0  0  0  0  0  0  0  0  0  0
   43.9842  -31.5091 -101.9544 C   0  0  0  0  0  0  0  0  0  0  0  0
   42.6368  -31.5130 -101.6560 N   0  0  0  0  0  0  0  0  0  0  0  0
   44.8187  -30.0343 -100.0478 N   0  0  0  0  0  0  0  0  0  0  0  0
   46.0035  -29.6122  -99.7198 C   0  0  0  0  0  0  0  0  0  0  0  0
   46.9666  -30.0851 -100.5803 N   0  0  0  0  0  0  0  0  0  0  0  0
  2  1  1  6  0  0  0
  2  3  1  0  0  0  0
  2  5  1  0  0  0  0
  3  4  1  0  0  0  0
  3 17  1  0  0  0  0
  5  6  1  0  0  0  0
  7  6  1  6  0  0  0
  7  8  1  0  0  0  0
  7  9  1  0  0  0  0
 10  9  1  6  0  0  0
 10 11  1  0  0  0  0
 10 12  1  0  0  0  0
 11 16  1  0  0  0  0
 12 13  1  1  0  0  0
 12 14  1  0  0  0  0
 14 15  1  1  0  0  0
 14 16  1  0  0  0  0
 16 27  1  6  0  0  0
 18 19  2  0  0  0  0
 18 23  1  0  0  0  0
 19 20  1  0  0  0  0
 20 21  2  0  0  0  0
 21 22  1  0  0  0  0
 21 27  1  0  0  0  0
 22 23  2  0  0  0  0
 22 25  1  0  0  0  0
 23 24  1  0  0  0  0
 25 26  2  0  0  0  0
 26 27  1  0  0  0  0
M  END
>  <CHROM.1>
141.16814529,166.30565607,176.34697032,161.32209297,-144.14063033,55.04778646
103.89835048,46.93948604,-28.83241750,-102.63809674,1.40981085,-0.32123835
-0.59728577

>  <Name>
ligand

>  <RI>
0

>  <Rbt.Current_Directory>
/home/itssahil/PROJECTS/Mol_Feturizer/Test_systems_manuscript/rnas/4l81

>  <Rbt.Executable>
rbdock ($Id: //depot/dev/client3/rdock/2013.1/src/exe/rbdock.cxx#4 $)

>  <Rbt.Library>
libRbt.so (2013.1, Build901 2013/11/27)

>  <Rbt.Parameter_File>
/export/apps/rDock/src/rDock_2013.1_src/data/scripts/dock_solv.prm

>  <Rbt.Receptor>
prm/pocket_docking_2.prm

>  <SCORE>
-16.0372

>  <SCORE.INTER>
-15.0135

>  <SCORE.INTER.CONST>
1

>  <SCORE.INTER.POLAR>
0

>  <SCORE.INTER.ROT>
7

>  <SCORE.INTER.SOLV>
21.671

>  <SCORE.INTER.VDW>
-25.4993

>  <SCORE.INTER.norm>
-0.556056

>  <SCORE.INTRA>
-1.07678

>  <SCORE.INTRA.DIHEDRAL>
-0.414711

>  <SCORE.INTRA.DIHEDRAL.0>
8.34559

>  <SCORE.INTRA.POLAR>
0

>  <SCORE.INTRA.POLAR.0>
0

>  <SCORE.INTRA.REPUL>
0

>  <SCORE.INTRA.REPUL.0>
0

>  <SCORE.INTRA.SOLV>
-1.2512

>  <SCORE.INTRA.SOLV.lig_0>
-48.829

>  <SCORE.INTRA.VDW>
-0.243822

>  <SCORE.INTRA.VDW.0>
-1.77092

>  <SCORE.INTRA.norm>
-0.0398807

>  <SCORE.RESTR>
0.0530554

>  <SCORE.RESTR.CAVITY>
0.0530554

>  <SCORE.RESTR.norm>
0.00196501

>  <SCORE.SYSTEM>
0

>  <SCORE.SYSTEM.CONST>
0

>  <SCORE.SYSTEM.DIHEDRAL>
0

>  <SCORE.SYSTEM.SOLV>
0

>  <SCORE.SYSTEM.norm>
0

>  <SCORE.heavy>
27

>  <SCORE.norm>
-0.593972

>  <RMSD>
1.235

$$$$
ligand
 OpenBabel02271912153D
libRbt.so/2013.1/901 2013/11/27
 27 29  0  0  0  0  0  0  0  0999 V2000
   45.5688  -28.5384 -104.3037 N   0  0  0  0  0  0  0  0  0  0  0  0
   45.9135  -27.1243 -104.4890 C   0  0  2  0  0  0  0  0  0  0  0  0
   44.7041  -26.3727 -105.0038 C   0  0  0  0  0  0  0  0  0  0  0  0
   44.8486  -25.3638 -105.6777 O   0  0  0  0  0  0  0  0  0  0  0  0
   47.0649  -26.9562 -105.4897 C   0  0  0  0  0  0  0  0  0  0  0  0
   48.4100  -27.1567 -104.8059 C   0  0  0  0  0  0  0  0  0  0  0  0
   48.3711  -28.4313 -103.4880 S   0  0  2  0  0  0  0  0  0  0  0  0
   47.7834  -27.5269 -102.0196 C   0  0  0  0  0  0  0  0  0  0  0  0
   50.1309  -28.3961 -103.1553 C   0  0  0  0  0  0  0  0  0  0  0  0
   50.5718  -29.3960 -102.1195 C   0  0  1  0  0  0  0  0  0  0  0  0
   49.6899  -29.2794 -100.9901 O   0  0  0  0  0  0  0  0  0  0  0  0
   50.2616  -30.6875 -102.7624 C   0  0  1  0  0  0  0  0  0  0  0  0
   51.4402  -31.2171 -103.3671 O   0  0  0  0  0  0  0  0  0  0  0  0
   49.8574  -31.5387 -101.5986 C   0  0  1  0  0  0  0  0  0  0  0  0
   51.0160  -32.1616 -101.0061 O   0  0  0  0  0  0  0  0  0  0  0  0
   49.1918  -30.5749 -100.5710 C   0  0  2  0  0  0  0  0  0  0  0  0
   43.5798  -26.7852 -104.7788 O   0  0  0  0  0  0  0  0  0  0  0  0
   44.5545  -31.6273 -102.9344 N   0  0  0  0  0  0  0  0  0  0  0  0
   45.7969  -31.9545 -103.3671 C   0  0  0  0  0  0  0  0  0  0  0  0
   46.8995  -31.6627 -102.6458 N   0  0  0  0  0  0  0  0  0  0  0  0
   46.8062  -30.9544 -101.5087 C   0  0  0  0  0  0  0  0  0  0  0  0
   45.5059  -30.5494 -101.0316 C   0  0  0  0  0  0  0  0  0  0  0  0
   44.3624  -30.9268 -101.7967 C   0  0  0  0  0  0  0  0  0  0  0  0
   43.0887  -30.5811 -101.3932 N   0  0  0  0  0  0  0  0  0  0  0  0
   45.6933  -29.8621  -99.8988 N   0  0  0  0  0  0  0  0  0  0  0  0
   46.9670  -29.8022  -99.6472 C   0  0  0  0  0  0  0  0  0  0  0  0
   47.7041  -30.4644 -100.6010 N   0  0  0  0  0  0  0  0  0  0  0  0
  2  1  1  6  0  0  0
  2  3  1  0  0  0  0
  2  5  1  0  0  0  0
  3  4  1  0  0  0  0
  3 17  1  0  0  0  0
  5  6  1  0  0  0  0
  7  6  1  6  0  0  0
  7  8  1  0  0  0  0
  7  9  1  0  0  0  0
 10  9  1  6  0  0  0
 10 11  1  0  0  0  0
 10 12  1  0  0  0  0
 11 16  1  0  0  0  0
 12 13  1  1  0  0  0
 12 14  1  0  0  0  0
 14 15  1  1  0  0  0
 14 16  1  0  0  0  0
 16 27  1  6  0  0  0
 18 19  2  0  0  0  0
 18 23  1  0  0  0  0
 19 20  1  0  0  0  0
 20 21  2  0  0  0  0
 21 22  1  0  0  0  0
 21 27  1  0  0  0  0
 22 23  2  0  0  0  0
 22 25  1  0  0  0  0
 23 24  1  0  0  0  0
 25 26  2  0  0  0  0
 26 27  1  0  0  0  0
M  END
>  <CHROM.1>
-152.91305185,-83.03613623,35.20943821,-84.60886523,-177.23352104,-48.38193572
104.12925298,47.35036803,-29.38670200,-102.68349831,-2.37963990,-0.01992606
2.43991492

>  <Name>
ligand

>  <RI>
0

>  <Rbt.Current_Directory>
/home/itssahil/PROJECTS/Mol_Feturizer/Test_systems_manuscript/rnas/4l81

>  <Rbt.Executable>
rbdock ($Id: //depot/dev/client3/rdock/2013.1/src/exe/rbdock.cxx#4 $)

>  <Rbt.Library>
libRbt.so (2013.1, Build901 2013/11/27)

>  <Rbt.Parameter_File>
/export/apps/rDock/src/rDock_2013.1_src/data/scripts/dock_solv.prm

>  <Rbt.Receptor>
prm/pocket_docking_2.prm

>  <SCORE>
-11.4112

>  <SCORE.INTER>
-13.7057

>  <SCORE.INTER.CONST>
1

>  <SCORE.INTER.POLAR>
0

>  <SCORE.INTER.ROT>
7

>  <SCORE.INTER.SOLV>
15.1584

>  <SCORE.INTER.VDW>
-22.4566

>  <SCORE.INTER.norm>
-0.507619

>  <SCORE.INTRA>
1.86367

>  <SCORE.INTRA.DIHEDRAL>
0.298754

>  <SCORE.INTRA.DIHEDRAL.0>
8.34559

>  <SCORE.INTRA.POLAR>
0

>  <SCORE.INTRA.POLAR.0>
0

>  <SCORE.INTRA.REPUL>
0

>  <SCORE.INTRA.REPUL.0>
0

>  <SCORE.INTRA.SOLV>
2.86808

>  <SCORE.INTRA.SOLV.lig_0>
-48.829

>  <SCORE.INTRA.VDW>
0.280248

>  <SCORE.INTRA.VDW.0>
-1.77092

>  <SCORE.INTRA.norm>
0.0690247

>  <SCORE.RESTR>
0.430862

>  <SCORE.RESTR.CAVITY>
0.430862

>  <SCORE.RESTR.norm>
0.0159579

>  <SCORE.SYSTEM>
0

>  <SCORE.SYSTEM.CONST>
0

>  <SCORE.SYSTEM.DIHEDRAL>
0

>  <SCORE.SYSTEM.SOLV>
0

>  <SCORE.SYSTEM.norm>
0

>  <SCORE.heavy>
27

>  <SCORE.norm>
-0.422637

>  <RMSD>
1.238

$$$$
ligand
 OpenBabel02271912153D
libRbt.so/2013.1/901 2013/11/27
 27 29  0  0  0  0  0  0  0  0999 V2000
   44.5969  -25.8218 -105.2769 N   0  0  0  0  0  0  0  0  0  0  0  0
   45.4373  -26.8310 -104.6227 C   0  0  2  0  0  0  0  0  0  0  0  0
   44.5624  -27.7839 -103.8357 C   0  0  0  0  0  0  0  0  0  0  0  0
   44.5234  -27.7174 -102.6163 O   0  0  0  0  0  0  0  0  0  0  0  0
   46.4484  -26.1825 -103.6676 C   0  0  0  0  0  0  0  0  0  0  0  0
   47.6557  -25.6580 -104.4320 C   0  0  0  0  0  0  0  0  0  0  0  0
   49.2418  -25.9138 -103.5475 S   0  0  2  0  0  0  0  0  0  0  0  0
   50.5044  -25.7309 -104.8482 C   0  0  0  0  0  0  0  0  0  0  0  0
   49.1358  -27.7015 -103.5067 C   0  0  0  0  0  0  0  0  0  0  0  0
   49.6737  -28.3116 -102.2397 C   0  0  1  0  0  0  0  0  0  0  0  0
   48.6669  -28.1759 -101.2225 O   0  0  0  0  0  0  0  0  0  0  0  0
   49.7414  -29.7473 -102.5740 C   0  0  1  0  0  0  0  0  0  0  0  0
   51.0704  -30.0856 -102.9674 O   0  0  0  0  0  0  0  0  0  0  0  0
   49.4138  -30.3992 -101.2664 C   0  0  1  0  0  0  0  0  0  0  0  0
   50.6096  -30.5712 -100.4779 O   0  0  0  0  0  0  0  0  0  0  0  0
   48.4340  -29.4319 -100.5367 C   0  0  2  0  0  0  0  0  0  0  0  0
   43.8662  -28.6010 -104.4123 O   0  0  0  0  0  0  0  0  0  0  0  0
   44.4561  -32.0809 -102.8514 N   0  0  0  0  0  0  0  0  0  0  0  0
   45.7809  -32.1731 -103.1240 C   0  0  0  0  0  0  0  0  0  0  0  0
   46.6993  -31.4702 -102.4287 N   0  0  0  0  0  0  0  0  0  0  0  0
   46.3194  -30.5826 -101.4953 C   0  0  0  0  0  0  0  0  0  0  0  0
   44.9158  -30.4217 -101.2011 C   0  0  0  0  0  0  0  0  0  0  0  0
   43.9824  -31.2250 -101.9213 C   0  0  0  0  0  0  0  0  0  0  0  0
   42.6263  -31.1292 -101.6833 N   0  0  0  0  0  0  0  0  0  0  0  0
   44.8125  -29.4851 -100.2509 N   0  0  0  0  0  0  0  0  0  0  0  0
   46.0022  -29.0585  -99.9477 C   0  0  0  0  0  0  0  0  0  0  0  0
   46.9736  -29.7036 -100.6770 N   0  0  0  0  0  0  0  0  0  0  0  0
  2  1  1  1  0  0  0
  2  3  1  0  0  0  0
  2  5  1  0  0  0  0
  3  4  1  0  0  0  0
  3 17  1  0  0  0  0
  5  6  1  0  0  0  0
  7  6  1  6  0  0  0
  7  8  1  0  0  0  0
  7  9  1  0  0  0  0
 10  9  1  6  0  0  0
 10 11  1  0  0  0  0
 10 12  1  0  0  0  0
 11 16  1  0  0  0  0
 12 13  1  1  0  0  0
 12 14  1  0  0  0  0
 14 15  1  1  0  0  0
 14 16  1  0  0  0  0
 16 27  1  6  0  0  0
 18 19  2  0  0  0  0
 18 23  1  0  0  0  0
 19 20  1  0  0  0  0
 20 21  2  0  0  0  0
 21 22  1  0  0  0  0
 21 27  1  0  0  0  0
 22 23  2  0  0  0  0
 22 25  1  0  0  0  0
 23 24  1  0  0  0  0
 25 26  2  0  0  0  0
 26 27  1  0  0  0  0
M  END
>  <CHROM.1>
-105.77479148,-81.00010389,-141.34589394,161.94254176,-143.42190562,79.40738113
103.87045137,47.06372574,-28.77664427,-102.57639999,0.59046858,-0.14318810
-0.57135354

>  <Name>
ligand

>  <RI>
0

>  <Rbt.Current_Directory>
/home/itssahil/PROJECTS/Mol_Feturizer/Test_systems_manuscript/rnas/4l81

>  <Rbt.Executable>
rbdock ($Id: //depot/dev/client3/rdock/2013.1/src/exe/rbdock.cxx#4 $)

>  <Rbt.Library>
libRbt.so (2013.1, Build901 2013/11/27)

>  <Rbt.Parameter_File>
/export/apps/rDock/src/rDock_2013.1_src/data/scripts/dock_solv.prm

>  <Rbt.Receptor>
prm/pocket_docking_2.prm

>  <SCORE>
-12.503

>  <SCORE.INTER>
-13.2673

>  <SCORE.INTER.CONST>
1

>  <SCORE.INTER.POLAR>
0

>  <SCORE.INTER.ROT>
7

>  <SCORE.INTER.SOLV>
21.8564

>  <SCORE.INTER.VDW>
-24.397

>  <SCORE.INTER.norm>
-0.491381

>  <SCORE.INTRA>
0.749543

>  <SCORE.INTRA.DIHEDRAL>
5.58437

>  <SCORE.INTRA.DIHEDRAL.0>
8.34559

>  <SCORE.INTRA.POLAR>
0

>  <SCORE.INTRA.POLAR.0>
0

>  <SCORE.INTRA.REPUL>
0

>  <SCORE.INTRA.REPUL.0>
0

>  <SCORE.INTRA.SOLV>
-0.709372

>  <SCORE.INTRA.SOLV.lig_0>
-48.829

>  <SCORE.INTRA.VDW>
-1.68796

>  <SCORE.INTRA.VDW.0>
-1.77092

>  <SCORE.INTRA.norm>
0.0277609

>  <SCORE.RESTR>
0.0147358

>  <SCORE.RESTR.CAVITY>
0.0147358

>  <SCORE.RESTR.norm>
0.00054577

>  <SCORE.SYSTEM>
0

>  <SCORE.SYSTEM.CONST>
0

>  <SCORE.SYSTEM.DIHEDRAL>
0

>  <SCORE.SYSTEM.SOLV>
0

>  <SCORE.SYSTEM.norm>
0

>  <SCORE.heavy>
27

>  <SCORE.norm>
-0.463074

>  <RMSD>
1.250

$$$$
ligand
 OpenBabel02271912153D
libRbt.so/2013.1/901 2013/11/27
 27 29  0  0  0  0  0  0  0  0999 V2000
   46.8959  -28.0679 -105.2297 N   0  0  0  0  0  0  0  0  0  0  0  0
   46.7962  -27.7153 -103.8089 C   0  0  2  0  0  0  0  0  0  0  0  0
   45.3562  -27.8386 -103.3576 C   0  0  0  0  0  0  0  0  0  0  0  0
   44.5667  -28.5149 -103.9995 O   0  0  0  0  0  0  0  0  0  0  0  0
   47.2744  -26.2793 -103.5546 C   0  0  0  0  0  0  0  0  0  0  0  0
   48.2771  -26.2374 -102.4101 C   0  0  0  0  0  0  0  0  0  0  0  0
   50.0065  -26.5225 -102.9497 S   0  0  2  0  0  0  0  0  0  0  0  0
   50.0071  -26.0258 -104.7027 C   0  0  0  0  0  0  0  0  0  0  0  0
   49.8374  -28.2936 -103.1585 C   0  0  0  0  0  0  0  0  0  0  0  0
   50.2631  -29.0891 -101.9532 C   0  0  1  0  0  0  0  0  0  0  0  0
   49.2757  -28.8965 -100.9261 O   0  0  0  0  0  0  0  0  0  0  0  0
   50.1198  -30.4827 -102.4168 C   0  0  1  0  0  0  0  0  0  0  0  0
   51.3880  -30.9792 -102.8416 O   0  0  0  0  0  0  0  0  0  0  0  0
   49.6830  -31.1934 -101.1734 C   0  0  1  0  0  0  0  0  0  0  0  0
   50.8302  -31.6129 -100.4057 O   0  0  0  0  0  0  0  0  0  0  0  0
   48.8498  -30.1602 -100.3571 C   0  0  2  0  0  0  0  0  0  0  0  0
   44.9816  -27.2926 -102.3346 O   0  0  0  0  0  0  0  0  0  0  0  0
   44.5553  -31.8624 -102.9759 N   0  0  0  0  0  0  0  0  0  0  0  0
   45.8557  -32.1062 -103.2717 C   0  0  0  0  0  0  0  0  0  0  0  0
   46.8587  -31.6460 -102.4951 N   0  0  0  0  0  0  0  0  0  0  0  0
   46.6013  -30.8503 -101.4443 C   0  0  0  0  0  0  0  0  0  0  0  0
   45.2326  -30.5309 -101.1169 C   0  0  0  0  0  0  0  0  0  0  0  0
   44.2005  -31.0840 -101.9318 C   0  0  0  0  0  0  0  0  0  0  0  0
   42.8701  -30.8274 -101.6694 N   0  0  0  0  0  0  0  0  0  0  0  0
   45.2558  -29.7295 -100.0454 N   0  0  0  0  0  0  0  0  0  0  0  0
   46.4914  -29.5249  -99.6979 C   0  0  0  0  0  0  0  0  0  0  0  0
   47.3670  -30.1965 -100.5190 N   0  0  0  0  0  0  0  0  0  0  0  0
  2  1  1  6  0  0  0
  2  3  1  0  0  0  0
  2  5  1  0  0  0  0
  3  4  1  0  0  0  0
  3 17  1  0  0  0  0
  5  6  1  0  0  0  0
  7  6  1  1  0  0  0
  7  8  1  0  0  0  0
  7  9  1  0  0  0  0
 10  9  1  6  0  0  0
 10 11  1  0  0  0  0
 10 12  1  0  0  0  0
 11 16  1  0  0  0  0
 12 13  1  1  0  0  0
 12 14  1  0  0  0  0
 14 15  1  1  0  0  0
 14 16  1  0  0  0  0
 16 27  1  6  0  0  0
 18 19  2  0  0  0  0
 18 23  1  0  0  0  0
 19 20  1  0  0  0  0
 20 21  2  0  0  0  0
 21 22  1  0  0  0  0
 21 27  1  0  0  0  0
 22 23  2  0  0  0  0
 22 25  1  0  0  0  0
 23 24  1  0  0  0  0
 25 26  2  0  0  0  0
 26 27  1  0  0  0  0
M  END
>  <CHROM.1>
19.97468916,-130.07952026,87.25625458,24.50492754,-94.62066514,71.64546285
101.09253819,47.57697203,-29.21810625,-102.30264394,0.42558374,-0.09464317
-0.50450446

>  <Name>
ligand

>  <RI>
0

>  <Rbt.Current_Directory>
/home/itssahil/PROJECTS/Mol_Feturizer/Test_systems_manuscript/rnas/4l81

>  <Rbt.Executable>
rbdock ($Id: //depot/dev/client3/rdock/2013.1/src/exe/rbdock.cxx#4 $)

>  <Rbt.Library>
libRbt.so (2013.1, Build901 2013/11/27)

>  <Rbt.Parameter_File>
/export/apps/rDock/src/rDock_2013.1_src/data/scripts/dock_solv.prm

>  <Rbt.Receptor>
prm/pocket_docking_2.prm

>  <SCORE>
-14.1869

>  <SCORE.INTER>
-16.3825

>  <SCORE.INTER.CONST>
1

>  <SCORE.INTER.POLAR>
0

>  <SCORE.INTER.ROT>
7

>  <SCORE.INTER.SOLV>
15.8204

>  <SCORE.INTER.VDW>
-24.4618

>  <SCORE.INTER.norm>
-0.606759

>  <SCORE.INTRA>
2.19562

>  <SCORE.INTRA.DIHEDRAL>
6.7247

>  <SCORE.INTRA.DIHEDRAL.0>
8.34559

>  <SCORE.INTRA.POLAR>
0

>  <SCORE.INTRA.POLAR.0>
0

>  <SCORE.INTRA.REPUL>
0

>  <SCORE.INTRA.REPUL.0>
0

>  <SCORE.INTRA.SOLV>
1.20981

>  <SCORE.INTRA.SOLV.lig_0>
-48.829

>  <SCORE.INTRA.VDW>
-1.77163

>  <SCORE.INTRA.VDW.0>
-1.77092

>  <SCORE.INTRA.norm>
0.0813194

>  <SCORE.RESTR>
0

>  <SCORE.RESTR.CAVITY>
0

>  <SCORE.RESTR.norm>
0

>  <SCORE.SYSTEM>
0

>  <SCORE.SYSTEM.CONST>
0

>  <SCORE.SYSTEM.DIHEDRAL>
0

>  <SCORE.SYSTEM.SOLV>
0

>  <SCORE.SYSTEM.norm>
0

>  <SCORE.heavy>
27

>  <SCORE.norm>
-0.52544

>  <RMSD>
1.259

$$$$
ligand
 OpenBabel02271912153D
libRbt.so/2013.1/901 2013/11/27
 27 29  0  0  0  0  0  0  0  0999 V2000
   45.7203  -25.5550 -106.3399 N   0  0  0  0  0  0  0  0  0  0  0  0
   45.9572  -26.6553 -105.3986 C   0  0  2  0  0  0  0  0  0  0  0  0
   44.6735  -27.4325 -105.1966 C   0  0  0  0  0  0  0  0  0  0  0  0
   43.6939  -26.8858 -104.7126 O   0  0  0  0  0  0  0  0  0  0  0  0
   46.4401  -26.1333 -104.0386 C   0  0  0  0  0  0  0  0  0  0  0  0
   47.8550  -25.5815 -104.1420 C   0  0  0  0  0  0  0  0  0  0  0  0
   48.8987  -25.9840 -102.6887 S   0  0  2  0  0  0  0  0  0  0  0  0
   50.5734  -25.4776 -103.1971 C   0  0  0  0  0  0  0  0  0  0  0  0
   49.0168  -27.7375 -103.0353 C   0  0  0  0  0  0  0  0  0  0  0  0
   49.6336  -28.5357 -101.9176 C   0  0  1  0  0  0  0  0  0  0  0  0
   48.6878  -28.5843 -100.8359 O   0  0  0  0  0  0  0  0  0  0  0  0
   49.6923  -29.8968 -102.4848 C   0  0  1  0  0  0  0  0  0  0  0  0
   50.9981  -30.1439 -103.0036 O   0  0  0  0  0  0  0  0  0  0  0  0
   49.4478  -30.7577 -101.2843 C   0  0  1  0  0  0  0  0  0  0  0  0
   50.6895  -31.0349 -100.6042 O   0  0  0  0  0  0  0  0  0  0  0  0
   48.5056  -29.9387 -100.3519 C   0  0  2  0  0  0  0  0  0  0  0  0
   44.5966  -28.5978 -105.5448 O   0  0  0  0  0  0  0  0  0  0  0  0
   44.3524  -31.7988 -103.0885 N   0  0  0  0  0  0  0  0  0  0  0  0
   45.6457  -31.7334 -103.4898 C   0  0  0  0  0  0  0  0  0  0  0  0
   46.6191  -31.2738 -102.6760 N   0  0  0  0  0  0  0  0  0  0  0  0
   46.3212  -30.7798 -101.4633 C   0  0  0  0  0  0  0  0  0  0  0  0
   44.9509  -30.7918 -101.0111 C   0  0  0  0  0  0  0  0  0  0  0  0
   43.9612  -31.3377 -101.8817 C   0  0  0  0  0  0  0  0  0  0  0  0
   42.6335  -31.3892 -101.5086 N   0  0  0  0  0  0  0  0  0  0  0  0
   44.9294  -30.2457  -99.7896 N   0  0  0  0  0  0  0  0  0  0  0  0
   46.1381  -29.8981  -99.4614 C   0  0  0  0  0  0  0  0  0  0  0  0
   47.0416  -30.2091 -100.4506 N   0  0  0  0  0  0  0  0  0  0  0  0
  2  1  1  6  0  0  0
  2  3  1  0  0  0  0
  2  5  1  0  0  0  0
  3  4  1  0  0  0  0
  3 17  1  0  0  0  0
  5  6  1  0  0  0  0
  7  6  1  6  0  0  0
  7  8  1  0  0  0  0
  7  9  1  0  0  0  0
 10  9  1  6  0  0  0
 10 11  1  0  0  0  0
 10 12  1  0  0  0  0
 11 16  1  0  0  0  0
 12 13  1  1  0  0  0
 12 14  1  0  0  0  0
 14 15  1  1  0  0  0
 14 16  1  0  0  0  0
 16 27  1  6  0  0  0
 18 19  2  0  0  0  0
 18 23  1  0  0  0  0
 19 20  1  0  0  0  0
 20 21  2  0  0  0  0
 21 22  1  0  0  0  0
 21 27  1  0  0  0  0
 22 23  2  0  0  0  0
 22 25  1  0  0  0  0
 23 24  1  0  0  0  0
 25 26  2  0  0  0  0
 26 27  1  0  0  0  0
M  END
>  <CHROM.1>
-62.30775089,-70.19888196,-140.88223088,170.35449862,-170.28440437,71.29400229
92.74036199,47.10031594,-28.85923629,-102.61269585,1.05705446,-0.29777721
-0.64043944

>  <Name>
ligand

>  <RI>
0

>  <Rbt.Current_Directory>
/home/itssahil/PROJECTS/Mol_Feturizer/Test_systems_manuscript/rnas/4l81

>  <Rbt.Executable>
rbdock ($Id: //depot/dev/client3/rdock/2013.1/src/exe/rbdock.cxx#4 $)

>  <Rbt.Library>
libRbt.so (2013.1, Build901 2013/11/27)

>  <Rbt.Parameter_File>
/export/apps/rDock/src/rDock_2013.1_src/data/scripts/dock_solv.prm

>  <Rbt.Receptor>
prm/pocket_docking_2.prm

>  <SCORE>
-15.3163

>  <SCORE.INTER>
-14.0434

>  <SCORE.INTER.CONST>
1

>  <SCORE.INTER.POLAR>
0

>  <SCORE.INTER.ROT>
7

>  <SCORE.INTER.SOLV>
20.1322

>  <SCORE.INTER.VDW>
-24.3396

>  <SCORE.INTER.norm>
-0.520126

>  <SCORE.INTRA>
-1.27833

>  <SCORE.INTRA.DIHEDRAL>
0.631037

>  <SCORE.INTRA.DIHEDRAL.0>
8.34559

>  <SCORE.INTRA.POLAR>
0

>  <SCORE.INTRA.POLAR.0>
0

>  <SCORE.INTRA.REPUL>
0

>  <SCORE.INTRA.REPUL.0>
0

>  <SCORE.INTRA.SOLV>
-0.70858

>  <SCORE.INTRA.SOLV.lig_0>
-48.829

>  <SCORE.INTRA.VDW>
-1.23956

>  <SCORE.INTRA.VDW.0>
-1.77092

>  <SCORE.INTRA.norm>
-0.0473457

>  <SCORE.RESTR>
0.00542034

>  <SCORE.RESTR.CAVITY>
0.00542034

>  <SCORE.RESTR.norm>
0.000200753

>  <SCORE.SYSTEM>
0

>  <SCORE.SYSTEM.CONST>
0

>  <SCORE.SYSTEM.DIHEDRAL>
0

>  <SCORE.SYSTEM.SOLV>
0

>  <SCORE.SYSTEM.norm>
0

>  <SCORE.heavy>
27

>  <SCORE.norm>
-0.567271

>  <RMSD>
1.276

$$$$
ligand
 OpenBabel02271912153D
libRbt.so/2013.1/901 2013/11/27
 27 29  0  0  0  0  0  0  0  0999 V2000
   46.2881  -25.0094 -103.1418 N   0  0  0  0  0  0  0  0  0  0  0  0
   46.9314  -26.0568 -103.9429 C   0  0  2  0  0  0  0  0  0  0  0  0
   46.2394  -26.1627 -105.2855 C   0  0  0  0  0  0  0  0  0  0  0  0
   46.5596  -27.0389 -106.0745 O   0  0  0  0  0  0  0  0  0  0  0  0
   46.8622  -27.4196 -103.2404 C   0  0  0  0  0  0  0  0  0  0  0  0
   47.8806  -28.3849 -103.8303 C   0  0  0  0  0  0  0  0  0  0  0  0
   49.6058  -27.7713 -103.7285 S   0  0  2  0  0  0  0  0  0  0  0  0
   49.9646  -27.1876 -105.4167 C   0  0  0  0  0  0  0  0  0  0  0  0
   50.3743  -29.3868 -103.8193 C   0  0  0  0  0  0  0  0  0  0  0  0
   50.8839  -29.8906 -102.4952 C   0  0  1  0  0  0  0  0  0  0  0  0
   50.0380  -29.3544 -101.4638 O   0  0  0  0  0  0  0  0  0  0  0  0
   50.5953  -31.3361 -102.5650 C   0  0  1  0  0  0  0  0  0  0  0  0
   51.7696  -32.0404 -102.9655 O   0  0  0  0  0  0  0  0  0  0  0  0
   50.2603  -31.6675 -101.1437 C   0  0  1  0  0  0  0  0  0  0  0  0
   51.4588  -31.9869 -100.4069 O   0  0  0  0  0  0  0  0  0  0  0  0
   49.5984  -30.3888 -100.5480 C   0  0  2  0  0  0  0  0  0  0  0  0
   45.3367  -25.3974 -105.5761 O   0  0  0  0  0  0  0  0  0  0  0  0
   44.9461  -31.8065 -102.6799 N   0  0  0  0  0  0  0  0  0  0  0  0
   46.1885  -32.1394 -103.1083 C   0  0  0  0  0  0  0  0  0  0  0  0
   47.2968  -31.7450 -102.4471 N   0  0  0  0  0  0  0  0  0  0  0  0
   47.2061  -30.9292 -101.3842 C   0  0  0  0  0  0  0  0  0  0  0  0
   45.9044  -30.5161 -100.9180 C   0  0  0  0  0  0  0  0  0  0  0  0
   44.7570  -31.0012 -101.6132 C   0  0  0  0  0  0  0  0  0  0  0  0
   43.4821  -30.6537 -101.2149 N   0  0  0  0  0  0  0  0  0  0  0  0
   46.0947  -29.7135  -99.8642 N   0  0  0  0  0  0  0  0  0  0  0  0
   47.3711  -29.5919  -99.6513 C   0  0  0  0  0  0  0  0  0  0  0  0
   48.1077  -30.3249 -100.5523 N   0  0  0  0  0  0  0  0  0  0  0  0
  2  1  1  1  0  0  0
  2  3  1  0  0  0  0
  2  5  1  0  0  0  0
  3  4  1  0  0  0  0
  3 17  1  0  0  0  0
  5  6  1  0  0  0  0
  7  6  1  6  0  0  0
  7  8  1  0  0  0  0
  7  9  1  0  0  0  0
 10  9  1  6  0  0  0
 10 11  1  0  0  0  0
 10 12  1  0  0  0  0
 11 16  1  0  0  0  0
 12 13  1  1  0  0  0
 12 14  1  0  0  0  0
 14 15  1  1  0  0  0
 14 16  1  0  0  0  0
 16 27  1  6  0  0  0
 18 19  2  0  0  0  0
 18 23  1  0  0  0  0
 19 20  1  0  0  0  0
 20 21  2  0  0  0  0
 21 22  1  0  0  0  0
 21 27  1  0  0  0  0
 22 23  2  0  0  0  0
 22 25  1  0  0  0  0
 23 24  1  0  0  0  0
 25 26  2  0  0  0  0
 26 27  1  0  0  0  0
M  END
>  <CHROM.1>
-174.97237139,-162.06929883,58.00218130,-102.45771542,-103.67785800,30.75589202
86.68834128,47.99428616,-29.32611518,-102.66172982,2.05626018,0.12183681
-0.65385393

>  <Name>
ligand

>  <RI>
0

>  <Rbt.Current_Directory>
/home/itssahil/PROJECTS/Mol_Feturizer/Test_systems_manuscript/rnas/4l81

>  <Rbt.Executable>
rbdock ($Id: //depot/dev/client3/rdock/2013.1/src/exe/rbdock.cxx#4 $)

>  <Rbt.Library>
libRbt.so (2013.1, Build901 2013/11/27)

>  <Rbt.Parameter_File>
/export/apps/rDock/src/rDock_2013.1_src/data/scripts/dock_solv.prm

>  <Rbt.Receptor>
prm/pocket_docking_2.prm

>  <SCORE>
-10.8097

>  <SCORE.INTER>
-11.2733

>  <SCORE.INTER.CONST>
1

>  <SCORE.INTER.POLAR>
0

>  <SCORE.INTER.ROT>
7

>  <SCORE.INTER.SOLV>
20.1604

>  <SCORE.INTER.VDW>
-22.5024

>  <SCORE.INTER.norm>
-0.41753

>  <SCORE.INTRA>
-0.690619

>  <SCORE.INTRA.DIHEDRAL>
3.84198

>  <SCORE.INTRA.DIHEDRAL.0>
8.34559

>  <SCORE.INTRA.POLAR>
0

>  <SCORE.INTRA.POLAR.0>
0

>  <SCORE.INTRA.REPUL>
0

>  <SCORE.INTRA.REPUL.0>
0

>  <SCORE.INTRA.SOLV>
-0.850573

>  <SCORE.INTRA.SOLV.lig_0>
-48.829

>  <SCORE.INTRA.VDW>
-2.18632

>  <SCORE.INTRA.VDW.0>
-1.77092

>  <SCORE.INTRA.norm>
-0.0255785

>  <SCORE.RESTR>
1.15423

>  <SCORE.RESTR.CAVITY>
1.15423

>  <SCORE.RESTR.norm>
0.0427493

>  <SCORE.SYSTEM>
0

>  <SCORE.SYSTEM.CONST>
0

>  <SCORE.SYSTEM.DIHEDRAL>
0

>  <SCORE.SYSTEM.SOLV>
0

>  <SCORE.SYSTEM.norm>
0

>  <SCORE.heavy>
27

>  <SCORE.norm>
-0.400359

>  <RMSD>
1.312

$$$$
ligand
 OpenBabel02271912153D
libRbt.so/2013.1/901 2013/11/27
 27 29  0  0  0  0  0  0  0  0999 V2000
   46.2926  -28.8672 -104.9006 N   0  0  0  0  0  0  0  0  0  0  0  0
   46.2929  -27.9649 -103.7436 C   0  0  2  0  0  0  0  0  0  0  0  0
   44.8889  -27.8565 -103.1870 C   0  0  0  0  0  0  0  0  0  0  0  0
   43.9673  -27.5061 -103.9085 O   0  0  0  0  0  0  0  0  0  0  0  0
   46.7834  -26.5625 -104.1286 C   0  0  0  0  0  0  0  0  0  0  0  0
   48.2913  -26.5545 -104.3364 C   0  0  0  0  0  0  0  0  0  0  0  0
   49.2390  -26.7809 -102.7827 S   0  0  2  0  0  0  0  0  0  0  0  0
   50.7987  -25.8894 -103.0859 C   0  0  0  0  0  0  0  0  0  0  0  0
   49.7892  -28.4453 -103.1515 C   0  0  0  0  0  0  0  0  0  0  0  0
   50.3061  -29.1925 -101.9510 C   0  0  1  0  0  0  0  0  0  0  0  0
   49.3594  -29.0203 -100.8828 O   0  0  0  0  0  0  0  0  0  0  0  0
   50.2053  -30.6016 -102.3775 C   0  0  1  0  0  0  0  0  0  0  0  0
   51.4740  -31.0508 -102.8510 O   0  0  0  0  0  0  0  0  0  0  0  0
   49.8594  -31.3018 -101.0999 C   0  0  1  0  0  0  0  0  0  0  0  0
   51.0589  -31.6515 -100.3786 O   0  0  0  0  0  0  0  0  0  0  0  0
   49.0184  -30.2880 -100.2674 C   0  0  2  0  0  0  0  0  0  0  0  0
   44.6614  -28.1491 -102.0262 O   0  0  0  0  0  0  0  0  0  0  0  0
   44.6675  -31.6181 -103.0057 N   0  0  0  0  0  0  0  0  0  0  0  0
   45.9573  -31.6850 -103.4177 C   0  0  0  0  0  0  0  0  0  0  0  0
   46.9808  -31.3538 -102.6031 N   0  0  0  0  0  0  0  0  0  0  0  0
   46.7474  -30.8589 -101.3767 C   0  0  0  0  0  0  0  0  0  0  0  0
   45.3871  -30.7316 -100.9119 C   0  0  0  0  0  0  0  0  0  0  0  0
   44.3376  -31.1453 -101.7851 C   0  0  0  0  0  0  0  0  0  0  0  0
   43.0148  -31.0601 -101.4007 N   0  0  0  0  0  0  0  0  0  0  0  0
   45.4342  -30.2152  -99.6782 N   0  0  0  0  0  0  0  0  0  0  0  0
   46.6759  -30.0096  -99.3537 C   0  0  0  0  0  0  0  0  0  0  0  0
   47.5329  -30.3943 -100.3583 N   0  0  0  0  0  0  0  0  0  0  0  0
  2  1  1  6  0  0  0
  2  3  1  0  0  0  0
  2  5  1  0  0  0  0
  3  4  1  0  0  0  0
  3 17  1  0  0  0  0
  5  6  1  0  0  0  0
  7  6  1  6  0  0  0
  7  8  1  0  0  0  0
  7  9  1  0  0  0  0
 10  9  1  6  0  0  0
 10 11  1  0  0  0  0
 10 12  1  0  0  0  0
 11 16  1  0  0  0  0
 12 13  1  1  0  0  0
 12 14  1  0  0  0  0
 14 15  1  1  0  0  0
 14 16  1  0  0  0  0
 16 27  1  6  0  0  0
 18 19  2  0  0  0  0
 18 23  1  0  0  0  0
 19 20  1  0  0  0  0
 20 21  2  0  0  0  0
 21 22  1  0  0  0  0
 21 27  1  0  0  0  0
 22 23  2  0  0  0  0
 22 25  1  0  0  0  0
 23 24  1  0  0  0  0
 25 26  2  0  0  0  0
 26 27  1  0  0  0  0
M  END
>  <CHROM.1>
-55.86503987,-74.42393280,-69.48069951,-150.78927415,-163.70380269,47.37307045
85.53724885,47.51540834,-29.34119251,-102.22868917,3.01107321,0.09718435
2.57540817

>  <Name>
ligand

>  <RI>
0

>  <Rbt.Current_Directory>
/home/itssahil/PROJECTS/Mol_Feturizer/Test_systems_manuscript/rnas/4l81

>  <Rbt.Executable>
rbdock ($Id: //depot/dev/client3/rdock/2013.1/src/exe/rbdock.cxx#4 $)

>  <Rbt.Library>
libRbt.so (2013.1, Build901 2013/11/27)

>  <Rbt.Parameter_File>
/export/apps/rDock/src/rDock_2013.1_src/data/scripts/dock_solv.prm

>  <Rbt.Receptor>
prm/pocket_docking_3.prm

>  <SCORE>
-17.4604

>  <SCORE.INTER>
-14.8045

>  <SCORE.INTER.CONST>
1

>  <SCORE.INTER.POLAR>
0

>  <SCORE.INTER.ROT>
7

>  <SCORE.INTER.SOLV>
15.9441

>  <SCORE.INTER.VDW>
-23.451

>  <SCORE.INTER.norm>
-0.548314

>  <SCORE.INTRA>
-2.66198

>  <SCORE.INTRA.DIHEDRAL>
1.10385

>  <SCORE.INTRA.DIHEDRAL.0>
8.34559

>  <SCORE.INTRA.POLAR>
0

>  <SCORE.INTRA.POLAR.0>
0

>  <SCORE.INTRA.REPUL>
0

>  <SCORE.INTRA.REPUL.0>
0

>  <SCORE.INTRA.SOLV>
1.72724

>  <SCORE.INTRA.SOLV.lig_0>
-48.829

>  <SCORE.INTRA.VDW>
-4.07752

>  <SCORE.INTRA.VDW.0>
-1.77092

>  <SCORE.INTRA.norm>
-0.0985918

>  <SCORE.RESTR>
0.00605205

>  <SCORE.RESTR.CAVITY>
0.00605205

>  <SCORE.RESTR.norm>
0.00022415

>  <SCORE.SYSTEM>
0

>  <SCORE.SYSTEM.CONST>
0

>  <SCORE.SYSTEM.DIHEDRAL>
0

>  <SCORE.SYSTEM.SOLV>
0

>  <SCORE.SYSTEM.norm>
0

>  <SCORE.heavy>
27

>  <SCORE.norm>
-0.646682

>  <RMSD>
1.332

$$$$
ligand
 OpenBabel02271912153D
libRbt.so/2013.1/901 2013/11/27
 27 29  0  0  0  0  0  0  0  0999 V2000
   46.2389  -28.0507 -105.4328 N   0  0  0  0  0  0  0  0  0  0  0  0
   46.1431  -27.3971 -104.1228 C   0  0  2  0  0  0  0  0  0  0  0  0
   44.7445  -27.5749 -103.5705 C   0  0  0  0  0  0  0  0  0  0  0  0
   43.7755  -27.2231 -104.2263 O   0  0  0  0  0  0  0  0  0  0  0  0
   46.4496  -25.8966 -104.2230 C   0  0  0  0  0  0  0  0  0  0  0  0
   47.9491  -25.6563 -104.3266 C   0  0  0  0  0  0  0  0  0  0  0  0
   48.8523  -26.0269 -102.7741 S   0  0  2  0  0  0  0  0  0  0  0  0
   50.5457  -25.4389 -103.1002 C   0  0  0  0  0  0  0  0  0  0  0  0
   49.0877  -27.7691 -103.1174 C   0  0  0  0  0  0  0  0  0  0  0  0
   49.6363  -28.5477 -101.9514 C   0  0  1  0  0  0  0  0  0  0  0  0
   48.6464  -28.5373 -100.9089 O   0  0  0  0  0  0  0  0  0  0  0  0
   49.6805  -29.9271 -102.4740 C   0  0  1  0  0  0  0  0  0  0  0  0
   50.9991  -30.2246 -102.9304 O   0  0  0  0  0  0  0  0  0  0  0  0
   49.3638  -30.7430 -101.2591 C   0  0  1  0  0  0  0  0  0  0  0  0
   50.5688  -31.0311 -100.5199 O   0  0  0  0  0  0  0  0  0  0  0  0
   48.4074  -29.8706 -100.3918 C   0  0  2  0  0  0  0  0  0  0  0  0
   44.5724  -28.0995 -102.4841 O   0  0  0  0  0  0  0  0  0  0  0  0
   44.3619  -32.1449 -102.9724 N   0  0  0  0  0  0  0  0  0  0  0  0
   45.6812  -32.2144 -103.2765 C   0  0  0  0  0  0  0  0  0  0  0  0
   46.6188  -31.6202 -102.5091 N   0  0  0  0  0  0  0  0  0  0  0  0
   46.2642  -30.8605 -101.4600 C   0  0  0  0  0  0  0  0  0  0  0  0
   44.8673  -30.7251 -101.1241 C   0  0  0  0  0  0  0  0  0  0  0  0
   43.9130  -31.4153 -101.9292 C   0  0  0  0  0  0  0  0  0  0  0  0
   42.5620  -31.3373 -101.6584 N   0  0  0  0  0  0  0  0  0  0  0  0
   44.7902  -29.9221 -100.0563 N   0  0  0  0  0  0  0  0  0  0  0  0
   45.9897  -29.5525  -99.7186 C   0  0  0  0  0  0  0  0  0  0  0  0
   46.9417  -30.1054 -100.5430 N   0  0  0  0  0  0  0  0  0  0  0  0
  2  1  1  6  0  0  0
  2  3  1  0  0  0  0
  2  5  1  0  0  0  0
  3  4  1  0  0  0  0
  3 17  1  0  0  0  0
  5  6  1  0  0  0  0
  7  6  1  6  0  0  0
  7  8  1  0  0  0  0
  7  9  1  0  0  0  0
 10  9  1  6  0  0  0
 10 11  1  0  0  0  0
 10 12  1  0  0  0  0
 11 16  1  0  0  0  0
 12 13  1  1  0  0  0
 12 14  1  0  0  0  0
 14 15  1  1  0  0  0
 14 16  1  0  0  0  0
 16 27  1  6  0  0  0
 18 19  2  0  0  0  0
 18 23  1  0  0  0  0
 19 20  1  0  0  0  0
 20 21  2  0  0  0  0
 21 22  1  0  0  0  0
 21 27  1  0  0  0  0
 22 23  2  0  0  0  0
 22 25  1  0  0  0  0
 23 24  1  0  0  0  0
 25 26  2  0  0  0  0
 26 27  1  0  0  0  0
M  END
>  <CHROM.1>
-55.02686743,-77.77956524,-69.88566897,-172.33317218,-170.99296910,65.59128131
103.84993680,47.09797822,-28.98316074,-102.37376732,0.63257179,-0.18761060
-0.50448750

>  <Name>
ligand

>  <RI>
0

>  <Rbt.Current_Directory>
/home/itssahil/PROJECTS/Mol_Feturizer/Test_systems_manuscript/rnas/4l81

>  <Rbt.Executable>
rbdock ($Id: //depot/dev/client3/rdock/2013.1/src/exe/rbdock.cxx#4 $)

>  <Rbt.Library>
libRbt.so (2013.1, Build901 2013/11/27)

>  <Rbt.Parameter_File>
/export/apps/rDock/src/rDock_2013.1_src/data/scripts/dock_solv.prm

>  <Rbt.Receptor>
prm/pocket_docking_2.prm

>  <SCORE>
-18.2123

>  <SCORE.INTER>
-14.6796

>  <SCORE.INTER.CONST>
1

>  <SCORE.INTER.POLAR>
0

>  <SCORE.INTER.ROT>
7

>  <SCORE.INTER.SOLV>
17.1393

>  <SCORE.INTER.VDW>
-23.7661

>  <SCORE.INTER.norm>
-0.543687

>  <SCORE.INTRA>
-3.54972

>  <SCORE.INTRA.DIHEDRAL>
-1.82396

>  <SCORE.INTRA.DIHEDRAL.0>
8.34559

>  <SCORE.INTRA.POLAR>
0

>  <SCORE.INTRA.POLAR.0>
0

>  <SCORE.INTRA.REPUL>
0

>  <SCORE.INTRA.REPUL.0>
0

>  <SCORE.INTRA.SOLV>
0.434452

>  <SCORE.INTRA.SOLV.lig_0>
-48.829

>  <SCORE.INTRA.VDW>
-2.85496

>  <SCORE.INTRA.VDW.0>
-1.77092

>  <SCORE.INTRA.norm>
-0.131471

>  <SCORE.RESTR>
0.0170114

>  <SCORE.RESTR.CAVITY>
0.0170114

>  <SCORE.RESTR.norm>
0.000630052

>  <SCORE.SYSTEM>
0

>  <SCORE.SYSTEM.CONST>
0

>  <SCORE.SYSTEM.DIHEDRAL>
0

>  <SCORE.SYSTEM.SOLV>
0

>  <SCORE.SYSTEM.norm>
0

>  <SCORE.heavy>
27

>  <SCORE.norm>
-0.674528

>  <RMSD>
1.336

$$$$
ligand
 OpenBabel02271912153D
libRbt.so/2013.1/901 2013/11/27
 27 29  0  0  0  0  0  0  0  0999 V2000
   45.9425  -26.5977 -105.6337 N   0  0  0  0  0  0  0  0  0  0  0  0
   45.8436  -27.6620 -104.6286 C   0  0  2  0  0  0  0  0  0  0  0  0
   44.4464  -27.6777 -104.0452 C   0  0  0  0  0  0  0  0  0  0  0  0
   43.9717  -28.7181 -103.6152 O   0  0  0  0  0  0  0  0  0  0  0  0
   46.8534  -27.4530 -103.4919 C   0  0  0  0  0  0  0  0  0  0  0  0
   48.2778  -27.6532 -103.9897 C   0  0  0  0  0  0  0  0  0  0  0  0
   49.5431  -27.4141 -102.6838 S   0  0  2  0  0  0  0  0  0  0  0  0
   50.5742  -26.0513 -103.3156 C   0  0  0  0  0  0  0  0  0  0  0  0
   50.5700  -28.7966 -103.1766 C   0  0  0  0  0  0  0  0  0  0  0  0
   51.0118  -29.6632 -102.0274 C   0  0  1  0  0  0  0  0  0  0  0  0
   50.0984  -29.4503 -100.9377 O   0  0  0  0  0  0  0  0  0  0  0  0
   50.7537  -31.0262 -102.5307 C   0  0  1  0  0  0  0  0  0  0  0  0
   51.9616  -31.5830 -103.0468 O   0  0  0  0  0  0  0  0  0  0  0  0
   50.3436  -31.7565 -101.2895 C   0  0  1  0  0  0  0  0  0  0  0  0
   51.5034  -32.2755 -100.6062 O   0  0  0  0  0  0  0  0  0  0  0  0
   49.6257  -30.7065 -100.3895 C   0  0  2  0  0  0  0  0  0  0  0  0
   43.7981  -26.6487 -103.9695 O   0  0  0  0  0  0  0  0  0  0  0  0
   45.1164  -31.6615 -103.0262 N   0  0  0  0  0  0  0  0  0  0  0  0
   46.3847  -31.8976 -103.4429 C   0  0  0  0  0  0  0  0  0  0  0  0
   47.4497  -31.6462 -102.6534 N   0  0  0  0  0  0  0  0  0  0  0  0
   47.2902  -31.0664 -101.4525 C   0  0  0  0  0  0  0  0  0  0  0  0
   45.9596  -30.7596 -100.9858 C   0  0  0  0  0  0  0  0  0  0  0  0
   44.8585  -31.0929 -101.8294 C   0  0  0  0  0  0  0  0  0  0  0  0
   43.5593  -30.8363 -101.4410 N   0  0  0  0  0  0  0  0  0  0  0  0
   46.0813  -30.1906  -99.7807 N   0  0  0  0  0  0  0  0  0  0  0  0
   47.3424  -30.1138  -99.4756 C   0  0  0  0  0  0  0  0  0  0  0  0
   48.1368  -30.6449 -100.4648 N   0  0  0  0  0  0  0  0  0  0  0  0
  2  1  1  6  0  0  0
  2  3  1  0  0  0  0
  2  5  1  0  0  0  0
  3  4  1  0  0  0  0
  3 17  1  0  0  0  0
  5  6  1  0  0  0  0
  7  6  1  6  0  0  0
  7  8  1  0  0  0  0
  7  9  1  0  0  0  0
 10  9  1  6  0  0  0
 10 11  1  0  0  0  0
 10 12  1  0  0  0  0
 11 16  1  0  0  0  0
 12 13  1  1  0  0  0
 12 14  1  0  0  0  0
 14 15  1  1  0  0  0
 14 16  1  0  0  0  0
 16 27  1  6  0  0  0
 18 19  2  0  0  0  0
 18 23  1  0  0  0  0
 19 20  1  0  0  0  0
 20 21  2  0  0  0  0
 21 22  1  0  0  0  0
 21 27  1  0  0  0  0
 22 23  2  0  0  0  0
 22 25  1  0  0  0  0
 23 24  1  0  0  0  0
 25 26  2  0  0  0  0
 26 27  1  0  0  0  0
M  END
>  <CHROM.1>
151.66955891,-68.34409301,179.83229357,-120.26738384,-133.84744214,21.52118945
91.72326998,47.81353608,-29.52617600,-102.40445516,-2.69707738,0.06920534
2.57371166

>  <Name>
ligand

>  <RI>
0

>  <Rbt.Current_Directory>
/home/itssahil/PROJECTS/Mol_Feturizer/Test_systems_manuscript/rnas/4l81

>  <Rbt.Executable>
rbdock ($Id: //depot/dev/client3/rdock/2013.1/src/exe/rbdock.cxx#4 $)

>  <Rbt.Library>
libRbt.so (2013.1, Build901 2013/11/27)

>  <Rbt.Parameter_File>
/export/apps/rDock/src/rDock_2013.1_src/data/scripts/dock_solv.prm

>  <Rbt.Receptor>
prm/pocket_docking_3.prm

>  <SCORE>
-16.0682

>  <SCORE.INTER>
-17.1644

>  <SCORE.INTER.CONST>
1

>  <SCORE.INTER.POLAR>
0

>  <SCORE.INTER.ROT>
7

>  <SCORE.INTER.SOLV>
15.4828

>  <SCORE.INTER.VDW>
-24.8705

>  <SCORE.INTER.norm>
-0.635718

>  <SCORE.INTRA>
1.09622

>  <SCORE.INTRA.DIHEDRAL>
6.92868

>  <SCORE.INTRA.DIHEDRAL.0>
8.34559

>  <SCORE.INTRA.POLAR>
0

>  <SCORE.INTRA.POLAR.0>
0

>  <SCORE.INTRA.REPUL>
0

>  <SCORE.INTRA.REPUL.0>
0

>  <SCORE.INTRA.SOLV>
0.279324

>  <SCORE.INTRA.SOLV.lig_0>
-48.829

>  <SCORE.INTRA.VDW>
-2.50778

>  <SCORE.INTRA.VDW.0>
-1.77092

>  <SCORE.INTRA.norm>
0.0406006

>  <SCORE.RESTR>
0

>  <SCORE.RESTR.CAVITY>
0

>  <SCORE.RESTR.norm>
0

>  <SCORE.SYSTEM>
0

>  <SCORE.SYSTEM.CONST>
0

>  <SCORE.SYSTEM.DIHEDRAL>
0

>  <SCORE.SYSTEM.SOLV>
0

>  <SCORE.SYSTEM.norm>
0

>  <SCORE.heavy>
27

>  <SCORE.norm>
-0.595118

>  <RMSD>
1.348

$$$$
ligand
 OpenBabel02271912153D
libRbt.so/2013.1/901 2013/11/27
 27 29  0  0  0  0  0  0  0  0999 V2000
   45.6071  -28.8056 -104.8835 N   0  0  0  0  0  0  0  0  0  0  0  0
   46.2512  -28.3404 -103.6501 C   0  0  2  0  0  0  0  0  0  0  0  0
   45.2834  -27.4762 -102.8696 C   0  0  0  0  0  0  0  0  0  0  0  0
   44.8455  -26.4466 -103.3605 O   0  0  0  0  0  0  0  0  0  0  0  0
   47.5136  -27.5218 -103.9533 C   0  0  0  0  0  0  0  0  0  0  0  0
   48.1963  -27.0829 -102.6656 C   0  0  0  0  0  0  0  0  0  0  0  0
   50.0107  -26.8802 -102.8390 S   0  0  2  0  0  0  0  0  0  0  0  0
   50.2157  -26.1657 -104.5025 C   0  0  0  0  0  0  0  0  0  0  0  0
   50.3448  -28.5969 -103.2262 C   0  0  0  0  0  0  0  0  0  0  0  0
   50.7563  -29.4181 -102.0333 C   0  0  1  0  0  0  0  0  0  0  0  0
   49.7818  -29.2100 -100.9970 O   0  0  0  0  0  0  0  0  0  0  0  0
   50.5706  -30.8016 -102.5119 C   0  0  1  0  0  0  0  0  0  0  0  0
   51.8214  -31.3285 -102.9515 O   0  0  0  0  0  0  0  0  0  0  0  0
   50.1226  -31.5143 -101.2735 C   0  0  1  0  0  0  0  0  0  0  0  0
   51.2629  -31.9748 -100.5192 O   0  0  0  0  0  0  0  0  0  0  0  0
   49.3245  -30.4677 -100.4394 C   0  0  2  0  0  0  0  0  0  0  0  0
   44.9084  -27.8166 -101.7612 O   0  0  0  0  0  0  0  0  0  0  0  0
   44.9671  -32.0015 -103.0583 N   0  0  0  0  0  0  0  0  0  0  0  0
   46.2582  -32.2748 -103.3684 C   0  0  0  0  0  0  0  0  0  0  0  0
   47.2788  -31.8571 -102.5906 N   0  0  0  0  0  0  0  0  0  0  0  0
   47.0505  -31.0753 -101.5229 C   0  0  0  0  0  0  0  0  0  0  0  0
   45.6934  -30.7251 -101.1792 C   0  0  0  0  0  0  0  0  0  0  0  0
   44.6409  -31.2340 -101.9969 C   0  0  0  0  0  0  0  0  0  0  0  0
   43.3199  -30.9464 -101.7196 N   0  0  0  0  0  0  0  0  0  0  0  0
   45.7459  -29.9455 -100.0928 N   0  0  0  0  0  0  0  0  0  0  0  0
   46.9890  -29.7814  -99.7507 C   0  0  0  0  0  0  0  0  0  0  0  0
   47.8402  -30.4605 -100.5909 N   0  0  0  0  0  0  0  0  0  0  0  0
  2  1  1  6  0  0  0
  2  3  1  0  0  0  0
  2  5  1  0  0  0  0
  3  4  1  0  0  0  0
  3 17  1  0  0  0  0
  5  6  1  0  0  0  0
  7  6  1  6  0  0  0
  7  8  1  0  0  0  0
  7  9  1  0  0  0  0
 10  9  1  6  0  0  0
 10 11  1  0  0  0  0
 10 12  1  0  0  0  0
 11 16  1  0  0  0  0
 12 13  1  1  0  0  0
 12 14  1  0  0  0  0
 14 15  1  1  0  0  0
 14 16  1  0  0  0  0
 16 27  1  6  0  0  0
 18 19  2  0  0  0  0
 18 23  1  0  0  0  0
 19 20  1  0  0  0  0
 20 21  2  0  0  0  0
 21 22  1  0  0  0  0
 21 27  1  0  0  0  0
 22 23  2  0  0  0  0
 22 25  1  0  0  0  0
 23 24  1  0  0  0  0
 25 26  2  0  0  0  0
 26 27  1  0  0  0  0
M  END
>  <CHROM.1>
-60.94220754,-178.19843809,150.99367199,37.80931852,-96.00658063,51.32093163
100.65267039,47.81906657,-29.46088965,-102.27674286,3.13106166,0.03308034
2.71662691

>  <Name>
ligand

>  <RI>
0

>  <Rbt.Current_Directory>
/home/itssahil/PROJECTS/Mol_Feturizer/Test_systems_manuscript/rnas/4l81

>  <Rbt.Executable>
rbdock ($Id: //depot/dev/client3/rdock/2013.1/src/exe/rbdock.cxx#4 $)

>  <Rbt.Library>
libRbt.so (2013.1, Build901 2013/11/27)

>  <Rbt.Parameter_File>
/export/apps/rDock/src/rDock_2013.1_src/data/scripts/dock_solv.prm

>  <Rbt.Receptor>
prm/pocket_docking_3.prm

>  <SCORE>
-20.0119

>  <SCORE.INTER>
-17.8103

>  <SCORE.INTER.CONST>
1

>  <SCORE.INTER.POLAR>
0

>  <SCORE.INTER.ROT>
7

>  <SCORE.INTER.SOLV>
14.5361

>  <SCORE.INTER.VDW>
-24.9855

>  <SCORE.INTER.norm>
-0.65964

>  <SCORE.INTRA>
-2.20159

>  <SCORE.INTRA.DIHEDRAL>
0.266408

>  <SCORE.INTRA.DIHEDRAL.0>
8.34559

>  <SCORE.INTRA.POLAR>
0

>  <SCORE.INTRA.POLAR.0>
0

>  <SCORE.INTRA.REPUL>
0

>  <SCORE.INTRA.REPUL.0>
0

>  <SCORE.INTRA.SOLV>
-0.082277

>  <SCORE.INTRA.SOLV.lig_0>
-48.829

>  <SCORE.INTRA.VDW>
-2.29365

>  <SCORE.INTRA.VDW.0>
-1.77092

>  <SCORE.INTRA.norm>
-0.0815403

>  <SCORE.RESTR>
0

>  <SCORE.RESTR.CAVITY>
0

>  <SCORE.RESTR.norm>
0

>  <SCORE.SYSTEM>
0

>  <SCORE.SYSTEM.CONST>
0

>  <SCORE.SYSTEM.DIHEDRAL>
0

>  <SCORE.SYSTEM.SOLV>
0

>  <SCORE.SYSTEM.norm>
0

>  <SCORE.heavy>
27

>  <SCORE.norm>
-0.74118

>  <RMSD>
1.379

$$$$
ligand
 OpenBabel02271912153D
libRbt.so/2013.1/901 2013/11/27
 27 29  0  0  0  0  0  0  0  0999 V2000
   45.1094  -29.4214 -104.8455 N   0  0  0  0  0  0  0  0  0  0  0  0
   44.4980  -28.2881 -104.1423 C   0  0  2  0  0  0  0  0  0  0  0  0
   44.3590  -27.1186 -105.0939 C   0  0  0  0  0  0  0  0  0  0  0  0
   43.3313  -26.4579 -105.1096 O   0  0  0  0  0  0  0  0  0  0  0  0
   45.3474  -27.8516 -102.9409 C   0  0  0  0  0  0  0  0  0  0  0  0
   46.8293  -27.8779 -103.2876 C   0  0  0  0  0  0  0  0  0  0  0  0
   47.8683  -26.9394 -102.1031 S   0  0  2  0  0  0  0  0  0  0  0  0
   48.0500  -25.3016 -102.8804 C   0  0  0  0  0  0  0  0  0  0  0  0
   49.4227  -27.6682 -102.6145 C   0  0  0  0  0  0  0  0  0  0  0  0
   49.9208  -28.7451 -101.6877 C   0  0  1  0  0  0  0  0  0  0  0  0
   48.9701  -28.8811 -100.6178 O   0  0  0  0  0  0  0  0  0  0  0  0
   49.8017  -29.9634 -102.5119 C   0  0  1  0  0  0  0  0  0  0  0  0
   51.0665  -30.2728 -103.0950 O   0  0  0  0  0  0  0  0  0  0  0  0
   49.4374  -31.0042 -101.4990 C   0  0  1  0  0  0  0  0  0  0  0  0
   50.6270  -31.5708 -100.9114 O   0  0  0  0  0  0  0  0  0  0  0  0
   48.6065  -30.2684 -100.4053 C   0  0  2  0  0  0  0  0  0  0  0  0
   45.2812  -26.8068 -105.8269 O   0  0  0  0  0  0  0  0  0  0  0  0
   44.2600  -31.9121 -102.9753 N   0  0  0  0  0  0  0  0  0  0  0  0
   45.5542  -32.1228 -103.3194 C   0  0  0  0  0  0  0  0  0  0  0  0
   46.5734  -31.6838 -102.5516 N   0  0  0  0  0  0  0  0  0  0  0  0
   46.3364  -30.9412 -101.4581 C   0  0  0  0  0  0  0  0  0  0  0  0
   44.9738  -30.6574 -101.0769 C   0  0  0  0  0  0  0  0  0  0  0  0
   43.9256  -31.1877 -101.8865 C   0  0  0  0  0  0  0  0  0  0  0  0
   42.6002  -30.9631 -101.5742 N   0  0  0  0  0  0  0  0  0  0  0  0
   45.0177  -29.9057  -99.9706 N   0  0  0  0  0  0  0  0  0  0  0  0
   46.2602  -29.6990  -99.6498 C   0  0  0  0  0  0  0  0  0  0  0  0
   47.1201  -30.3192 -100.5259 N   0  0  0  0  0  0  0  0  0  0  0  0
  2  1  1  6  0  0  0
  2  3  1  0  0  0  0
  2  5  1  0  0  0  0
  3  4  1  0  0  0  0
  3 17  1  0  0  0  0
  5  6  1  0  0  0  0
  7  6  1  6  0  0  0
  7  8  1  0  0  0  0
  7  9  1  0  0  0  0
 10  9  1  6  0  0  0
 10 11  1  0  0  0  0
 10 12  1  0  0  0  0
 11 16  1  0  0  0  0
 12 13  1  1  0  0  0
 12 14  1  0  0  0  0
 14 15  1  1  0  0  0
 14 16  1  0  0  0  0
 16 27  1  6  0  0  0
 18 19  2  0  0  0  0
 18 23  1  0  0  0  0
 19 20  1  0  0  0  0
 20 21  2  0  0  0  0
 21 22  1  0  0  0  0
 21 27  1  0  0  0  0
 22 23  2  0  0  0  0
 22 25  1  0  0  0  0
 23 24  1  0  0  0  0
 25 26  2  0  0  0  0
 26 27  1  0  0  0  0
M  END
>  <CHROM.1>
136.82893961,40.92026382,163.72717371,-95.36651612,-101.33859643,-0.10404719
114.43603809,46.81882310,-29.23040190,-102.41145182,-2.68765457,0.24949598
2.60702000

>  <Name>
ligand

>  <RI>
0

>  <Rbt.Current_Directory>
/home/itssahil/PROJECTS/Mol_Feturizer/Test_systems_manuscript/rnas/4l81

>  <Rbt.Executable>
rbdock ($Id: //depot/dev/client3/rdock/2013.1/src/exe/rbdock.cxx#4 $)

>  <Rbt.Library>
libRbt.so (2013.1, Build901 2013/11/27)

>  <Rbt.Parameter_File>
/export/apps/rDock/src/rDock_2013.1_src/data/scripts/dock_solv.prm

>  <Rbt.Receptor>
prm/pocket_docking_3.prm

>  <SCORE>
-14.6049

>  <SCORE.INTER>
-16.0453

>  <SCORE.INTER.CONST>
1

>  <SCORE.INTER.POLAR>
0

>  <SCORE.INTER.ROT>
7

>  <SCORE.INTER.SOLV>
18.3736

>  <SCORE.INTER.VDW>
-25.0881

>  <SCORE.INTER.norm>
-0.59427

>  <SCORE.INTRA>
1.44044

>  <SCORE.INTRA.DIHEDRAL>
6.46735

>  <SCORE.INTRA.DIHEDRAL.0>
8.34559

>  <SCORE.INTRA.POLAR>
0

>  <SCORE.INTRA.POLAR.0>
0

>  <SCORE.INTRA.REPUL>
0

>  <SCORE.INTRA.REPUL.0>
0

>  <SCORE.INTRA.SOLV>
2.02714

>  <SCORE.INTRA.SOLV.lig_0>
-48.829

>  <SCORE.INTRA.VDW>
-2.8068

>  <SCORE.INTRA.VDW.0>
-1.77092

>  <SCORE.INTRA.norm>
0.0533497

>  <SCORE.RESTR>
0

>  <SCORE.RESTR.CAVITY>
0

>  <SCORE.RESTR.norm>
0

>  <SCORE.SYSTEM>
0

>  <SCORE.SYSTEM.CONST>
0

>  <SCORE.SYSTEM.DIHEDRAL>
0

>  <SCORE.SYSTEM.SOLV>
0

>  <SCORE.SYSTEM.norm>
0

>  <SCORE.heavy>
27

>  <SCORE.norm>
-0.540921

>  <RMSD>
1.394

$$$$
ligand
 OpenBabel02271912153D
libRbt.so/2013.1/901 2013/11/27
 27 29  0  0  0  0  0  0  0  0999 V2000
   46.1033  -27.8080 -105.0563 N   0  0  0  0  0  0  0  0  0  0  0  0
   46.7372  -27.4758 -103.7755 C   0  0  2  0  0  0  0  0  0  0  0  0
   45.6939  -27.4841 -102.6782 C   0  0  0  0  0  0  0  0  0  0  0  0
   45.9910  -27.8488 -101.5506 O   0  0  0  0  0  0  0  0  0  0  0  0
   47.3979  -26.0913 -103.8213 C   0  0  0  0  0  0  0  0  0  0  0  0
   48.2722  -25.8679 -102.5955 C   0  0  0  0  0  0  0  0  0  0  0  0
   50.0086  -26.4072 -102.8347 S   0  0  2  0  0  0  0  0  0  0  0  0
   50.3519  -26.0203 -104.5817 C   0  0  0  0  0  0  0  0  0  0  0  0
   49.6317  -28.1505 -103.0008 C   0  0  0  0  0  0  0  0  0  0  0  0
   50.1155  -28.9876 -101.8467 C   0  0  1  0  0  0  0  0  0  0  0  0
   49.1431  -28.8896 -100.7923 O   0  0  0  0  0  0  0  0  0  0  0  0
   50.0200  -30.3606 -102.3790 C   0  0  1  0  0  0  0  0  0  0  0  0
   51.2983  -30.7807 -102.8532 O   0  0  0  0  0  0  0  0  0  0  0  0
   49.6395  -31.1516 -101.1659 C   0  0  1  0  0  0  0  0  0  0  0  0
   50.8192  -31.5607 -100.4432 O   0  0  0  0  0  0  0  0  0  0  0  0
   48.7820  -30.1975 -100.2813 C   0  0  2  0  0  0  0  0  0  0  0  0
   44.5605  -27.0965 -102.9018 O   0  0  0  0  0  0  0  0  0  0  0  0
   44.5065  -31.9004 -102.9306 N   0  0  0  0  0  0  0  0  0  0  0  0
   45.8091  -32.0646 -103.2684 C   0  0  0  0  0  0  0  0  0  0  0  0
   46.8088  -31.6160 -102.4807 N   0  0  0  0  0  0  0  0  0  0  0  0
   46.5412  -30.9087 -101.3709 C   0  0  0  0  0  0  0  0  0  0  0  0
   45.1679  -30.6744 -100.9948 C   0  0  0  0  0  0  0  0  0  0  0  0
   44.1423  -31.2140 -101.8268 C   0  0  0  0  0  0  0  0  0  0  0  0
   42.8083  -31.0360 -101.5208 N   0  0  0  0  0  0  0  0  0  0  0  0
   45.1808  -29.9503  -99.8695 N   0  0  0  0  0  0  0  0  0  0  0  0
   46.4140  -29.7159  -99.5325 C   0  0  0  0  0  0  0  0  0  0  0  0
   47.2988  -30.2882 -100.4164 N   0  0  0  0  0  0  0  0  0  0  0  0
  2  1  1  6  0  0  0
  2  3  1  0  0  0  0
  2  5  1  0  0  0  0
  3  4  1  0  0  0  0
  3 17  1  0  0  0  0
  5  6  1  0  0  0  0
  7  6  1  6  0  0  0
  7  8  1  0  0  0  0
  7  9  1  0  0  0  0
 10  9  1  6  0  0  0
 10 11  1  0  0  0  0
 10 12  1  0  0  0  0
 11 16  1  0  0  0  0
 12 13  1  1  0  0  0
 12 14  1  0  0  0  0
 14 15  1  1  0  0  0
 14 16  1  0  0  0  0
 16 27  1  6  0  0  0
 18 19  2  0  0  0  0
 18 23  1  0  0  0  0
 19 20  1  0  0  0  0
 20 21  2  0  0  0  0
 21 22  1  0  0  0  0
 21 27  1  0  0  0  0
 22 23  2  0  0  0  0
 22 25  1  0  0  0  0
 23 24  1  0  0  0  0
 25 26  2  0  0  0  0
 26 27  1  0  0  0  0
M  END
>  <CHROM.1>
145.97790721,-169.15638376,90.36784044,35.22021155,-111.09757553,82.38103093
99.95902467,47.56653485,-29.13533625,-102.15079398,0.60660547,-0.05637432
-0.46071120

>  <Name>
ligand

>  <RI>
0

>  <Rbt.Current_Directory>
/home/itssahil/PROJECTS/Mol_Feturizer/Test_systems_manuscript/rnas/4l81

>  <Rbt.Executable>
rbdock ($Id: //depot/dev/client3/rdock/2013.1/src/exe/rbdock.cxx#4 $)

>  <Rbt.Library>
libRbt.so (2013.1, Build901 2013/11/27)

>  <Rbt.Parameter_File>
/export/apps/rDock/src/rDock_2013.1_src/data/scripts/dock_solv.prm

>  <Rbt.Receptor>
prm/pocket_docking_4.prm

>  <SCORE>
-17.393

>  <SCORE.INTER>
-17.3047

>  <SCORE.INTER.CONST>
1

>  <SCORE.INTER.POLAR>
0

>  <SCORE.INTER.ROT>
7

>  <SCORE.INTER.SOLV>
16.4375

>  <SCORE.INTER.VDW>
-25.2823

>  <SCORE.INTER.norm>
-0.640914

>  <SCORE.INTRA>
-0.0882902

>  <SCORE.INTRA.DIHEDRAL>
3.9979

>  <SCORE.INTRA.DIHEDRAL.0>
8.34559

>  <SCORE.INTRA.POLAR>
0

>  <SCORE.INTRA.POLAR.0>
0

>  <SCORE.INTRA.REPUL>
0

>  <SCORE.INTRA.REPUL.0>
0

>  <SCORE.INTRA.SOLV>
-0.580368

>  <SCORE.INTRA.SOLV.lig_0>
-48.829

>  <SCORE.INTRA.VDW>
-1.79706

>  <SCORE.INTRA.VDW.0>
-1.77092

>  <SCORE.INTRA.norm>
-0.00327001

>  <SCORE.RESTR>
0

>  <SCORE.RESTR.CAVITY>
0

>  <SCORE.RESTR.norm>
0

>  <SCORE.SYSTEM>
0

>  <SCORE.SYSTEM.CONST>
0

>  <SCORE.SYSTEM.DIHEDRAL>
0

>  <SCORE.SYSTEM.SOLV>
0

>  <SCORE.SYSTEM.norm>
0

>  <SCORE.heavy>
27

>  <SCORE.norm>
-0.644184

>  <RMSD>
1.414

$$$$
ligand
 OpenBabel02271912153D
libRbt.so/2013.1/901 2013/11/27
 27 29  0  0  0  0  0  0  0  0999 V2000
   45.7374  -26.3280 -103.1830 N   0  0  0  0  0  0  0  0  0  0  0  0
   46.6689  -25.2311 -103.4689 C   0  0  2  0  0  0  0  0  0  0  0  0
   47.0535  -25.2636 -104.9330 C   0  0  0  0  0  0  0  0  0  0  0  0
   46.8061  -26.2490 -105.6116 O   0  0  0  0  0  0  0  0  0  0  0  0
   47.9419  -25.3430 -102.6191 C   0  0  0  0  0  0  0  0  0  0  0  0
   48.4899  -26.7628 -102.6493 C   0  0  0  0  0  0  0  0  0  0  0  0
   50.2506  -26.8504 -103.1548 S   0  0  2  0  0  0  0  0  0  0  0  0
   50.2268  -26.3743 -104.9133 C   0  0  0  0  0  0  0  0  0  0  0  0
   50.2921  -28.6311 -103.3452 C   0  0  0  0  0  0  0  0  0  0  0  0
   50.7027  -29.3646 -102.0962 C   0  0  1  0  0  0  0  0  0  0  0  0
   49.7169  -29.0987 -101.0841 O   0  0  0  0  0  0  0  0  0  0  0  0
   50.5373  -30.7795 -102.4813 C   0  0  1  0  0  0  0  0  0  0  0  0
   51.7980  -31.3196 -102.8744 O   0  0  0  0  0  0  0  0  0  0  0  0
   50.0869  -31.4121 -101.2011 C   0  0  1  0  0  0  0  0  0  0  0  0
   51.2258  -31.8065 -100.4083 O   0  0  0  0  0  0  0  0  0  0  0  0
   49.2694  -30.3214 -100.4462 C   0  0  2  0  0  0  0  0  0  0  0  0
   47.5818  -24.2967 -105.4535 O   0  0  0  0  0  0  0  0  0  0  0  0
   44.9555  -32.0504 -103.0150 N   0  0  0  0  0  0  0  0  0  0  0  0
   46.2528  -32.3218 -103.3001 C   0  0  0  0  0  0  0  0  0  0  0  0
   47.2610  -31.8498 -102.5374 N   0  0  0  0  0  0  0  0  0  0  0  0
   47.0131  -31.0162 -101.5141 C   0  0  0  0  0  0  0  0  0  0  0  0
   45.6486  -30.6672 -101.2000 C   0  0  0  0  0  0  0  0  0  0  0  0
   44.6100  -31.2328 -101.9980 C   0  0  0  0  0  0  0  0  0  0  0  0
   43.2829  -30.9493 -101.7467 N   0  0  0  0  0  0  0  0  0  0  0  0
   45.6813  -29.8310 -100.1557 N   0  0  0  0  0  0  0  0  0  0  0  0
   46.9191  -29.6321  -99.8129 C   0  0  0  0  0  0  0  0  0  0  0  0
   47.7865  -30.3425 -100.6096 N   0  0  0  0  0  0  0  0  0  0  0  0
  2  1  1  6  0  0  0
  2  3  1  0  0  0  0
  2  5  1  0  0  0  0
  3  4  1  0  0  0  0
  3 17  1  0  0  0  0
  5  6  1  0  0  0  0
  7  6  1  1  0  0  0
  7  8  1  0  0  0  0
  7  9  1  0  0  0  0
 10  9  1  6  0  0  0
 10 11  1  0  0  0  0
 10 12  1  0  0  0  0
 11 16  1  0  0  0  0
 12 13  1  1  0  0  0
 12 14  1  0  0  0  0
 14 15  1  1  0  0  0
 14 16  1  0  0  0  0
 16 27  1  6  0  0  0
 18 19  2  0  0  0  0
 18 23  1  0  0  0  0
 19 20  1  0  0  0  0
 20 21  2  0  0  0  0
 21 22  1  0  0  0  0
 21 27  1  0  0  0  0
 22 23  2  0  0  0  0
 22 25  1  0  0  0  0
 23 24  1  0  0  0  0
 25 26  2  0  0  0  0
 26 27  1  0  0  0  0
M  END
>  <CHROM.1>
-13.84054956,46.92803998,126.16663140,-68.64450262,-91.04575413,62.81546675
99.77643389,48.10273856,-28.92871534,-102.50968835,1.47893831,-0.03123906
-0.46463281

>  <Name>
ligand

>  <RI>
0

>  <Rbt.Current_Directory>
/home/itssahil/PROJECTS/Mol_Feturizer/Test_systems_manuscript/rnas/4l81

>  <Rbt.Executable>
rbdock ($Id: //depot/dev/client3/rdock/2013.1/src/exe/rbdock.cxx#4 $)

>  <Rbt.Library>
libRbt.so (2013.1, Build901 2013/11/27)

>  <Rbt.Parameter_File>
/export/apps/rDock/src/rDock_2013.1_src/data/scripts/dock_solv.prm

>  <Rbt.Receptor>
prm/pocket_docking_4.prm

>  <SCORE>
-16.6706

>  <SCORE.INTER>
-16.3124

>  <SCORE.INTER.CONST>
1

>  <SCORE.INTER.POLAR>
0

>  <SCORE.INTER.ROT>
7

>  <SCORE.INTER.SOLV>
18.8209

>  <SCORE.INTER.VDW>
-25.4152

>  <SCORE.INTER.norm>
-0.604161

>  <SCORE.INTRA>
-0.358293

>  <SCORE.INTRA.DIHEDRAL>
2.53746

>  <SCORE.INTRA.DIHEDRAL.0>
8.34559

>  <SCORE.INTRA.POLAR>
0

>  <SCORE.INTRA.POLAR.0>
0

>  <SCORE.INTRA.REPUL>
0

>  <SCORE.INTRA.REPUL.0>
0

>  <SCORE.INTRA.SOLV>
-0.382555

>  <SCORE.INTRA.SOLV.lig_0>
-48.829

>  <SCORE.INTRA.VDW>
-1.43574

>  <SCORE.INTRA.VDW.0>
-1.77092

>  <SCORE.INTRA.norm>
-0.0132701

>  <SCORE.RESTR>
0

>  <SCORE.RESTR.CAVITY>
0

>  <SCORE.RESTR.norm>
0

>  <SCORE.SYSTEM>
0

>  <SCORE.SYSTEM.CONST>
0

>  <SCORE.SYSTEM.DIHEDRAL>
0

>  <SCORE.SYSTEM.SOLV>
0

>  <SCORE.SYSTEM.norm>
0

>  <SCORE.heavy>
27

>  <SCORE.norm>
-0.617431

>  <RMSD>
1.423

$$$$
ligand
 OpenBabel02271912153D
libRbt.so/2013.1/901 2013/11/27
 27 29  0  0  0  0  0  0  0  0999 V2000
   45.8185  -25.6343 -103.3989 N   0  0  0  0  0  0  0  0  0  0  0  0
   46.0002  -27.0624 -103.6824 C   0  0  2  0  0  0  0  0  0  0  0  0
   45.4551  -27.8796 -102.5301 C   0  0  0  0  0  0  0  0  0  0  0  0
   46.0070  -27.8500 -101.4405 O   0  0  0  0  0  0  0  0  0  0  0  0
   47.4823  -27.4091 -103.8788 C   0  0  0  0  0  0  0  0  0  0  0  0
   48.3331  -26.7920 -102.7778 C   0  0  0  0  0  0  0  0  0  0  0  0
   50.1325  -26.8632 -103.1252 S   0  0  2  0  0  0  0  0  0  0  0  0
   50.2616  -26.3730 -104.8752 C   0  0  0  0  0  0  0  0  0  0  0  0
   50.2043  -28.6420 -103.3245 C   0  0  0  0  0  0  0  0  0  0  0  0
   50.6719  -29.3712 -102.0931 C   0  0  1  0  0  0  0  0  0  0  0  0
   49.6970  -29.1595 -101.0580 O   0  0  0  0  0  0  0  0  0  0  0  0
   50.5592  -30.7875 -102.4921 C   0  0  1  0  0  0  0  0  0  0  0  0
   51.8333  -31.2683 -102.9173 O   0  0  0  0  0  0  0  0  0  0  0  0
   50.1630  -31.4534 -101.2108 C   0  0  1  0  0  0  0  0  0  0  0  0
   51.3341  -31.8074 -100.4462 O   0  0  0  0  0  0  0  0  0  0  0  0
   49.3156  -30.4074 -100.4261 C   0  0  2  0  0  0  0  0  0  0  0  0
   44.4446  -28.5461 -102.6704 O   0  0  0  0  0  0  0  0  0  0  0  0
   45.0280  -31.9402 -103.1584 N   0  0  0  0  0  0  0  0  0  0  0  0
   46.3290  -32.0813 -103.5124 C   0  0  0  0  0  0  0  0  0  0  0  0
   47.3323  -31.6834 -102.7023 N   0  0  0  0  0  0  0  0  0  0  0  0
   47.0698  -31.0490 -101.5482 C   0  0  0  0  0  0  0  0  0  0  0  0
   45.6982  -30.8404 -101.1511 C   0  0  0  0  0  0  0  0  0  0  0  0
   44.6688  -31.3264 -102.0111 C   0  0  0  0  0  0  0  0  0  0  0  0
   43.3363  -31.1695 -101.6877 N   0  0  0  0  0  0  0  0  0  0  0  0
   45.7163  -30.1901  -99.9817 N   0  0  0  0  0  0  0  0  0  0  0  0
   46.9511  -29.9768  -99.6364 C   0  0  0  0  0  0  0  0  0  0  0  0
   47.8318  -30.4905 -100.5595 N   0  0  0  0  0  0  0  0  0  0  0  0
  2  1  1  1  0  0  0
  2  3  1  0  0  0  0
  2  5  1  0  0  0  0
  3  4  1  0  0  0  0
  3 17  1  0  0  0  0
  5  6  1  0  0  0  0
  7  6  1  6  0  0  0
  7  8  1  0  0  0  0
  7  9  1  0  0  0  0
 10  9  1  6  0  0  0
 10 11  1  0  0  0  0
 10 12  1  0  0  0  0
 11 16  1  0  0  0  0
 12 13  1  1  0  0  0
 12 14  1  0  0  0  0
 14 15  1  1  0  0  0
 14 16  1  0  0  0  0
 16 27  1  6  0  0  0
 18 19  2  0  0  0  0
 18 23  1  0  0  0  0
 19 20  1  0  0  0  0
 20 21  2  0  0  0  0
 21 22  1  0  0  0  0
 21 27  1  0  0  0  0
 22 23  2  0  0  0  0
 22 25  1  0  0  0  0
 23 24  1  0  0  0  0
 25 26  2  0  0  0  0
 26 27  1  0  0  0  0
M  END
>  <CHROM.1>
-67.80267439,46.90471325,-168.05907805,43.97813506,-98.12635489,64.35529146
90.73263831,47.86639313,-29.39559656,-102.21493655,2.93468572,-0.01731849
2.72460848

>  <Name>
ligand

>  <RI>
0

>  <Rbt.Current_Directory>
/home/itssahil/PROJECTS/Mol_Feturizer/Test_systems_manuscript/rnas/4l81

>  <Rbt.Executable>
rbdock ($Id: //depot/dev/client3/rdock/2013.1/src/exe/rbdock.cxx#4 $)

>  <Rbt.Library>
libRbt.so (2013.1, Build901 2013/11/27)

>  <Rbt.Parameter_File>
/export/apps/rDock/src/rDock_2013.1_src/data/scripts/dock_solv.prm

>  <Rbt.Receptor>
prm/pocket_docking_3.prm

>  <SCORE>
-18.1912

>  <SCORE.INTER>
-15.9985

>  <SCORE.INTER.CONST>
1

>  <SCORE.INTER.POLAR>
0

>  <SCORE.INTER.ROT>
7

>  <SCORE.INTER.SOLV>
19.1633

>  <SCORE.INTER.VDW>
-25.3201

>  <SCORE.INTER.norm>
-0.592537

>  <SCORE.INTRA>
-2.19274

>  <SCORE.INTRA.DIHEDRAL>
-1.4293

>  <SCORE.INTRA.DIHEDRAL.0>
8.34559

>  <SCORE.INTRA.POLAR>
0

>  <SCORE.INTRA.POLAR.0>
0

>  <SCORE.INTRA.REPUL>
0

>  <SCORE.INTRA.REPUL.0>
0

>  <SCORE.INTRA.SOLV>
0.589953

>  <SCORE.INTRA.SOLV.lig_0>
-48.829

>  <SCORE.INTRA.VDW>
-1.77307

>  <SCORE.INTRA.VDW.0>
-1.77092

>  <SCORE.INTRA.norm>
-0.0812125

>  <SCORE.RESTR>
0

>  <SCORE.RESTR.CAVITY>
0

>  <SCORE.RESTR.norm>
0

>  <SCORE.SYSTEM>
0

>  <SCORE.SYSTEM.CONST>
0

>  <SCORE.SYSTEM.DIHEDRAL>
0

>  <SCORE.SYSTEM.SOLV>
0

>  <SCORE.SYSTEM.norm>
0

>  <SCORE.heavy>
27

>  <SCORE.norm>
-0.67375

>  <RMSD>
1.438

$$$$
ligand
 OpenBabel02271912153D
libRbt.so/2013.1/901 2013/11/27
 27 29  0  0  0  0  0  0  0  0999 V2000
   45.0400  -27.8632 -105.6187 N   0  0  0  0  0  0  0  0  0  0  0  0
   46.0986  -27.3478 -104.7433 C   0  0  2  0  0  0  0  0  0  0  0  0
   45.5463  -27.1442 -103.3482 C   0  0  0  0  0  0  0  0  0  0  0  0
   46.1894  -27.5047 -102.3740 O   0  0  0  0  0  0  0  0  0  0  0  0
   46.6487  -26.0110 -105.2588 C   0  0  0  0  0  0  0  0  0  0  0  0
   48.1570  -25.9365 -105.0676 C   0  0  0  0  0  0  0  0  0  0  0  0
   48.6793  -26.1606 -103.3240 S   0  0  2  0  0  0  0  0  0  0  0  0
   50.3376  -25.4085 -103.2621 C   0  0  0  0  0  0  0  0  0  0  0  0
   49.1551  -27.8785 -103.5008 C   0  0  0  0  0  0  0  0  0  0  0  0
   49.7075  -28.4871 -102.2393 C   0  0  1  0  0  0  0  0  0  0  0  0
   48.7167  -28.3404 -101.2080 O   0  0  0  0  0  0  0  0  0  0  0  0
   49.7606  -29.9246 -102.5686 C   0  0  1  0  0  0  0  0  0  0  0  0
   51.0813  -30.2734 -102.9800 O   0  0  0  0  0  0  0  0  0  0  0  0
   49.4479  -30.5688 -101.2536 C   0  0  1  0  0  0  0  0  0  0  0  0
   50.6540  -30.7458 -100.4819 O   0  0  0  0  0  0  0  0  0  0  0  0
   48.4854  -29.5920 -100.5136 C   0  0  2  0  0  0  0  0  0  0  0  0
   44.4732  -26.5905 -103.1845 O   0  0  0  0  0  0  0  0  0  0  0  0
   44.4294  -31.9765 -102.9755 N   0  0  0  0  0  0  0  0  0  0  0  0
   45.7434  -32.0282 -103.3052 C   0  0  0  0  0  0  0  0  0  0  0  0
   46.6856  -31.4058 -102.5664 N   0  0  0  0  0  0  0  0  0  0  0  0
   46.3389  -30.6356 -101.5223 C   0  0  0  0  0  0  0  0  0  0  0  0
   44.9469  -30.5187 -101.1604 C   0  0  0  0  0  0  0  0  0  0  0  0
   43.9888  -31.2381 -101.9350 C   0  0  0  0  0  0  0  0  0  0  0  0
   42.6424  -31.1789 -101.6381 N   0  0  0  0  0  0  0  0  0  0  0  0
   44.8771  -29.7002 -100.1040 N   0  0  0  0  0  0  0  0  0  0  0  0
   46.0764  -29.3047  -99.7965 C   0  0  0  0  0  0  0  0  0  0  0  0
   47.0213  -29.8543 -100.6313 N   0  0  0  0  0  0  0  0  0  0  0  0
  2  1  1  6  0  0  0
  2  3  1  0  0  0  0
  2  5  1  0  0  0  0
  3  4  1  0  0  0  0
  3 17  1  0  0  0  0
  5  6  1  0  0  0  0
  7  6  1  6  0  0  0
  7  8  1  0  0  0  0
  7  9  1  0  0  0  0
 10  9  1  6  0  0  0
 10 11  1  0  0  0  0
 10 12  1  0  0  0  0
 11 16  1  0  0  0  0
 12 13  1  1  0  0  0
 12 14  1  0  0  0  0
 14 15  1  1  0  0  0
 14 16  1  0  0  0  0
 16 27  1  6  0  0  0
 18 19  2  0  0  0  0
 18 23  1  0  0  0  0
 19 20  1  0  0  0  0
 20 21  2  0  0  0  0
 21 22  1  0  0  0  0
 21 27  1  0  0  0  0
 22 23  2  0  0  0  0
 22 25  1  0  0  0  0
 23 24  1  0  0  0  0
 25 26  2  0  0  0  0
 26 27  1  0  0  0  0
M  END
>  <CHROM.1>
135.80092976,-141.11961891,-57.24186417,-158.79786946,178.49785869,56.94575350
96.77909496,47.21336039,-28.83572686,-102.51826884,2.37582500,0.16239788
2.56255058

>  <Name>
ligand

>  <RI>
0

>  <Rbt.Current_Directory>
/home/itssahil/PROJECTS/Mol_Feturizer/Test_systems_manuscript/rnas/4l81

>  <Rbt.Executable>
rbdock ($Id: //depot/dev/client3/rdock/2013.1/src/exe/rbdock.cxx#4 $)

>  <Rbt.Library>
libRbt.so (2013.1, Build901 2013/11/27)

>  <Rbt.Parameter_File>
/export/apps/rDock/src/rDock_2013.1_src/data/scripts/dock_solv.prm

>  <Rbt.Receptor>
prm/pocket_docking_2.prm

>  <SCORE>
-16.1225

>  <SCORE.INTER>
-12.905

>  <SCORE.INTER.CONST>
1

>  <SCORE.INTER.POLAR>
0

>  <SCORE.INTER.ROT>
7

>  <SCORE.INTER.SOLV>
17.9752

>  <SCORE.INTER.VDW>
-22.8617

>  <SCORE.INTER.norm>
-0.477962

>  <SCORE.INTRA>
-3.24752

>  <SCORE.INTRA.DIHEDRAL>
1.46788

>  <SCORE.INTRA.DIHEDRAL.0>
8.34559

>  <SCORE.INTRA.POLAR>
0

>  <SCORE.INTRA.POLAR.0>
0

>  <SCORE.INTRA.REPUL>
0

>  <SCORE.INTRA.REPUL.0>
0

>  <SCORE.INTRA.SOLV>
-0.929175

>  <SCORE.INTRA.SOLV.lig_0>
-48.829

>  <SCORE.INTRA.VDW>
-3.51687

>  <SCORE.INTRA.VDW.0>
-1.77092

>  <SCORE.INTRA.norm>
-0.120278

>  <SCORE.RESTR>
0.0299537

>  <SCORE.RESTR.CAVITY>
0.0299537

>  <SCORE.RESTR.norm>
0.0011094

>  <SCORE.SYSTEM>
0

>  <SCORE.SYSTEM.CONST>
0

>  <SCORE.SYSTEM.DIHEDRAL>
0

>  <SCORE.SYSTEM.SOLV>
0

>  <SCORE.SYSTEM.norm>
0

>  <SCORE.heavy>
27

>  <SCORE.norm>
-0.597131

>  <RMSD>
1.452

$$$$
ligand
 OpenBabel02271912153D
libRbt.so/2013.1/901 2013/11/27
 27 29  0  0  0  0  0  0  0  0999 V2000
   46.4563  -25.4729 -104.5208 N   0  0  0  0  0  0  0  0  0  0  0  0
   45.7497  -26.6487 -105.0415 C   0  0  2  0  0  0  0  0  0  0  0  0
   44.9742  -27.3093 -103.9212 C   0  0  0  0  0  0  0  0  0  0  0  0
   44.5614  -28.4519 -104.0502 O   0  0  0  0  0  0  0  0  0  0  0  0
   46.7279  -27.6703 -105.6371 C   0  0  0  0  0  0  0  0  0  0  0  0
   48.0825  -27.5884 -104.9476 C   0  0  0  0  0  0  0  0  0  0  0  0
   48.1278  -28.4548 -103.3318 S   0  0  2  0  0  0  0  0  0  0  0  0
   47.6810  -27.1624 -102.1278 C   0  0  0  0  0  0  0  0  0  0  0  0
   49.9094  -28.4032 -103.1528 C   0  0  0  0  0  0  0  0  0  0  0  0
   50.4306  -29.2611 -102.0307 C   0  0  1  0  0  0  0  0  0  0  0  0
   49.5273  -29.1314 -100.9198 O   0  0  0  0  0  0  0  0  0  0  0  0
   50.2536  -30.6280 -102.5579 C   0  0  1  0  0  0  0  0  0  0  0  0
   51.4851  -31.0925 -103.1083 O   0  0  0  0  0  0  0  0  0  0  0  0
   49.9179  -31.4087 -101.3250 C   0  0  1  0  0  0  0  0  0  0  0  0
   51.1230  -31.8626 -100.6748 O   0  0  0  0  0  0  0  0  0  0  0  0
   49.1500  -30.4271 -100.3896 C   0  0  2  0  0  0  0  0  0  0  0  0
   44.7845  -26.7201 -102.8715 O   0  0  0  0  0  0  0  0  0  0  0  0
   44.6626  -31.6881 -102.9334 N   0  0  0  0  0  0  0  0  0  0  0  0
   45.9353  -31.8426 -103.3743 C   0  0  0  0  0  0  0  0  0  0  0  0
   46.9967  -31.5182 -102.6068 N   0  0  0  0  0  0  0  0  0  0  0  0
   46.8229  -30.9444 -101.4051 C   0  0  0  0  0  0  0  0  0  0  0  0
   45.4844  -30.7231 -100.9132 C   0  0  0  0  0  0  0  0  0  0  0  0
   44.3913  -31.1319 -101.7338 C   0  0  0  0  0  0  0  0  0  0  0  0
   43.0859  -30.9590 -101.3207 N   0  0  0  0  0  0  0  0  0  0  0  0
   45.5920  -30.1416  -99.7128 N   0  0  0  0  0  0  0  0  0  0  0  0
   46.8510  -29.9808  -99.4329 C   0  0  0  0  0  0  0  0  0  0  0  0
   47.6591  -30.4636 -100.4357 N   0  0  0  0  0  0  0  0  0  0  0  0
  2  1  1  1  0  0  0
  2  3  1  0  0  0  0
  2  5  1  0  0  0  0
  3  4  1  0  0  0  0
  3 17  1  0  0  0  0
  5  6  1  0  0  0  0
  7  6  1  6  0  0  0
  7  8  1  0  0  0  0
  7  9  1  0  0  0  0
 10  9  1  6  0  0  0
 10 11  1  0  0  0  0
 10 12  1  0  0  0  0
 11 16  1  0  0  0  0
 12 13  1  1  0  0  0
 12 14  1  0  0  0  0
 14 15  1  1  0  0  0
 14 16  1  0  0  0  0
 16 27  1  6  0  0  0
 18 19  2  0  0  0  0
 18 23  1  0  0  0  0
 19 20  1  0  0  0  0
 20 21  2  0  0  0  0
 21 22  1  0  0  0  0
 21 27  1  0  0  0  0
 22 23  2  0  0  0  0
 22 25  1  0  0  0  0
 23 24  1  0  0  0  0
 25 26  2  0  0  0  0
 26 27  1  0  0  0  0
M  END
>  <CHROM.1>
-163.64601413,28.91490221,79.77605232,-91.53781140,-169.09795764,-39.87582235
93.14399688,47.36556794,-29.43764808,-102.44937179,-2.46910658,-0.00984781
2.45941332

>  <Name>
ligand

>  <RI>
0

>  <Rbt.Current_Directory>
/home/itssahil/PROJECTS/Mol_Feturizer/Test_systems_manuscript/rnas/4l81

>  <Rbt.Executable>
rbdock ($Id: //depot/dev/client3/rdock/2013.1/src/exe/rbdock.cxx#4 $)

>  <Rbt.Library>
libRbt.so (2013.1, Build901 2013/11/27)

>  <Rbt.Parameter_File>
/export/apps/rDock/src/rDock_2013.1_src/data/scripts/dock_solv.prm

>  <Rbt.Receptor>
prm/pocket_docking_2.prm

>  <SCORE>
-12.3801

>  <SCORE.INTER>
-12.9118

>  <SCORE.INTER.CONST>
1

>  <SCORE.INTER.POLAR>
0

>  <SCORE.INTER.ROT>
7

>  <SCORE.INTER.SOLV>
17.1166

>  <SCORE.INTER.VDW>
-22.5801

>  <SCORE.INTER.norm>
-0.478217

>  <SCORE.INTRA>
0.471661

>  <SCORE.INTRA.DIHEDRAL>
2.92173

>  <SCORE.INTRA.DIHEDRAL.0>
8.34559

>  <SCORE.INTRA.POLAR>
0

>  <SCORE.INTRA.POLAR.0>
0

>  <SCORE.INTRA.REPUL>
0

>  <SCORE.INTRA.REPUL.0>
0

>  <SCORE.INTRA.SOLV>
1.88246

>  <SCORE.INTRA.SOLV.lig_0>
-48.829

>  <SCORE.INTRA.VDW>
-1.93043

>  <SCORE.INTRA.VDW.0>
-1.77092

>  <SCORE.INTRA.norm>
0.0174689

>  <SCORE.RESTR>
0.0600854

>  <SCORE.RESTR.CAVITY>
0.0600854

>  <SCORE.RESTR.norm>
0.00222538

>  <SCORE.SYSTEM>
0

>  <SCORE.SYSTEM.CONST>
0

>  <SCORE.SYSTEM.DIHEDRAL>
0

>  <SCORE.SYSTEM.SOLV>
0

>  <SCORE.SYSTEM.norm>
0

>  <SCORE.heavy>
27

>  <SCORE.norm>
-0.458522

>  <RMSD>
1.466

$$$$
ligand
 OpenBabel02271912153D
libRbt.so/2013.1/901 2013/11/27
 27 29  0  0  0  0  0  0  0  0999 V2000
   44.4516  -27.3560 -105.6734 N   0  0  0  0  0  0  0  0  0  0  0  0
   45.6169  -27.6342 -104.8264 C   0  0  2  0  0  0  0  0  0  0  0  0
   45.3073  -27.2432 -103.3967 C   0  0  0  0  0  0  0  0  0  0  0  0
   45.1097  -26.0724 -103.1089 O   0  0  0  0  0  0  0  0  0  0  0  0
   46.8503  -26.8523 -105.2984 C   0  0  0  0  0  0  0  0  0  0  0  0
   48.1300  -27.6033 -104.9587 C   0  0  0  0  0  0  0  0  0  0  0  0
   48.2835  -28.0062 -103.1762 S   0  0  2  0  0  0  0  0  0  0  0  0
   48.4317  -26.3793 -102.3695 C   0  0  0  0  0  0  0  0  0  0  0  0
   50.0184  -28.4471 -103.2428 C   0  0  0  0  0  0  0  0  0  0  0  0
   50.4878  -29.2409 -102.0527 C   0  0  1  0  0  0  0  0  0  0  0  0
   49.5455  -29.0364 -100.9863 O   0  0  0  0  0  0  0  0  0  0  0  0
   50.3147  -30.6353 -102.5037 C   0  0  1  0  0  0  0  0  0  0  0  0
   51.5604  -31.1434 -102.9787 O   0  0  0  0  0  0  0  0  0  0  0  0
   49.9247  -31.3374 -101.2400 C   0  0  1  0  0  0  0  0  0  0  0  0
   51.0997  -31.7626 -100.5189 O   0  0  0  0  0  0  0  0  0  0  0  0
   49.1340  -30.2944 -100.3944 C   0  0  2  0  0  0  0  0  0  0  0  0
   45.2202  -28.0949 -102.5296 O   0  0  0  0  0  0  0  0  0  0  0  0
   44.7259  -31.8300 -102.9257 N   0  0  0  0  0  0  0  0  0  0  0  0
   46.0116  -32.0559 -103.2916 C   0  0  0  0  0  0  0  0  0  0  0  0
   47.0484  -31.6448 -102.5320 N   0  0  0  0  0  0  0  0  0  0  0  0
   46.8388  -30.9151 -101.4243 C   0  0  0  0  0  0  0  0  0  0  0  0
   45.4865  -30.6157 -101.0193 C   0  0  0  0  0  0  0  0  0  0  0  0
   44.4186  -31.1171 -101.8215 C   0  0  0  0  0  0  0  0  0  0  0  0
   43.1015  -30.8763 -101.4868 N   0  0  0  0  0  0  0  0  0  0  0  0
   45.5581  -29.8817  -99.9026 N   0  0  0  0  0  0  0  0  0  0  0  0
   46.8082  -29.6996  -99.5967 C   0  0  0  0  0  0  0  0  0  0  0  0
   47.6455  -30.3198 -100.4943 N   0  0  0  0  0  0  0  0  0  0  0  0
  2  1  1  6  0  0  0
  2  3  1  0  0  0  0
  2  5  1  0  0  0  0
  3  4  1  0  0  0  0
  3 17  1  0  0  0  0
  5  6  1  0  0  0  0
  7  6  1  6  0  0  0
  7  8  1  0  0  0  0
  7  9  1  0  0  0  0
 10  9  1  6  0  0  0
 10 11  1  0  0  0  0
 10 12  1  0  0  0  0
 11 16  1  0  0  0  0
 12 13  1  1  0  0  0
 12 14  1  0  0  0  0
 14 15  1  1  0  0  0
 14 16  1  0  0  0  0
 16 27  1  6  0  0  0
 18 19  2  0  0  0  0
 18 23  1  0  0  0  0
 19 20  1  0  0  0  0
 20 21  2  0  0  0  0
 21 22  1  0  0  0  0
 21 27  1  0  0  0  0
 22 23  2  0  0  0  0
 22 25  1  0  0  0  0
 23 24  1  0  0  0  0
 25 26  2  0  0  0  0
 26 27  1  0  0  0  0
M  END
>  <CHROM.1>
-65.17844569,-150.90056232,-55.65674850,-65.56438703,-162.83122609,-19.57610932
97.30612337,47.40341174,-29.37288629,-102.41104440,-2.56230572,0.03441623
2.50690813

>  <Name>
ligand

>  <RI>
0

>  <Rbt.Current_Directory>
/home/itssahil/PROJECTS/Mol_Feturizer/Test_systems_manuscript/rnas/4l81

>  <Rbt.Executable>
rbdock ($Id: //depot/dev/client3/rdock/2013.1/src/exe/rbdock.cxx#4 $)

>  <Rbt.Library>
libRbt.so (2013.1, Build901 2013/11/27)

>  <Rbt.Parameter_File>
/export/apps/rDock/src/rDock_2013.1_src/data/scripts/dock_solv.prm

>  <Rbt.Receptor>
prm/pocket_docking_2.prm

>  <SCORE>
-14.3496

>  <SCORE.INTER>
-12.7311

>  <SCORE.INTER.CONST>
1

>  <SCORE.INTER.POLAR>
0

>  <SCORE.INTER.ROT>
7

>  <SCORE.INTER.SOLV>
18.8513

>  <SCORE.INTER.VDW>
-23.0379

>  <SCORE.INTER.norm>
-0.471524

>  <SCORE.INTRA>
-1.61841

>  <SCORE.INTRA.DIHEDRAL>
3.2339

>  <SCORE.INTRA.DIHEDRAL.0>
8.34559

>  <SCORE.INTRA.POLAR>
0

>  <SCORE.INTRA.POLAR.0>
0

>  <SCORE.INTRA.REPUL>
0

>  <SCORE.INTRA.REPUL.0>
0

>  <SCORE.INTRA.SOLV>
-0.552738

>  <SCORE.INTRA.SOLV.lig_0>
-48.829

>  <SCORE.INTRA.VDW>
-2.95899

>  <SCORE.INTRA.VDW.0>
-1.77092

>  <SCORE.INTRA.norm>
-0.059941

>  <SCORE.RESTR>
0

>  <SCORE.RESTR.CAVITY>
0

>  <SCORE.RESTR.norm>
0

>  <SCORE.SYSTEM>
0

>  <SCORE.SYSTEM.CONST>
0

>  <SCORE.SYSTEM.DIHEDRAL>
0

>  <SCORE.SYSTEM.SOLV>
0

>  <SCORE.SYSTEM.norm>
0

>  <SCORE.heavy>
27

>  <SCORE.norm>
-0.531465

>  <RMSD>
1.478

$$$$
ligand
 OpenBabel02271912153D
libRbt.so/2013.1/901 2013/11/27
 27 29  0  0  0  0  0  0  0  0999 V2000
   46.4209  -28.4112 -105.0446 N   0  0  0  0  0  0  0  0  0  0  0  0
   46.2226  -27.8198 -103.7165 C   0  0  2  0  0  0  0  0  0  0  0  0
   44.8856  -28.2629 -103.1607 C   0  0  0  0  0  0  0  0  0  0  0  0
   44.6303  -28.1065 -101.9762 O   0  0  0  0  0  0  0  0  0  0  0  0
   46.2507  -26.2866 -103.7776 C   0  0  0  0  0  0  0  0  0  0  0  0
   47.6563  -25.7823 -104.0725 C   0  0  0  0  0  0  0  0  0  0  0  0
   48.8180  -26.0114 -102.6721 S   0  0  2  0  0  0  0  0  0  0  0  0
   50.3744  -25.2747 -103.2676 C   0  0  0  0  0  0  0  0  0  0  0  0
   49.1719  -27.7336 -103.0151 C   0  0  0  0  0  0  0  0  0  0  0  0
   49.7000  -28.4920 -101.8266 C   0  0  1  0  0  0  0  0  0  0  0  0
   48.6698  -28.5145 -100.8241 O   0  0  0  0  0  0  0  0  0  0  0  0
   49.8118  -29.8695 -102.3440 C   0  0  1  0  0  0  0  0  0  0  0  0
   51.1568  -30.1222 -102.7472 O   0  0  0  0  0  0  0  0  0  0  0  0
   49.4752  -30.6948 -101.1408 C   0  0  1  0  0  0  0  0  0  0  0  0
   50.6590  -30.9410 -100.3539 O   0  0  0  0  0  0  0  0  0  0  0  0
   48.4560  -29.8547 -100.3140 C   0  0  2  0  0  0  0  0  0  0  0  0
   44.0425  -28.7477 -103.8949 O   0  0  0  0  0  0  0  0  0  0  0  0
   44.5837  -32.1380 -103.1405 N   0  0  0  0  0  0  0  0  0  0  0  0
   45.9127  -32.1364 -103.4079 C   0  0  0  0  0  0  0  0  0  0  0  0
   46.8026  -31.5501 -102.5801 N   0  0  0  0  0  0  0  0  0  0  0  0
   46.3872  -30.8673 -101.5009 C   0  0  0  0  0  0  0  0  0  0  0  0
   44.9770  -30.8081 -101.2004 C   0  0  0  0  0  0  0  0  0  0  0  0
   44.0755  -31.4887 -102.0718 C   0  0  0  0  0  0  0  0  0  0  0  0
   42.7153  -31.4812 -101.8381 N   0  0  0  0  0  0  0  0  0  0  0  0
   44.8362  -30.0719 -100.0918 N   0  0  0  0  0  0  0  0  0  0  0  0
   46.0092  -29.6742  -99.6975 C   0  0  0  0  0  0  0  0  0  0  0  0
   47.0063  -30.1396 -100.5226 N   0  0  0  0  0  0  0  0  0  0  0  0
  2  1  1  6  0  0  0
  2  3  1  0  0  0  0
  2  5  1  0  0  0  0
  3  4  1  0  0  0  0
  3 17  1  0  0  0  0
  5  6  1  0  0  0  0
  7  6  1  6  0  0  0
  7  8  1  0  0  0  0
  7  9  1  0  0  0  0
 10  9  1  6  0  0  0
 10 11  1  0  0  0  0
 10 12  1  0  0  0  0
 11 16  1  0  0  0  0
 12 13  1  1  0  0  0
 12 14  1  0  0  0  0
 14 15  1  1  0  0  0
 14 16  1  0  0  0  0
 16 27  1  6  0  0  0
 18 19  2  0  0  0  0
 18 23  1  0  0  0  0
 19 20  1  0  0  0  0
 20 21  2  0  0  0  0
 21 22  1  0  0  0  0
 21 27  1  0  0  0  0
 22 23  2  0  0  0  0
 22 25  1  0  0  0  0
 23 24  1  0  0  0  0
 25 26  2  0  0  0  0
 26 27  1  0  0  0  0
M  END
>  <CHROM.1>
165.70753810,-70.10822066,-70.65832076,-177.87677084,-158.59471606,63.88017402
100.40669812,47.16761912,-29.10443032,-102.26265928,0.57825185,-0.21636465
-0.46905628

>  <Name>
ligand

>  <RI>
0

>  <Rbt.Current_Directory>
/home/itssahil/PROJECTS/Mol_Feturizer/Test_systems_manuscript/rnas/4l81

>  <Rbt.Executable>
rbdock ($Id: //depot/dev/client3/rdock/2013.1/src/exe/rbdock.cxx#4 $)

>  <Rbt.Library>
libRbt.so (2013.1, Build901 2013/11/27)

>  <Rbt.Parameter_File>
/export/apps/rDock/src/rDock_2013.1_src/data/scripts/dock_solv.prm

>  <Rbt.Receptor>
prm/pocket_docking_4.prm

>  <SCORE>
-19.4744

>  <SCORE.INTER>
-15.3489

>  <SCORE.INTER.CONST>
1

>  <SCORE.INTER.POLAR>
0

>  <SCORE.INTER.ROT>
7

>  <SCORE.INTER.SOLV>
16.6592

>  <SCORE.INTER.VDW>
-24.0524

>  <SCORE.INTER.norm>
-0.568479

>  <SCORE.INTRA>
-4.12544

>  <SCORE.INTRA.DIHEDRAL>
-1.77916

>  <SCORE.INTRA.DIHEDRAL.0>
8.34559

>  <SCORE.INTRA.POLAR>
0

>  <SCORE.INTRA.POLAR.0>
0

>  <SCORE.INTRA.REPUL>
0

>  <SCORE.INTRA.REPUL.0>
0

>  <SCORE.INTRA.SOLV>
1.16308

>  <SCORE.INTRA.SOLV.lig_0>
-48.829

>  <SCORE.INTRA.VDW>
-3.8174

>  <SCORE.INTRA.VDW.0>
-1.77092

>  <SCORE.INTRA.norm>
-0.152794

>  <SCORE.RESTR>
0

>  <SCORE.RESTR.CAVITY>
0

>  <SCORE.RESTR.norm>
0

>  <SCORE.SYSTEM>
0

>  <SCORE.SYSTEM.CONST>
0

>  <SCORE.SYSTEM.DIHEDRAL>
0

>  <SCORE.SYSTEM.SOLV>
0

>  <SCORE.SYSTEM.norm>
0

>  <SCORE.heavy>
27

>  <SCORE.norm>
-0.721273

>  <RMSD>
1.482

$$$$
ligand
 OpenBabel02271912153D
libRbt.so/2013.1/901 2013/11/27
 27 29  0  0  0  0  0  0  0  0999 V2000
   47.0274  -24.2455 -104.0546 N   0  0  0  0  0  0  0  0  0  0  0  0
   47.4096  -25.6453 -103.8375 C   0  0  2  0  0  0  0  0  0  0  0  0
   46.1689  -26.5133 -103.8354 C   0  0  0  0  0  0  0  0  0  0  0  0
   46.1396  -27.5450 -104.4892 O   0  0  0  0  0  0  0  0  0  0  0  0
   48.1421  -25.8239 -102.5008 C   0  0  0  0  0  0  0  0  0  0  0  0
   48.8366  -27.1770 -102.4406 C   0  0  0  0  0  0  0  0  0  0  0  0
   50.5057  -27.1704 -103.2006 S   0  0  2  0  0  0  0  0  0  0  0  0
   50.1989  -26.6845 -104.9296 C   0  0  0  0  0  0  0  0  0  0  0  0
   50.6075  -28.9453 -103.4204 C   0  0  0  0  0  0  0  0  0  0  0  0
   51.0555  -29.6837 -102.1871 C   0  0  1  0  0  0  0  0  0  0  0  0
   50.1738  -29.3211 -101.1110 O   0  0  0  0  0  0  0  0  0  0  0  0
   50.7527  -31.0886 -102.5221 C   0  0  1  0  0  0  0  0  0  0  0  0
   51.9341  -31.7338 -102.9947 O   0  0  0  0  0  0  0  0  0  0  0  0
   50.3549  -31.6583 -101.1957 C   0  0  1  0  0  0  0  0  0  0  0  0
   51.5178  -32.1251 -100.4808 O   0  0  0  0  0  0  0  0  0  0  0  0
   49.6841  -30.4918 -100.4099 C   0  0  2  0  0  0  0  0  0  0  0  0
   45.2038  -26.2080 -103.1569 O   0  0  0  0  0  0  0  0  0  0  0  0
   45.0915  -31.6256 -102.8225 N   0  0  0  0  0  0  0  0  0  0  0  0
   46.3434  -31.9424 -103.2352 C   0  0  0  0  0  0  0  0  0  0  0  0
   47.4328  -31.6295 -102.5027 N   0  0  0  0  0  0  0  0  0  0  0  0
   47.3160  -30.9102 -101.3747 C   0  0  0  0  0  0  0  0  0  0  0  0
   46.0047  -30.5158 -100.9193 C   0  0  0  0  0  0  0  0  0  0  0  0
   44.8760  -30.9153 -101.6951 C   0  0  0  0  0  0  0  0  0  0  0  0
   43.5930  -30.5806 -101.3122 N   0  0  0  0  0  0  0  0  0  0  0  0
   46.1687  -29.8142  -99.7916 N   0  0  0  0  0  0  0  0  0  0  0  0
   47.4382  -29.7362  -99.5239 C   0  0  0  0  0  0  0  0  0  0  0  0
   48.1958  -30.3997 -100.4607 N   0  0  0  0  0  0  0  0  0  0  0  0
  2  1  1  1  0  0  0
  2  3  1  0  0  0  0
  2  5  1  0  0  0  0
  3  4  1  0  0  0  0
  3 17  1  0  0  0  0
  5  6  1  0  0  0  0
  7  6  1  1  0  0  0
  7  8  1  0  0  0  0
  7  9  1  0  0  0  0
 10  9  1  6  0  0  0
 10 11  1  0  0  0  0
 10 12  1  0  0  0  0
 11 16  1  0  0  0  0
 12 13  1  1  0  0  0
 12 14  1  0  0  0  0
 14 15  1  1  0  0  0
 14 16  1  0  0  0  0
 16 27  1  6  0  0  0
 18 19  2  0  0  0  0
 18 23  1  0  0  0  0
 19 20  1  0  0  0  0
 20 21  2  0  0  0  0
 21 22  1  0  0  0  0
 21 27  1  0  0  0  0
 22 23  2  0  0  0  0
 22 25  1  0  0  0  0
 23 24  1  0  0  0  0
 25 26  2  0  0  0  0
 26 27  1  0  0  0  0
M  END
>  <CHROM.1>
132.68160659,-165.66140723,85.47716416,-59.91807376,-83.04730634,54.97003356
91.70810128,48.25214596,-29.13230030,-102.31142121,-2.03275647,-0.05871883
2.70415278

>  <Name>
ligand

>  <RI>
0

>  <Rbt.Current_Directory>
/home/itssahil/PROJECTS/Mol_Feturizer/Test_systems_manuscript/rnas/4l81

>  <Rbt.Executable>
rbdock ($Id: //depot/dev/client3/rdock/2013.1/src/exe/rbdock.cxx#4 $)

>  <Rbt.Library>
libRbt.so (2013.1, Build901 2013/11/27)

>  <Rbt.Parameter_File>
/export/apps/rDock/src/rDock_2013.1_src/data/scripts/dock_solv.prm

>  <Rbt.Receptor>
prm/pocket_docking_3.prm

>  <SCORE>
-19.2376

>  <SCORE.INTER>
-16.9476

>  <SCORE.INTER.CONST>
1

>  <SCORE.INTER.POLAR>
0

>  <SCORE.INTER.ROT>
7

>  <SCORE.INTER.SOLV>
18.2005

>  <SCORE.INTER.VDW>
-25.6319

>  <SCORE.INTER.norm>
-0.627688

>  <SCORE.INTRA>
-2.29

>  <SCORE.INTRA.DIHEDRAL>
-1.18574

>  <SCORE.INTRA.DIHEDRAL.0>
8.34559

>  <SCORE.INTRA.POLAR>
0

>  <SCORE.INTRA.POLAR.0>
0

>  <SCORE.INTRA.REPUL>
0

>  <SCORE.INTRA.REPUL.0>
0

>  <SCORE.INTRA.SOLV>
-0.58636

>  <SCORE.INTRA.SOLV.lig_0>
-48.829

>  <SCORE.INTRA.VDW>
-1.40395

>  <SCORE.INTRA.VDW.0>
-1.77092

>  <SCORE.INTRA.norm>
-0.0848147

>  <SCORE.RESTR>
0

>  <SCORE.RESTR.CAVITY>
0

>  <SCORE.RESTR.norm>
0

>  <SCORE.SYSTEM>
0

>  <SCORE.SYSTEM.CONST>
0

>  <SCORE.SYSTEM.DIHEDRAL>
0

>  <SCORE.SYSTEM.SOLV>
0

>  <SCORE.SYSTEM.norm>
0

>  <SCORE.heavy>
27

>  <SCORE.norm>
-0.712502

>  <RMSD>
1.484

$$$$
ligand
 OpenBabel02271912153D
libRbt.so/2013.1/901 2013/11/27
 27 29  0  0  0  0  0  0  0  0999 V2000
   47.0717  -24.0725 -104.0314 N   0  0  0  0  0  0  0  0  0  0  0  0
   47.5159  -25.4589 -103.8486 C   0  0  2  0  0  0  0  0  0  0  0  0
   46.3187  -26.3843 -103.9025 C   0  0  0  0  0  0  0  0  0  0  0  0
   46.3799  -27.4325 -104.5273 O   0  0  0  0  0  0  0  0  0  0  0  0
   48.2264  -25.6451 -102.5011 C   0  0  0  0  0  0  0  0  0  0  0  0
   48.8714  -27.0212 -102.4149 C   0  0  0  0  0  0  0  0  0  0  0  0
   50.5044  -27.1104 -103.2448 S   0  0  2  0  0  0  0  0  0  0  0  0
   50.1413  -26.6751 -104.9763 C   0  0  0  0  0  0  0  0  0  0  0  0
   50.5265  -28.8947 -103.4013 C   0  0  0  0  0  0  0  0  0  0  0  0
   50.9545  -29.6077 -102.1462 C   0  0  1  0  0  0  0  0  0  0  0  0
   50.0204  -29.2704 -101.1067 O   0  0  0  0  0  0  0  0  0  0  0  0
   50.7160  -31.0251 -102.4806 C   0  0  1  0  0  0  0  0  0  0  0  0
   51.9371  -31.6297 -102.9035 O   0  0  0  0  0  0  0  0  0  0  0  0
   50.2897  -31.5999 -101.1653 C   0  0  1  0  0  0  0  0  0  0  0  0
   51.4412  -32.0187 -100.4038 O   0  0  0  0  0  0  0  0  0  0  0  0
   49.5478  -30.4535 -100.4147 C   0  0  2  0  0  0  0  0  0  0  0  0
   45.2977  -26.1079 -103.2973 O   0  0  0  0  0  0  0  0  0  0  0  0
   45.0875  -31.8546 -102.9328 N   0  0  0  0  0  0  0  0  0  0  0  0
   46.3636  -32.1446 -103.2866 C   0  0  0  0  0  0  0  0  0  0  0  0
   47.4142  -31.7614 -102.5314 N   0  0  0  0  0  0  0  0  0  0  0  0
   47.2320  -30.9977 -101.4419 C   0  0  0  0  0  0  0  0  0  0  0  0
   45.8923  -30.6304 -101.0510 C   0  0  0  0  0  0  0  0  0  0  0  0
   44.8069  -31.1033 -101.8470 C   0  0  0  0  0  0  0  0  0  0  0  0
   43.5002  -30.7978 -101.5248 N   0  0  0  0  0  0  0  0  0  0  0  0
   45.9912  -29.8743  -99.9512 N   0  0  0  0  0  0  0  0  0  0  0  0
   47.2467  -29.7397  -99.6431 C   0  0  0  0  0  0  0  0  0  0  0  0
   48.0600  -30.4165 -100.5217 N   0  0  0  0  0  0  0  0  0  0  0  0
  2  1  1  1  0  0  0
  2  3  1  0  0  0  0
  2  5  1  0  0  0  0
  3  4  1  0  0  0  0
  3 17  1  0  0  0  0
  5  6  1  0  0  0  0
  7  6  1  1  0  0  0
  7  8  1  0  0  0  0
  7  9  1  0  0  0  0
 10  9  1  6  0  0  0
 10 11  1  0  0  0  0
 10 12  1  0  0  0  0
 11 16  1  0  0  0  0
 12 13  1  1  0  0  0
 12 14  1  0  0  0  0
 14 15  1  1  0  0  0
 14 16  1  0  0  0  0
 16 27  1  6  0  0  0
 18 19  2  0  0  0  0
 18 23  1  0  0  0  0
 19 20  1  0  0  0  0
 20 21  2  0  0  0  0
 21 22  1  0  0  0  0
 21 27  1  0  0  0  0
 22 23  2  0  0  0  0
 22 25  1  0  0  0  0
 23 24  1  0  0  0  0
 25 26  2  0  0  0  0
 26 27  1  0  0  0  0
M  END
>  <CHROM.1>
136.83682960,-171.12867090,81.97037603,-59.70510732,-81.10012584,60.54562575
93.84204017,48.22517769,-29.11133107,-102.35006466,1.74898758,0.02402178
-0.41047175

>  <Name>
ligand

>  <RI>
0

>  <Rbt.Current_Directory>
/home/itssahil/PROJECTS/Mol_Feturizer/Test_systems_manuscript/rnas/4l81

>  <Rbt.Executable>
rbdock ($Id: //depot/dev/client3/rdock/2013.1/src/exe/rbdock.cxx#4 $)

>  <Rbt.Library>
libRbt.so (2013.1, Build901 2013/11/27)

>  <Rbt.Parameter_File>
/export/apps/rDock/src/rDock_2013.1_src/data/scripts/dock_solv.prm

>  <Rbt.Receptor>
prm/pocket_docking_3.prm

>  <SCORE>
-19.4244

>  <SCORE.INTER>
-17.0051

>  <SCORE.INTER.CONST>
1

>  <SCORE.INTER.POLAR>
0

>  <SCORE.INTER.ROT>
7

>  <SCORE.INTER.SOLV>
17.9791

>  <SCORE.INTER.VDW>
-25.5964

>  <SCORE.INTER.norm>
-0.629818

>  <SCORE.INTRA>
-2.41932

>  <SCORE.INTRA.DIHEDRAL>
-2.36961

>  <SCORE.INTRA.DIHEDRAL.0>
8.34559

>  <SCORE.INTRA.POLAR>
0

>  <SCORE.INTRA.POLAR.0>
0

>  <SCORE.INTRA.REPUL>
0

>  <SCORE.INTRA.REPUL.0>
0

>  <SCORE.INTRA.SOLV>
-0.63328

>  <SCORE.INTRA.SOLV.lig_0>
-48.829

>  <SCORE.INTRA.VDW>
-0.917873

>  <SCORE.INTRA.VDW.0>
-1.77092

>  <SCORE.INTRA.norm>
-0.0896044

>  <SCORE.RESTR>
0

>  <SCORE.RESTR.CAVITY>
0

>  <SCORE.RESTR.norm>
0

>  <SCORE.SYSTEM>
0

>  <SCORE.SYSTEM.CONST>
0

>  <SCORE.SYSTEM.DIHEDRAL>
0

>  <SCORE.SYSTEM.SOLV>
0

>  <SCORE.SYSTEM.norm>
0

>  <SCORE.heavy>
27

>  <SCORE.norm>
-0.719423

>  <RMSD>
1.493

$$$$
ligand
 OpenBabel02271912153D
libRbt.so/2013.1/901 2013/11/27
 27 29  0  0  0  0  0  0  0  0999 V2000
   46.3787  -28.2519 -104.9394 N   0  0  0  0  0  0  0  0  0  0  0  0
   46.2474  -27.6143 -103.6245 C   0  0  2  0  0  0  0  0  0  0  0  0
   44.9424  -28.0394 -102.9849 C   0  0  0  0  0  0  0  0  0  0  0  0
   44.7598  -27.8681 -101.7890 O   0  0  0  0  0  0  0  0  0  0  0  0
   46.2674  -26.0841 -103.7408 C   0  0  0  0  0  0  0  0  0  0  0  0
   47.6734  -25.5821 -104.0375 C   0  0  0  0  0  0  0  0  0  0  0  0
   48.8436  -25.8385 -102.6489 S   0  0  2  0  0  0  0  0  0  0  0  0
   50.4012  -25.1059 -103.2462 C   0  0  0  0  0  0  0  0  0  0  0  0
   49.1816  -27.5587 -103.0171 C   0  0  0  0  0  0  0  0  0  0  0  0
   49.7325  -28.3315 -101.8483 C   0  0  1  0  0  0  0  0  0  0  0  0
   48.7125  -28.3884 -100.8367 O   0  0  0  0  0  0  0  0  0  0  0  0
   49.8596  -29.6971 -102.3929 C   0  0  1  0  0  0  0  0  0  0  0  0
   51.2042  -29.9220 -102.8136 O   0  0  0  0  0  0  0  0  0  0  0  0
   49.5469  -30.5500 -101.2026 C   0  0  1  0  0  0  0  0  0  0  0  0
   50.7418  -30.7933 -100.4317 O   0  0  0  0  0  0  0  0  0  0  0  0
   48.5235  -29.7411 -100.3503 C   0  0  2  0  0  0  0  0  0  0  0  0
   44.0529  -28.5242 -103.6620 O   0  0  0  0  0  0  0  0  0  0  0  0
   44.6597  -32.0430 -103.1735 N   0  0  0  0  0  0  0  0  0  0  0  0
   45.9864  -32.0194 -103.4517 C   0  0  0  0  0  0  0  0  0  0  0  0
   46.8749  -31.4310 -102.6239 N   0  0  0  0  0  0  0  0  0  0  0  0
   46.4591  -30.7676 -101.5328 C   0  0  0  0  0  0  0  0  0  0  0  0
   45.0507  -30.7319 -101.2201 C   0  0  0  0  0  0  0  0  0  0  0  0
   44.1515  -31.4142 -102.0926 C   0  0  0  0  0  0  0  0  0  0  0  0
   42.7934  -31.4286 -101.8476 N   0  0  0  0  0  0  0  0  0  0  0  0
   44.9090  -30.0116 -100.1012 N   0  0  0  0  0  0  0  0  0  0  0  0
   46.0796  -29.6025  -99.7115 C   0  0  0  0  0  0  0  0  0  0  0  0
   47.0762  -30.0435 -100.5505 N   0  0  0  0  0  0  0  0  0  0  0  0
  2  1  1  6  0  0  0
  2  3  1  0  0  0  0
  2  5  1  0  0  0  0
  3  4  1  0  0  0  0
  3 17  1  0  0  0  0
  5  6  1  0  0  0  0
  7  6  1  6  0  0  0
  7  8  1  0  0  0  0
  7  9  1  0  0  0  0
 10  9  1  6  0  0  0
 10 11  1  0  0  0  0
 10 12  1  0  0  0  0
 11 16  1  0  0  0  0
 12 13  1  1  0  0  0
 12 14  1  0  0  0  0
 14 15  1  1  0  0  0
 14 16  1  0  0  0  0
 16 27  1  6  0  0  0
 18 19  2  0  0  0  0
 18 23  1  0  0  0  0
 19 20  1  0  0  0  0
 20 21  2  0  0  0  0
 21 22  1  0  0  0  0
 21 27  1  0  0  0  0
 22 23  2  0  0  0  0
 22 25  1  0  0  0  0
 23 24  1  0  0  0  0
 25 26  2  0  0  0  0
 26 27  1  0  0  0  0
M  END
>  <CHROM.1>
164.10502137,-73.74883503,-67.45314161,-178.08485237,-159.48226039,65.30388193
100.79097426,47.21800865,-28.95676857,-102.24844430,0.61565953,-0.19478350
-0.42951559

>  <Name>
ligand

>  <RI>
0

>  <Rbt.Current_Directory>
/home/itssahil/PROJECTS/Mol_Feturizer/Test_systems_manuscript/rnas/4l81

>  <Rbt.Executable>
rbdock ($Id: //depot/dev/client3/rdock/2013.1/src/exe/rbdock.cxx#4 $)

>  <Rbt.Library>
libRbt.so (2013.1, Build901 2013/11/27)

>  <Rbt.Parameter_File>
/export/apps/rDock/src/rDock_2013.1_src/data/scripts/dock_solv.prm

>  <Rbt.Receptor>
prm/pocket_docking_3.prm

>  <SCORE>
-19.4537

>  <SCORE.INTER>
-15.3518

>  <SCORE.INTER.CONST>
1

>  <SCORE.INTER.POLAR>
0

>  <SCORE.INTER.ROT>
7

>  <SCORE.INTER.SOLV>
16.4657

>  <SCORE.INTER.VDW>
-23.9898

>  <SCORE.INTER.norm>
-0.568586

>  <SCORE.INTRA>
-4.10189

>  <SCORE.INTRA.DIHEDRAL>
-1.7342

>  <SCORE.INTRA.DIHEDRAL.0>
8.34559

>  <SCORE.INTRA.POLAR>
0

>  <SCORE.INTRA.POLAR.0>
0

>  <SCORE.INTRA.REPUL>
0

>  <SCORE.INTRA.REPUL.0>
0

>  <SCORE.INTRA.SOLV>
1.11599

>  <SCORE.INTRA.SOLV.lig_0>
-48.829

>  <SCORE.INTRA.VDW>
-3.79279

>  <SCORE.INTRA.VDW.0>
-1.77092

>  <SCORE.INTRA.norm>
-0.151922

>  <SCORE.RESTR>
0

>  <SCORE.RESTR.CAVITY>
0

>  <SCORE.RESTR.norm>
0

>  <SCORE.SYSTEM>
0

>  <SCORE.SYSTEM.CONST>
0

>  <SCORE.SYSTEM.DIHEDRAL>
0

>  <SCORE.SYSTEM.SOLV>
0

>  <SCORE.SYSTEM.norm>
0

>  <SCORE.heavy>
27

>  <SCORE.norm>
-0.720508

>  <RMSD>
1.494

$$$$
ligand
 OpenBabel02271912153D
libRbt.so/2013.1/901 2013/11/27
 27 29  0  0  0  0  0  0  0  0999 V2000
   46.1553  -27.7663 -104.9107 N   0  0  0  0  0  0  0  0  0  0  0  0
   46.9003  -27.5297 -103.6690 C   0  0  2  0  0  0  0  0  0  0  0  0
   45.9694  -27.6820 -102.4845 C   0  0  0  0  0  0  0  0  0  0  0  0
   44.7588  -27.6625 -102.6478 O   0  0  0  0  0  0  0  0  0  0  0  0
   47.5101  -26.1216 -103.6426 C   0  0  0  0  0  0  0  0  0  0  0  0
   48.6138  -26.0291 -102.5985 C   0  0  0  0  0  0  0  0  0  0  0  0
   50.2227  -26.6871 -103.1832 S   0  0  2  0  0  0  0  0  0  0  0  0
   50.1634  -26.4516 -104.9889 C   0  0  0  0  0  0  0  0  0  0  0  0
   49.7467  -28.4123 -103.1080 C   0  0  0  0  0  0  0  0  0  0  0  0
   50.2193  -29.1176 -101.8646 C   0  0  1  0  0  0  0  0  0  0  0  0
   49.2275  -28.9220 -100.8424 O   0  0  0  0  0  0  0  0  0  0  0  0
   50.1482  -30.5399 -102.2513 C   0  0  1  0  0  0  0  0  0  0  0  0
   51.4392  -30.9911 -102.6578 O   0  0  0  0  0  0  0  0  0  0  0  0
   49.7552  -31.2042 -100.9681 C   0  0  1  0  0  0  0  0  0  0  0  0
   50.9265  -31.5202 -100.1873 O   0  0  0  0  0  0  0  0  0  0  0  0
   48.8718  -30.1736 -100.2028 C   0  0  2  0  0  0  0  0  0  0  0  0
   46.4188  -27.8583 -101.3656 O   0  0  0  0  0  0  0  0  0  0  0  0
   44.6525  -31.6968 -103.0446 N   0  0  0  0  0  0  0  0  0  0  0  0
   45.9596  -31.7775 -103.3954 C   0  0  0  0  0  0  0  0  0  0  0  0
   46.9446  -31.3909 -102.5580 N   0  0  0  0  0  0  0  0  0  0  0  0
   46.6548  -30.8268 -101.3742 C   0  0  0  0  0  0  0  0  0  0  0  0
   45.2748  -30.6833 -100.9773 C   0  0  0  0  0  0  0  0  0  0  0  0
   44.2668  -31.1560 -101.8695 C   0  0  0  0  0  0  0  0  0  0  0  0
   42.9280  -31.0590 -101.5486 N   0  0  0  0  0  0  0  0  0  0  0  0
   45.2648  -30.0951  -99.7754 N   0  0  0  0  0  0  0  0  0  0  0  0
   46.4900  -29.8610  -99.4099 C   0  0  0  0  0  0  0  0  0  0  0  0
   47.3924  -30.2970 -100.3518 N   0  0  0  0  0  0  0  0  0  0  0  0
  2  1  1  6  0  0  0
  2  3  1  0  0  0  0
  2  5  1  0  0  0  0
  3  4  1  0  0  0  0
  3 17  1  0  0  0  0
  5  6  1  0  0  0  0
  7  6  1  1  0  0  0
  7  8  1  0  0  0  0
  7  9  1  0  0  0  0
 10  9  1  6  0  0  0
 10 11  1  0  0  0  0
 10 12  1  0  0  0  0
 11 16  1  0  0  0  0
 12 13  1  1  0  0  0
 12 14  1  0  0  0  0
 14 15  1  1  0  0  0
 14 16  1  0  0  0  0
 16 27  1  6  0  0  0
 18 19  2  0  0  0  0
 18 23  1  0  0  0  0
 19 20  1  0  0  0  0
 20 21  2  0  0  0  0
 21 22  1  0  0  0  0
 21 27  1  0  0  0  0
 22 23  2  0  0  0  0
 22 25  1  0  0  0  0
 23 24  1  0  0  0  0
 25 26  2  0  0  0  0
 26 27  1  0  0  0  0
M  END
>  <CHROM.1>
-16.43059495,-162.23991808,81.50770378,27.45304906,-98.86035772,87.27955674
87.16021785,47.70531832,-29.22330025,-102.13376085,0.54665849,-0.05150223
-0.54466243

>  <Name>
ligand

>  <RI>
0

>  <Rbt.Current_Directory>
/home/itssahil/PROJECTS/Mol_Feturizer/Test_systems_manuscript/rnas/4l81

>  <Rbt.Executable>
rbdock ($Id: //depot/dev/client3/rdock/2013.1/src/exe/rbdock.cxx#4 $)

>  <Rbt.Library>
libRbt.so (2013.1, Build901 2013/11/27)

>  <Rbt.Parameter_File>
/export/apps/rDock/src/rDock_2013.1_src/data/scripts/dock_solv.prm

>  <Rbt.Receptor>
prm/pocket_docking_3.prm

>  <SCORE>
-17.5647

>  <SCORE.INTER>
-16.9111

>  <SCORE.INTER.CONST>
1

>  <SCORE.INTER.POLAR>
0

>  <SCORE.INTER.ROT>
7

>  <SCORE.INTER.SOLV>
16.1592

>  <SCORE.INTER.VDW>
-24.9271

>  <SCORE.INTER.norm>
-0.626336

>  <SCORE.INTRA>
-0.653579

>  <SCORE.INTRA.DIHEDRAL>
3.63811

>  <SCORE.INTRA.DIHEDRAL.0>
8.34559

>  <SCORE.INTRA.POLAR>
0

>  <SCORE.INTRA.POLAR.0>
0

>  <SCORE.INTRA.REPUL>
0

>  <SCORE.INTRA.REPUL.0>
0

>  <SCORE.INTRA.SOLV>
-0.102947

>  <SCORE.INTRA.SOLV.lig_0>
-48.829

>  <SCORE.INTRA.VDW>
-2.42116

>  <SCORE.INTRA.VDW.0>
-1.77092

>  <SCORE.INTRA.norm>
-0.0242066

>  <SCORE.RESTR>
0

>  <SCORE.RESTR.CAVITY>
0

>  <SCORE.RESTR.norm>
0

>  <SCORE.SYSTEM>
0

>  <SCORE.SYSTEM.CONST>
0

>  <SCORE.SYSTEM.DIHEDRAL>
0

>  <SCORE.SYSTEM.SOLV>
0

>  <SCORE.SYSTEM.norm>
0

>  <SCORE.heavy>
27

>  <SCORE.norm>
-0.650543

>  <RMSD>
1.499

$$$$
ligand
 OpenBabel02271912153D
libRbt.so/2013.1/901 2013/11/27
 27 29  0  0  0  0  0  0  0  0999 V2000
   46.3867  -24.1507 -106.1367 N   0  0  0  0  0  0  0  0  0  0  0  0
   46.6257  -25.5974 -106.1869 C   0  0  2  0  0  0  0  0  0  0  0  0
   45.3402  -26.3330 -105.8721 C   0  0  0  0  0  0  0  0  0  0  0  0
   45.2295  -27.5197 -106.1412 O   0  0  0  0  0  0  0  0  0  0  0  0
   47.7002  -26.0219 -105.1767 C   0  0  0  0  0  0  0  0  0  0  0  0
   47.2585  -25.7105 -103.7537 C   0  0  0  0  0  0  0  0  0  0  0  0
   48.6059  -25.8832 -102.5216 S   0  0  2  0  0  0  0  0  0  0  0  0
   50.0086  -25.0002 -103.2781 C   0  0  0  0  0  0  0  0  0  0  0  0
   49.0486  -27.5582 -102.9765 C   0  0  0  0  0  0  0  0  0  0  0  0
   49.6056  -28.3686 -101.8363 C   0  0  1  0  0  0  0  0  0  0  0  0
   48.6006  -28.4357 -100.8104 O   0  0  0  0  0  0  0  0  0  0  0  0
   49.7031  -29.7217 -102.4170 C   0  0  1  0  0  0  0  0  0  0  0  0
   51.0374  -29.9560 -102.8645 O   0  0  0  0  0  0  0  0  0  0  0  0
   49.3959  -30.5996 -101.2436 C   0  0  1  0  0  0  0  0  0  0  0  0
   50.5988  -30.8803 -100.4982 O   0  0  0  0  0  0  0  0  0  0  0  0
   48.3984  -29.7972 -100.3551 C   0  0  2  0  0  0  0  0  0  0  0  0
   44.4197  -25.7573 -105.3187 O   0  0  0  0  0  0  0  0  0  0  0  0
   44.4766  -32.1649 -103.0405 N   0  0  0  0  0  0  0  0  0  0  0  0
   45.8036  -32.1939 -103.3164 C   0  0  0  0  0  0  0  0  0  0  0  0
   46.7069  -31.5795 -102.5243 N   0  0  0  0  0  0  0  0  0  0  0  0
   46.3081  -30.8393 -101.4771 C   0  0  0  0  0  0  0  0  0  0  0  0
   44.9010  -30.7468 -101.1706 C   0  0  0  0  0  0  0  0  0  0  0  0
   43.9846  -31.4573 -102.0016 C   0  0  0  0  0  0  0  0  0  0  0  0
   42.6264  -31.4205 -101.7594 N   0  0  0  0  0  0  0  0  0  0  0  0
   44.7779  -29.9555 -100.0984 N   0  0  0  0  0  0  0  0  0  0  0  0
   45.9587  -29.5545  -99.7319 C   0  0  0  0  0  0  0  0  0  0  0  0
   46.9437  -30.0728 -100.5398 N   0  0  0  0  0  0  0  0  0  0  0  0
  2  1  1  1  0  0  0
  2  3  1  0  0  0  0
  2  5  1  0  0  0  0
  3  4  1  0  0  0  0
  3 17  1  0  0  0  0
  5  6  1  0  0  0  0
  7  6  1  6  0  0  0
  7  8  1  0  0  0  0
  7  9  1  0  0  0  0
 10  9  1  6  0  0  0
 10 11  1  0  0  0  0
 10 12  1  0  0  0  0
 11 16  1  0  0  0  0
 12 13  1  1  0  0  0
 12 14  1  0  0  0  0
 14 15  1  1  0  0  0
 14 16  1  0  0  0  0
 16 27  1  6  0  0  0
 18 19  2  0  0  0  0
 18 23  1  0  0  0  0
 19 20  1  0  0  0  0
 20 21  2  0  0  0  0
 21 22  1  0  0  0  0
 21 27  1  0  0  0  0
 22 23  2  0  0  0  0
 22 25  1  0  0  0  0
 23 24  1  0  0  0  0
 25 26  2  0  0  0  0
 26 27  1  0  0  0  0
M  END
>  <CHROM.1>
163.85483357,61.86095619,-168.78384018,47.00978519,-150.31340734,60.13468258
105.90473610,47.18686288,-28.59293555,-102.72679020,1.44562749,-0.33458100
-0.61955966

>  <Name>
ligand

>  <RI>
0

>  <Rbt.Current_Directory>
/home/itssahil/PROJECTS/Mol_Feturizer/Test_systems_manuscript/rnas/4l81

>  <Rbt.Executable>
rbdock ($Id: //depot/dev/client3/rdock/2013.1/src/exe/rbdock.cxx#4 $)

>  <Rbt.Library>
libRbt.so (2013.1, Build901 2013/11/27)

>  <Rbt.Parameter_File>
/export/apps/rDock/src/rDock_2013.1_src/data/scripts/dock_solv.prm

>  <Rbt.Receptor>
prm/pocket_docking_4.prm

>  <SCORE>
-15.3471

>  <SCORE.INTER>
-15.2948

>  <SCORE.INTER.CONST>
1

>  <SCORE.INTER.POLAR>
0

>  <SCORE.INTER.ROT>
7

>  <SCORE.INTER.SOLV>
18.7373

>  <SCORE.INTER.VDW>
-24.709

>  <SCORE.INTER.norm>
-0.566475

>  <SCORE.INTRA>
-0.0522459

>  <SCORE.INTRA.DIHEDRAL>
-1.59899

>  <SCORE.INTRA.DIHEDRAL.0>
8.34559

>  <SCORE.INTRA.POLAR>
0

>  <SCORE.INTRA.POLAR.0>
0

>  <SCORE.INTRA.REPUL>
0

>  <SCORE.INTRA.REPUL.0>
0

>  <SCORE.INTRA.SOLV>
-0.555496

>  <SCORE.INTRA.SOLV.lig_0>
-48.829

>  <SCORE.INTRA.VDW>
1.025

>  <SCORE.INTRA.VDW.0>
-1.77092

>  <SCORE.INTRA.norm>
-0.00193504

>  <SCORE.RESTR>
0

>  <SCORE.RESTR.CAVITY>
0

>  <SCORE.RESTR.norm>
0

>  <SCORE.SYSTEM>
0

>  <SCORE.SYSTEM.CONST>
0

>  <SCORE.SYSTEM.DIHEDRAL>
0

>  <SCORE.SYSTEM.SOLV>
0

>  <SCORE.SYSTEM.norm>
0

>  <SCORE.heavy>
27

>  <SCORE.norm>
-0.56841

>  <RMSD>
1.500

$$$$
ligand
 OpenBabel02271912153D
libRbt.so/2013.1/901 2013/11/27
 27 29  0  0  0  0  0  0  0  0999 V2000
   47.1256  -27.3710 -107.1133 N   0  0  0  0  0  0  0  0  0  0  0  0
   46.1707  -27.0449 -106.0481 C   0  0  2  0  0  0  0  0  0  0  0  0
   45.7053  -25.6129 -106.2077 C   0  0  0  0  0  0  0  0  0  0  0  0
   46.3396  -24.8346 -106.9039 O   0  0  0  0  0  0  0  0  0  0  0  0
   46.8043  -27.2087 -104.6600 C   0  0  0  0  0  0  0  0  0  0  0  0
   48.1000  -26.4162 -104.5595 C   0  0  0  0  0  0  0  0  0  0  0  0
   48.9144  -26.5615 -102.9227 S   0  0  2  0  0  0  0  0  0  0  0  0
   50.4922  -25.6761 -103.1371 C   0  0  0  0  0  0  0  0  0  0  0  0
   49.4970  -28.2383 -103.1627 C   0  0  0  0  0  0  0  0  0  0  0  0
   49.9836  -28.8972 -101.8994 C   0  0  1  0  0  0  0  0  0  0  0  0
   48.9773  -28.7122 -100.8894 O   0  0  0  0  0  0  0  0  0  0  0  0
   49.9648  -30.3299 -102.2526 C   0  0  1  0  0  0  0  0  0  0  0  0
   51.2739  -30.7454 -102.6388 O   0  0  0  0  0  0  0  0  0  0  0  0
   49.5845  -30.9770 -100.9569 C   0  0  1  0  0  0  0  0  0  0  0  0
   50.7596  -31.2336 -100.1602 O   0  0  0  0  0  0  0  0  0  0  0  0
   48.6599  -29.9600 -100.2228 C   0  0  2  0  0  0  0  0  0  0  0  0
   44.6786  -25.2346 -105.6712 O   0  0  0  0  0  0  0  0  0  0  0  0
   44.5318  -31.9097 -102.9348 N   0  0  0  0  0  0  0  0  0  0  0  0
   45.8466  -31.9963 -103.2535 C   0  0  0  0  0  0  0  0  0  0  0  0
   46.8064  -31.4903 -102.4512 N   0  0  0  0  0  0  0  0  0  0  0  0
   46.4813  -30.8012 -101.3453 C   0  0  0  0  0  0  0  0  0  0  0  0
   45.0911  -30.6488 -100.9893 C   0  0  0  0  0  0  0  0  0  0  0  0
   44.1115  -31.2473 -101.8364 C   0  0  0  0  0  0  0  0  0  0  0  0
   42.7650  -31.1487 -101.5498 N   0  0  0  0  0  0  0  0  0  0  0  0
   45.0448  -29.9264  -99.8638 N   0  0  0  0  0  0  0  0  0  0  0  0
   46.2570  -29.6199  -99.5087 C   0  0  0  0  0  0  0  0  0  0  0  0
   47.1869  -30.1381 -100.3797 N   0  0  0  0  0  0  0  0  0  0  0  0
  2  1  1  6  0  0  0
  2  3  1  0  0  0  0
  2  5  1  0  0  0  0
  3  4  1  0  0  0  0
  3 17  1  0  0  0  0
  5  6  1  0  0  0  0
  7  6  1  6  0  0  0
  7  8  1  0  0  0  0
  7  9  1  0  0  0  0
 10  9  1  6  0  0  0
 10 11  1  0  0  0  0
 10 12  1  0  0  0  0
 11 16  1  0  0  0  0
 12 13  1  1  0  0  0
 12 14  1  0  0  0  0
 14 15  1  1  0  0  0
 14 16  1  0  0  0  0
 16 27  1  6  0  0  0
 18 19  2  0  0  0  0
 18 23  1  0  0  0  0
 19 20  1  0  0  0  0
 20 21  2  0  0  0  0
 21 22  1  0  0  0  0
 21 27  1  0  0  0  0
 22 23  2  0  0  0  0
 22 25  1  0  0  0  0
 23 24  1  0  0  0  0
 25 26  2  0  0  0  0
 26 27  1  0  0  0  0
M  END
>  <CHROM.1>
-17.32181453,53.32355902,179.87738568,174.38857072,-166.87883921,49.50622315
92.49234727,47.44614069,-28.85587607,-102.76899578,1.65495241,-0.23056686
-0.73851919

>  <Name>
ligand

>  <RI>
0

>  <Rbt.Current_Directory>
/home/itssahil/PROJECTS/Mol_Feturizer/Test_systems_manuscript/rnas/4l81

>  <Rbt.Executable>
rbdock ($Id: //depot/dev/client3/rdock/2013.1/src/exe/rbdock.cxx#4 $)

>  <Rbt.Library>
libRbt.so (2013.1, Build901 2013/11/27)

>  <Rbt.Parameter_File>
/export/apps/rDock/src/rDock_2013.1_src/data/scripts/dock_solv.prm

>  <Rbt.Receptor>
prm/pocket_docking_6.prm

>  <SCORE>
-17.438

>  <SCORE.INTER>
-14.8927

>  <SCORE.INTER.CONST>
1

>  <SCORE.INTER.POLAR>
0

>  <SCORE.INTER.ROT>
7

>  <SCORE.INTER.SOLV>
17.4705

>  <SCORE.INTER.VDW>
-24.0187

>  <SCORE.INTER.norm>
-0.551583

>  <SCORE.INTRA>
-2.54529

>  <SCORE.INTRA.DIHEDRAL>
-3.2925

>  <SCORE.INTRA.DIHEDRAL.0>
8.34559

>  <SCORE.INTRA.POLAR>
0

>  <SCORE.INTRA.POLAR.0>
0

>  <SCORE.INTRA.REPUL>
0

>  <SCORE.INTRA.REPUL.0>
0

>  <SCORE.INTRA.SOLV>
-0.515502

>  <SCORE.INTRA.SOLV.lig_0>
-48.829

>  <SCORE.INTRA.VDW>
-0.641288

>  <SCORE.INTRA.VDW.0>
-1.77092

>  <SCORE.INTRA.norm>
-0.0942701

>  <SCORE.RESTR>
0

>  <SCORE.RESTR.CAVITY>
0

>  <SCORE.RESTR.norm>
0

>  <SCORE.SYSTEM>
0

>  <SCORE.SYSTEM.CONST>
0

>  <SCORE.SYSTEM.DIHEDRAL>
0

>  <SCORE.SYSTEM.SOLV>
0

>  <SCORE.SYSTEM.norm>
0

>  <SCORE.heavy>
27

>  <SCORE.norm>
-0.645853

>  <RMSD>
1.522

$$$$
ligand
 OpenBabel02271912153D
libRbt.so/2013.1/901 2013/11/27
 27 29  0  0  0  0  0  0  0  0999 V2000
   44.5136  -28.6155 -105.7521 N   0  0  0  0  0  0  0  0  0  0  0  0
   45.5407  -27.9824 -104.9173 C   0  0  2  0  0  0  0  0  0  0  0  0
   44.9901  -26.7039 -104.3214 C   0  0  0  0  0  0  0  0  0  0  0  0
   45.7501  -25.8477 -103.8947 O   0  0  0  0  0  0  0  0  0  0  0  0
   46.7967  -27.6484 -105.7336 C   0  0  0  0  0  0  0  0  0  0  0  0
   47.9853  -27.3925 -104.8178 C   0  0  0  0  0  0  0  0  0  0  0  0
   48.0625  -28.5419 -103.3908 S   0  0  2  0  0  0  0  0  0  0  0  0
   47.3311  -27.5900 -102.0202 C   0  0  0  0  0  0  0  0  0  0  0  0
   49.7957  -28.2647 -103.0333 C   0  0  0  0  0  0  0  0  0  0  0  0
   50.3446  -29.1662 -101.9596 C   0  0  1  0  0  0  0  0  0  0  0  0
   49.4449  -29.1166 -100.8393 O   0  0  0  0  0  0  0  0  0  0  0  0
   50.1981  -30.5080 -102.5561 C   0  0  1  0  0  0  0  0  0  0  0  0
   51.4374  -30.9126 -103.1356 O   0  0  0  0  0  0  0  0  0  0  0  0
   49.8891  -31.3595 -101.3638 C   0  0  1  0  0  0  0  0  0  0  0  0
   51.1089  -31.8163 -100.7436 O   0  0  0  0  0  0  0  0  0  0  0  0
   49.1029  -30.4470 -100.3753 C   0  0  2  0  0  0  0  0  0  0  0  0
   43.7883  -26.5044 -104.2928 O   0  0  0  0  0  0  0  0  0  0  0  0
   44.6306  -31.6245 -102.9848 N   0  0  0  0  0  0  0  0  0  0  0  0
   45.9035  -31.7120 -103.4429 C   0  0  0  0  0  0  0  0  0  0  0  0
   46.9620  -31.4201 -102.6583 N   0  0  0  0  0  0  0  0  0  0  0  0
   46.7824  -30.9447 -101.4152 C   0  0  0  0  0  0  0  0  0  0  0  0
   45.4423  -30.7963 -100.9009 C   0  0  0  0  0  0  0  0  0  0  0  0
   44.3540  -31.1690 -101.7446 C   0  0  0  0  0  0  0  0  0  0  0  0
   43.0476  -31.0619 -101.3127 N   0  0  0  0  0  0  0  0  0  0  0  0
   45.5437  -30.3058  -99.6599 N   0  0  0  0  0  0  0  0  0  0  0  0
   46.8003  -30.1346  -99.3751 C   0  0  0  0  0  0  0  0  0  0  0  0
   47.6131  -30.5182 -100.4162 N   0  0  0  0  0  0  0  0  0  0  0  0
  2  1  1  6  0  0  0
  2  3  1  0  0  0  0
  2  5  1  0  0  0  0
  3  4  1  0  0  0  0
  3 17  1  0  0  0  0
  5  6  1  0  0  0  0
  7  6  1  6  0  0  0
  7  8  1  0  0  0  0
  7  9  1  0  0  0  0
 10  9  1  6  0  0  0
 10 11  1  0  0  0  0
 10 12  1  0  0  0  0
 11 16  1  0  0  0  0
 12 13  1  1  0  0  0
 12 14  1  0  0  0  0
 14 15  1  1  0  0  0
 14 16  1  0  0  0  0
 16 27  1  6  0  0  0
 18 19  2  0  0  0  0
 18 23  1  0  0  0  0
 19 20  1  0  0  0  0
 20 21  2  0  0  0  0
 21 22  1  0  0  0  0
 21 27  1  0  0  0  0
 22 23  2  0  0  0  0
 22 25  1  0  0  0  0
 23 24  1  0  0  0  0
 25 26  2  0  0  0  0
 26 27  1  0  0  0  0
M  END
>  <CHROM.1>
-160.64456990,-162.91014561,40.10857850,-98.49318775,-173.81383859,-49.29862781
91.71376351,47.24678716,-29.46332716,-102.54924868,-2.44856077,0.02941353
2.38651275

>  <Name>
ligand

>  <RI>
0

>  <Rbt.Current_Directory>
/home/itssahil/PROJECTS/Mol_Feturizer/Test_systems_manuscript/rnas/4l81

>  <Rbt.Executable>
rbdock ($Id: //depot/dev/client3/rdock/2013.1/src/exe/rbdock.cxx#4 $)

>  <Rbt.Library>
libRbt.so (2013.1, Build901 2013/11/27)

>  <Rbt.Parameter_File>
/export/apps/rDock/src/rDock_2013.1_src/data/scripts/dock_solv.prm

>  <Rbt.Receptor>
prm/pocket_docking_2.prm

>  <SCORE>
-12.5213

>  <SCORE.INTER>
-11.6558

>  <SCORE.INTER.CONST>
1

>  <SCORE.INTER.POLAR>
0

>  <SCORE.INTER.ROT>
7

>  <SCORE.INTER.SOLV>
19.1538

>  <SCORE.INTER.VDW>
-22.4218

>  <SCORE.INTER.norm>
-0.431696

>  <SCORE.INTRA>
-1.08172

>  <SCORE.INTRA.DIHEDRAL>
0.362855

>  <SCORE.INTRA.DIHEDRAL.0>
8.34559

>  <SCORE.INTRA.POLAR>
0

>  <SCORE.INTRA.POLAR.0>
0

>  <SCORE.INTRA.REPUL>
0

>  <SCORE.INTRA.REPUL.0>
0

>  <SCORE.INTRA.SOLV>
-0.522938

>  <SCORE.INTRA.SOLV.lig_0>
-48.829

>  <SCORE.INTRA.VDW>
-1.00168

>  <SCORE.INTRA.VDW.0>
-1.77092

>  <SCORE.INTRA.norm>
-0.0400636

>  <SCORE.RESTR>
0.216206

>  <SCORE.RESTR.CAVITY>
0.216206

>  <SCORE.RESTR.norm>
0.00800762

>  <SCORE.SYSTEM>
0

>  <SCORE.SYSTEM.CONST>
0

>  <SCORE.SYSTEM.DIHEDRAL>
0

>  <SCORE.SYSTEM.SOLV>
0

>  <SCORE.SYSTEM.norm>
0

>  <SCORE.heavy>
27

>  <SCORE.norm>
-0.463752

>  <RMSD>
1.525

$$$$
ligand
 OpenBabel02271912153D
libRbt.so/2013.1/901 2013/11/27
 27 29  0  0  0  0  0  0  0  0999 V2000
   47.3460  -25.8668 -107.1039 N   0  0  0  0  0  0  0  0  0  0  0  0
   46.4850  -26.2190 -105.9694 C   0  0  2  0  0  0  0  0  0  0  0  0
   45.3070  -25.2693 -105.9152 C   0  0  0  0  0  0  0  0  0  0  0  0
   44.2153  -25.6653 -105.5354 O   0  0  0  0  0  0  0  0  0  0  0  0
   47.2494  -26.1373 -104.6411 C   0  0  0  0  0  0  0  0  0  0  0  0
   48.2720  -27.2598 -104.5351 C   0  0  0  0  0  0  0  0  0  0  0  0
   49.2827  -27.1787 -103.0069 S   0  0  2  0  0  0  0  0  0  0  0  0
   50.5895  -25.9742 -103.4082 C   0  0  0  0  0  0  0  0  0  0  0  0
   50.1902  -28.6923 -103.3140 C   0  0  0  0  0  0  0  0  0  0  0  0
   50.6560  -29.3843 -102.0606 C   0  0  1  0  0  0  0  0  0  0  0  0
   49.6829  -29.1360 -101.0319 O   0  0  0  0  0  0  0  0  0  0  0  0
   50.5370  -30.8120 -102.4147 C   0  0  1  0  0  0  0  0  0  0  0  0
   51.8087  -31.3113 -102.8256 O   0  0  0  0  0  0  0  0  0  0  0  0
   50.1393  -31.4355 -101.1127 C   0  0  1  0  0  0  0  0  0  0  0  0
   51.3096  -31.7702 -100.3383 O   0  0  0  0  0  0  0  0  0  0  0  0
   49.2970  -30.3618 -100.3606 C   0  0  2  0  0  0  0  0  0  0  0  0
   45.4454  -24.0969 -106.2175 O   0  0  0  0  0  0  0  0  0  0  0  0
   45.0002  -31.9010 -103.0748 N   0  0  0  0  0  0  0  0  0  0  0  0
   46.3001  -32.0464 -103.4310 C   0  0  0  0  0  0  0  0  0  0  0  0
   47.3060  -31.6461 -102.6255 N   0  0  0  0  0  0  0  0  0  0  0  0
   47.0474  -31.0051 -101.4741 C   0  0  0  0  0  0  0  0  0  0  0  0
   45.6771  -30.7919 -101.0749 C   0  0  0  0  0  0  0  0  0  0  0  0
   44.6448  -31.2805 -101.9299 C   0  0  0  0  0  0  0  0  0  0  0  0
   43.3134  -31.1194 -101.6043 N   0  0  0  0  0  0  0  0  0  0  0  0
   45.6991  -30.1354  -99.9090 N   0  0  0  0  0  0  0  0  0  0  0  0
   46.9351  -29.9226  -99.5677 C   0  0  0  0  0  0  0  0  0  0  0  0
   47.8127  -30.4428 -100.4901 N   0  0  0  0  0  0  0  0  0  0  0  0
  2  1  1  6  0  0  0
  2  3  1  0  0  0  0
  2  5  1  0  0  0  0
  3  4  1  0  0  0  0
  3 17  1  0  0  0  0
  5  6  1  0  0  0  0
  7  6  1  6  0  0  0
  7  8  1  0  0  0  0
  7  9  1  0  0  0  0
 10  9  1  6  0  0  0
 10 11  1  0  0  0  0
 10 12  1  0  0  0  0
 11 16  1  0  0  0  0
 12 13  1  1  0  0  0
 12 14  1  0  0  0  0
 14 15  1  1  0  0  0
 14 16  1  0  0  0  0
 16 27  1  6  0  0  0
 18 19  2  0  0  0  0
 18 23  1  0  0  0  0
 19 20  1  0  0  0  0
 20 21  2  0  0  0  0
 21 22  1  0  0  0  0
 21 27  1  0  0  0  0
 22 23  2  0  0  0  0
 22 25  1  0  0  0  0
 23 24  1  0  0  0  0
 25 26  2  0  0  0  0
 26 27  1  0  0  0  0
M  END
>  <CHROM.1>
145.90407133,-70.33897417,177.18655186,-82.49626182,-151.95305295,32.47398868
89.22246893,47.81937058,-28.99029312,-102.82150145,-1.92159397,0.11143320
2.49801194

>  <Name>
ligand

>  <RI>
0

>  <Rbt.Current_Directory>
/home/itssahil/PROJECTS/Mol_Feturizer/Test_systems_manuscript/rnas/4l81

>  <Rbt.Executable>
rbdock ($Id: //depot/dev/client3/rdock/2013.1/src/exe/rbdock.cxx#4 $)

>  <Rbt.Library>
libRbt.so (2013.1, Build901 2013/11/27)

>  <Rbt.Parameter_File>
/export/apps/rDock/src/rDock_2013.1_src/data/scripts/dock_solv.prm

>  <Rbt.Receptor>
prm/pocket_docking_4.prm

>  <SCORE>
-18.0537

>  <SCORE.INTER>
-16.984

>  <SCORE.INTER.CONST>
1

>  <SCORE.INTER.POLAR>
0

>  <SCORE.INTER.ROT>
7

>  <SCORE.INTER.SOLV>
15.428

>  <SCORE.INTER.VDW>
-24.732

>  <SCORE.INTER.norm>
-0.629037

>  <SCORE.INTRA>
-1.0697

>  <SCORE.INTRA.DIHEDRAL>
0.740587

>  <SCORE.INTRA.DIHEDRAL.0>
8.34559

>  <SCORE.INTRA.POLAR>
0

>  <SCORE.INTRA.POLAR.0>
0

>  <SCORE.INTRA.REPUL>
0

>  <SCORE.INTRA.REPUL.0>
0

>  <SCORE.INTRA.SOLV>
-0.635273

>  <SCORE.INTRA.SOLV.lig_0>
-48.829

>  <SCORE.INTRA.VDW>
-1.12235

>  <SCORE.INTRA.VDW.0>
-1.77092

>  <SCORE.INTRA.norm>
-0.0396184

>  <SCORE.RESTR>
0

>  <SCORE.RESTR.CAVITY>
0

>  <SCORE.RESTR.norm>
0

>  <SCORE.SYSTEM>
0

>  <SCORE.SYSTEM.CONST>
0

>  <SCORE.SYSTEM.DIHEDRAL>
0

>  <SCORE.SYSTEM.SOLV>
0

>  <SCORE.SYSTEM.norm>
0

>  <SCORE.heavy>
27

>  <SCORE.norm>
-0.668656

>  <RMSD>
1.527

$$$$
ligand
 OpenBabel02271912153D
libRbt.so/2013.1/901 2013/11/27
 27 29  0  0  0  0  0  0  0  0999 V2000
   44.6320  -27.1924 -105.2161 N   0  0  0  0  0  0  0  0  0  0  0  0
   46.0135  -27.1997 -104.7220 C   0  0  2  0  0  0  0  0  0  0  0  0
   46.1073  -28.0847 -103.4970 C   0  0  0  0  0  0  0  0  0  0  0  0
   46.7051  -29.1488 -103.5520 O   0  0  0  0  0  0  0  0  0  0  0  0
   46.4814  -25.7862 -104.3497 C   0  0  0  0  0  0  0  0  0  0  0  0
   47.9993  -25.6868 -104.4031 C   0  0  0  0  0  0  0  0  0  0  0  0
   48.8064  -26.0375 -102.7941 S   0  0  2  0  0  0  0  0  0  0  0  0
   50.5048  -25.4141 -103.0097 C   0  0  0  0  0  0  0  0  0  0  0  0
   49.1004  -27.7746 -103.1180 C   0  0  0  0  0  0  0  0  0  0  0  0
   49.6419  -28.5287 -101.9327 C   0  0  1  0  0  0  0  0  0  0  0  0
   48.6460  -28.4962 -100.8964 O   0  0  0  0  0  0  0  0  0  0  0  0
   49.6886  -29.9187 -102.4261 C   0  0  1  0  0  0  0  0  0  0  0  0
   51.0097  -30.2260 -102.8684 O   0  0  0  0  0  0  0  0  0  0  0  0
   49.3646  -30.7090 -101.1962 C   0  0  1  0  0  0  0  0  0  0  0  0
   50.5652  -30.9818 -100.4441 O   0  0  0  0  0  0  0  0  0  0  0  0
   48.4035  -29.8183 -100.3529 C   0  0  2  0  0  0  0  0  0  0  0  0
   45.6171  -27.7284 -102.4398 O   0  0  0  0  0  0  0  0  0  0  0  0
   44.3718  -32.1389 -102.9138 N   0  0  0  0  0  0  0  0  0  0  0  0
   45.6927  -32.2137 -103.2095 C   0  0  0  0  0  0  0  0  0  0  0  0
   46.6262  -31.6058 -102.4480 N   0  0  0  0  0  0  0  0  0  0  0  0
   46.2660  -30.8274 -101.4145 C   0  0  0  0  0  0  0  0  0  0  0  0
   44.8674  -30.6861 -101.0886 C   0  0  0  0  0  0  0  0  0  0  0  0
   43.9174  -31.3907 -101.8863 C   0  0  0  0  0  0  0  0  0  0  0  0
   42.5649  -31.3079 -101.6241 N   0  0  0  0  0  0  0  0  0  0  0  0
   44.7845  -29.8641 -100.0358 N   0  0  0  0  0  0  0  0  0  0  0  0
   45.9822  -29.4884  -99.6984 C   0  0  0  0  0  0  0  0  0  0  0  0
   46.9386  -30.0559 -100.5077 N   0  0  0  0  0  0  0  0  0  0  0  0
  2  1  1  1  0  0  0
  2  3  1  0  0  0  0
  2  5  1  0  0  0  0
  3  4  1  0  0  0  0
  3 17  1  0  0  0  0
  5  6  1  0  0  0  0
  7  6  1  6  0  0  0
  7  8  1  0  0  0  0
  7  9  1  0  0  0  0
 10  9  1  6  0  0  0
 10 11  1  0  0  0  0
 10 12  1  0  0  0  0
 11 16  1  0  0  0  0
 12 13  1  1  0  0  0
 12 14  1  0  0  0  0
 14 15  1  1  0  0  0
 14 16  1  0  0  0  0
 16 27  1  6  0  0  0
 18 19  2  0  0  0  0
 18 23  1  0  0  0  0
 19 20  1  0  0  0  0
 20 21  2  0  0  0  0
 21 22  1  0  0  0  0
 21 27  1  0  0  0  0
 22 23  2  0  0  0  0
 22 25  1  0  0  0  0
 23 24  1  0  0  0  0
 25 26  2  0  0  0  0
 26 27  1  0  0  0  0
M  END
>  <CHROM.1>
110.24820110,-156.35032517,-92.01598610,-164.94504093,-173.39622552,63.45229529
103.67411052,47.24023221,-29.00437394,-102.33394491,0.76864790,-0.22101979
-0.53055078

>  <Name>
ligand

>  <RI>
0

>  <Rbt.Current_Directory>
/home/itssahil/PROJECTS/Mol_Feturizer/Test_systems_manuscript/rnas/4l81

>  <Rbt.Executable>
rbdock ($Id: //depot/dev/client3/rdock/2013.1/src/exe/rbdock.cxx#4 $)

>  <Rbt.Library>
libRbt.so (2013.1, Build901 2013/11/27)

>  <Rbt.Parameter_File>
/export/apps/rDock/src/rDock_2013.1_src/data/scripts/dock_solv.prm

>  <Rbt.Receptor>
prm/pocket_docking_2.prm

>  <SCORE>
-15.036

>  <SCORE.INTER>
-12.3766

>  <SCORE.INTER.CONST>
1

>  <SCORE.INTER.POLAR>
0

>  <SCORE.INTER.ROT>
7

>  <SCORE.INTER.SOLV>
19.2873

>  <SCORE.INTER.VDW>
-22.9468

>  <SCORE.INTER.norm>
-0.458392

>  <SCORE.INTRA>
-3.11052

>  <SCORE.INTRA.DIHEDRAL>
2.1204

>  <SCORE.INTRA.DIHEDRAL.0>
8.34559

>  <SCORE.INTRA.POLAR>
0

>  <SCORE.INTRA.POLAR.0>
0

>  <SCORE.INTRA.REPUL>
0

>  <SCORE.INTRA.REPUL.0>
0

>  <SCORE.INTRA.SOLV>
-1.09568

>  <SCORE.INTRA.SOLV.lig_0>
-48.829

>  <SCORE.INTRA.VDW>
-3.62288

>  <SCORE.INTRA.VDW.0>
-1.77092

>  <SCORE.INTRA.norm>
-0.115204

>  <SCORE.RESTR>
0.451052

>  <SCORE.RESTR.CAVITY>
0.451052

>  <SCORE.RESTR.norm>
0.0167056

>  <SCORE.SYSTEM>
0

>  <SCORE.SYSTEM.CONST>
0

>  <SCORE.SYSTEM.DIHEDRAL>
0

>  <SCORE.SYSTEM.SOLV>
0

>  <SCORE.SYSTEM.norm>
0

>  <SCORE.heavy>
27

>  <SCORE.norm>
-0.55689

>  <RMSD>
1.556

$$$$
ligand
 OpenBabel02271912153D
libRbt.so/2013.1/901 2013/11/27
 27 29  0  0  0  0  0  0  0  0999 V2000
   46.4056  -23.4307 -106.5307 N   0  0  0  0  0  0  0  0  0  0  0  0
   46.7970  -24.8054 -106.1996 C   0  0  2  0  0  0  0  0  0  0  0  0
   45.5803  -25.7049 -106.2570 C   0  0  0  0  0  0  0  0  0  0  0  0
   44.5412  -25.3688 -105.7091 O   0  0  0  0  0  0  0  0  0  0  0  0
   47.4098  -24.8892 -104.7950 C   0  0  0  0  0  0  0  0  0  0  0  0
   47.9863  -26.2742 -104.5377 C   0  0  0  0  0  0  0  0  0  0  0  0
   48.8298  -26.4191 -102.9157 S   0  0  2  0  0  0  0  0  0  0  0  0
   50.4129  -25.5524 -103.1651 C   0  0  0  0  0  0  0  0  0  0  0  0
   49.3895  -28.1036 -103.1568 C   0  0  0  0  0  0  0  0  0  0  0  0
   49.8706  -28.7687 -101.8946 C   0  0  1  0  0  0  0  0  0  0  0  0
   48.8376  -28.6343 -100.9037 O   0  0  0  0  0  0  0  0  0  0  0  0
   49.9064  -30.1947 -102.2724 C   0  0  1  0  0  0  0  0  0  0  0  0
   51.2363  -30.5606 -102.6371 O   0  0  0  0  0  0  0  0  0  0  0  0
   49.5202  -30.8766 -100.9965 C   0  0  1  0  0  0  0  0  0  0  0  0
   50.6860  -31.1091 -100.1789 O   0  0  0  0  0  0  0  0  0  0  0  0
   48.5474  -29.9034 -100.2655 C   0  0  2  0  0  0  0  0  0  0  0  0
   45.6172  -26.7535 -106.8767 O   0  0  0  0  0  0  0  0  0  0  0  0
   44.5507  -32.0390 -103.0339 N   0  0  0  0  0  0  0  0  0  0  0  0
   45.8758  -32.0975 -103.3143 C   0  0  0  0  0  0  0  0  0  0  0  0
   46.7988  -31.5437 -102.5004 N   0  0  0  0  0  0  0  0  0  0  0  0
   46.4244  -30.8345 -101.4231 C   0  0  0  0  0  0  0  0  0  0  0  0
   45.0213  -30.7113 -101.1094 C   0  0  0  0  0  0  0  0  0  0  0  0
   44.0822  -31.3592 -101.9660 C   0  0  0  0  0  0  0  0  0  0  0  0
   42.7261  -31.2904 -101.7190 N   0  0  0  0  0  0  0  0  0  0  0  0
   44.9240  -29.9606 -100.0059 N   0  0  0  0  0  0  0  0  0  0  0  0
   46.1171  -29.6112  -99.6266 C   0  0  0  0  0  0  0  0  0  0  0  0
   47.0846  -30.1264 -100.4573 N   0  0  0  0  0  0  0  0  0  0  0  0
  2  1  1  1  0  0  0
  2  3  1  0  0  0  0
  2  5  1  0  0  0  0
  3  4  1  0  0  0  0
  3 17  1  0  0  0  0
  5  6  1  0  0  0  0
  7  6  1  6  0  0  0
  7  8  1  0  0  0  0
  7  9  1  0  0  0  0
 10  9  1  6  0  0  0
 10 11  1  0  0  0  0
 10 12  1  0  0  0  0
 11 16  1  0  0  0  0
 12 13  1  1  0  0  0
 12 14  1  0  0  0  0
 14 15  1  1  0  0  0
 14 16  1  0  0  0  0
 16 27  1  6  0  0  0
 18 19  2  0  0  0  0
 18 23  1  0  0  0  0
 19 20  1  0  0  0  0
 20 21  2  0  0  0  0
 21 22  1  0  0  0  0
 21 27  1  0  0  0  0
 22 23  2  0  0  0  0
 22 25  1  0  0  0  0
 23 24  1  0  0  0  0
 25 26  2  0  0  0  0
 26 27  1  0  0  0  0
M  END
>  <CHROM.1>
-47.42582366,-172.13212769,176.41278120,-75.55865336,-165.88440232,52.64686270
95.08630497,47.36681219,-28.60882029,-102.79881980,1.62079537,-0.26444446
-0.64117763

>  <Name>
ligand

>  <RI>
0

>  <Rbt.Current_Directory>
/home/itssahil/PROJECTS/Mol_Feturizer/Test_systems_manuscript/rnas/4l81

>  <Rbt.Executable>
rbdock ($Id: //depot/dev/client3/rdock/2013.1/src/exe/rbdock.cxx#4 $)

>  <Rbt.Library>
libRbt.so (2013.1, Build901 2013/11/27)

>  <Rbt.Parameter_File>
/export/apps/rDock/src/rDock_2013.1_src/data/scripts/dock_solv.prm

>  <Rbt.Receptor>
prm/pocket_docking_4.prm

>  <SCORE>
-18.7373

>  <SCORE.INTER>
-15.5262

>  <SCORE.INTER.CONST>
1

>  <SCORE.INTER.POLAR>
0

>  <SCORE.INTER.ROT>
7

>  <SCORE.INTER.SOLV>
18.4204

>  <SCORE.INTER.VDW>
-24.7576

>  <SCORE.INTER.norm>
-0.575046

>  <SCORE.INTRA>
-3.21106

>  <SCORE.INTRA.DIHEDRAL>
-3.2178

>  <SCORE.INTRA.DIHEDRAL.0>
8.34559

>  <SCORE.INTRA.POLAR>
0

>  <SCORE.INTRA.POLAR.0>
0

>  <SCORE.INTRA.REPUL>
0

>  <SCORE.INTRA.REPUL.0>
0

>  <SCORE.INTRA.SOLV>
-1.30108

>  <SCORE.INTRA.SOLV.lig_0>
-48.829

>  <SCORE.INTRA.VDW>
-0.951613

>  <SCORE.INTRA.VDW.0>
-1.77092

>  <SCORE.INTRA.norm>
-0.118928

>  <SCORE.RESTR>
0

>  <SCORE.RESTR.CAVITY>
0

>  <SCORE.RESTR.norm>
0

>  <SCORE.SYSTEM>
0

>  <SCORE.SYSTEM.CONST>
0

>  <SCORE.SYSTEM.DIHEDRAL>
0

>  <SCORE.SYSTEM.SOLV>
0

>  <SCORE.SYSTEM.norm>
0

>  <SCORE.heavy>
27

>  <SCORE.norm>
-0.693974

>  <RMSD>
1.616

$$$$
ligand
 OpenBabel02271912153D
libRbt.so/2013.1/901 2013/11/27
 27 29  0  0  0  0  0  0  0  0999 V2000
   45.0824  -28.3954 -104.4954 N   0  0  0  0  0  0  0  0  0  0  0  0
   46.2210  -27.8944 -103.7174 C   0  0  2  0  0  0  0  0  0  0  0  0
   45.8749  -27.9170 -102.2435 C   0  0  0  0  0  0  0  0  0  0  0  0
   46.7523  -27.7814 -101.4041 O   0  0  0  0  0  0  0  0  0  0  0  0
   46.5843  -26.4586 -104.1195 C   0  0  0  0  0  0  0  0  0  0  0  0
   48.0870  -26.3149 -104.3149 C   0  0  0  0  0  0  0  0  0  0  0  0
   49.0461  -26.5602 -102.7711 S   0  0  2  0  0  0  0  0  0  0  0  0
   50.6407  -25.7471 -103.1109 C   0  0  0  0  0  0  0  0  0  0  0  0
   49.5132  -28.2540 -103.1197 C   0  0  0  0  0  0  0  0  0  0  0  0
   50.0468  -28.9941 -101.9220 C   0  0  1  0  0  0  0  0  0  0  0  0
   49.0812  -28.8749 -100.8635 O   0  0  0  0  0  0  0  0  0  0  0  0
   50.0100  -30.4007 -102.3667 C   0  0  1  0  0  0  0  0  0  0  0  0
   51.3018  -30.7906 -102.8301 O   0  0  0  0  0  0  0  0  0  0  0  0
   49.6787  -31.1307 -101.1020 C   0  0  1  0  0  0  0  0  0  0  0  0
   50.8832  -31.4392 -100.3704 O   0  0  0  0  0  0  0  0  0  0  0  0
   48.7864  -30.1634 -100.2677 C   0  0  2  0  0  0  0  0  0  0  0  0
   44.7169  -28.0372 -101.8836 O   0  0  0  0  0  0  0  0  0  0  0  0
   44.5470  -31.8917 -102.9582 N   0  0  0  0  0  0  0  0  0  0  0  0
   45.8476  -31.9500 -103.3366 C   0  0  0  0  0  0  0  0  0  0  0  0
   46.8403  -31.5097 -102.5356 N   0  0  0  0  0  0  0  0  0  0  0  0
   46.5620  -30.9135 -101.3648 C   0  0  0  0  0  0  0  0  0  0  0  0
   45.1879  -30.7928 -100.9410 C   0  0  0  0  0  0  0  0  0  0  0  0
   44.1733  -31.3216 -101.7932 C   0  0  0  0  0  0  0  0  0  0  0  0
   42.8399  -31.2488 -101.4447 N   0  0  0  0  0  0  0  0  0  0  0  0
   45.1890  -30.1646  -99.7594 N   0  0  0  0  0  0  0  0  0  0  0  0
   46.4153  -29.8863  -99.4304 C   0  0  0  0  0  0  0  0  0  0  0  0
   47.3078  -30.3303 -100.3781 N   0  0  0  0  0  0  0  0  0  0  0  0
  2  1  1  6  0  0  0
  2  3  1  0  0  0  0
  2  5  1  0  0  0  0
  3  4  1  0  0  0  0
  3 17  1  0  0  0  0
  5  6  1  0  0  0  0
  7  6  1  6  0  0  0
  7  8  1  0  0  0  0
  7  9  1  0  0  0  0
 10  9  1  6  0  0  0
 10 11  1  0  0  0  0
 10 12  1  0  0  0  0
 11 16  1  0  0  0  0
 12 13  1  1  0  0  0
 12 14  1  0  0  0  0
 14 15  1  1  0  0  0
 14 16  1  0  0  0  0
 16 27  1  6  0  0  0
 18 19  2  0  0  0  0
 18 23  1  0  0  0  0
 19 20  1  0  0  0  0
 20 21  2  0  0  0  0
 21 22  1  0  0  0  0
 21 27  1  0  0  0  0
 22 23  2  0  0  0  0
 22 25  1  0  0  0  0
 23 24  1  0  0  0  0
 25 26  2  0  0  0  0
 26 27  1  0  0  0  0
M  END
>  <CHROM.1>
166.32194798,-133.64763598,-65.01188305,-159.47849085,-165.22797562,53.32955127
91.54088701,47.45462509,-29.27056519,-102.07200096,2.62444164,0.09614582
2.66150194

>  <Name>
ligand

>  <RI>
0

>  <Rbt.Current_Directory>
/home/itssahil/PROJECTS/Mol_Feturizer/Test_systems_manuscript/rnas/4l81

>  <Rbt.Executable>
rbdock ($Id: //depot/dev/client3/rdock/2013.1/src/exe/rbdock.cxx#4 $)

>  <Rbt.Library>
libRbt.so (2013.1, Build901 2013/11/27)

>  <Rbt.Parameter_File>
/export/apps/rDock/src/rDock_2013.1_src/data/scripts/dock_solv.prm

>  <Rbt.Receptor>
prm/pocket_docking_3.prm

>  <SCORE>
-17.9456

>  <SCORE.INTER>
-14.5652

>  <SCORE.INTER.CONST>
1

>  <SCORE.INTER.POLAR>
0

>  <SCORE.INTER.ROT>
7

>  <SCORE.INTER.SOLV>
16.9539

>  <SCORE.INTER.VDW>
-23.6281

>  <SCORE.INTER.norm>
-0.539452

>  <SCORE.INTRA>
-3.3804

>  <SCORE.INTRA.DIHEDRAL>
3.70441

>  <SCORE.INTRA.DIHEDRAL.0>
8.34559

>  <SCORE.INTRA.POLAR>
0

>  <SCORE.INTRA.POLAR.0>
0

>  <SCORE.INTRA.REPUL>
0

>  <SCORE.INTRA.REPUL.0>
0

>  <SCORE.INTRA.SOLV>
-0.361384

>  <SCORE.INTRA.SOLV.lig_0>
-48.829

>  <SCORE.INTRA.VDW>
-5.05191

>  <SCORE.INTRA.VDW.0>
-1.77092

>  <SCORE.INTRA.norm>
-0.1252

>  <SCORE.RESTR>
0

>  <SCORE.RESTR.CAVITY>
0

>  <SCORE.RESTR.norm>
0

>  <SCORE.SYSTEM>
0

>  <SCORE.SYSTEM.CONST>
0

>  <SCORE.SYSTEM.DIHEDRAL>
0

>  <SCORE.SYSTEM.SOLV>
0

>  <SCORE.SYSTEM.norm>
0

>  <SCORE.heavy>
27

>  <SCORE.norm>
-0.664652

>  <RMSD>
1.642

$$$$
ligand
 OpenBabel02271912153D
libRbt.so/2013.1/901 2013/11/27
 27 29  0  0  0  0  0  0  0  0999 V2000
   47.7806  -23.3416 -103.5718 N   0  0  0  0  0  0  0  0  0  0  0  0
   48.0320  -24.7782 -103.7322 C   0  0  2  0  0  0  0  0  0  0  0  0
   46.8138  -25.4393 -104.3416 C   0  0  0  0  0  0  0  0  0  0  0  0
   45.7731  -25.5150 -103.7060 O   0  0  0  0  0  0  0  0  0  0  0  0
   48.3368  -25.4462 -102.3845 C   0  0  0  0  0  0  0  0  0  0  0  0
   48.7801  -26.8887 -102.5833 C   0  0  0  0  0  0  0  0  0  0  0  0
   50.4698  -27.0389 -103.2804 S   0  0  2  0  0  0  0  0  0  0  0  0
   50.2583  -26.6148 -105.0396 C   0  0  0  0  0  0  0  0  0  0  0  0
   50.4474  -28.8249 -103.4162 C   0  0  0  0  0  0  0  0  0  0  0  0
   50.8487  -29.5339 -102.1500 C   0  0  1  0  0  0  0  0  0  0  0  0
   49.8759  -29.2176 -101.1398 O   0  0  0  0  0  0  0  0  0  0  0  0
   50.6478  -30.9544 -102.4957 C   0  0  1  0  0  0  0  0  0  0  0  0
   51.8929  -31.5345 -102.8812 O   0  0  0  0  0  0  0  0  0  0  0  0
   50.1908  -31.5414 -101.1962 C   0  0  1  0  0  0  0  0  0  0  0  0
   51.3253  -31.9410 -100.3995 O   0  0  0  0  0  0  0  0  0  0  0  0
   49.4040  -30.4117 -100.4664 C   0  0  2  0  0  0  0  0  0  0  0  0
   46.8512  -25.8708 -105.4807 O   0  0  0  0  0  0  0  0  0  0  0  0
   45.0452  -31.9867 -103.0583 N   0  0  0  0  0  0  0  0  0  0  0  0
   46.3358  -32.2716 -103.3601 C   0  0  0  0  0  0  0  0  0  0  0  0
   47.3566  -31.8406 -102.5900 N   0  0  0  0  0  0  0  0  0  0  0  0
   47.1295  -31.0345 -101.5401 C   0  0  0  0  0  0  0  0  0  0  0  0
   45.7732  -30.6718 -101.2066 C   0  0  0  0  0  0  0  0  0  0  0  0
   44.7201  -31.1947 -102.0147 C   0  0  0  0  0  0  0  0  0  0  0  0
   43.3997  -30.8962 -101.7461 N   0  0  0  0  0  0  0  0  0  0  0  0
   45.8268  -29.8686 -100.1376 N   0  0  0  0  0  0  0  0  0  0  0  0
   47.0700  -29.7016  -99.7970 C   0  0  0  0  0  0  0  0  0  0  0  0
   47.9199  -30.4023 -100.6206 N   0  0  0  0  0  0  0  0  0  0  0  0
  2  1  1  1  0  0  0
  2  3  1  0  0  0  0
  2  5  1  0  0  0  0
  3  4  1  0  0  0  0
  3 17  1  0  0  0  0
  5  6  1  0  0  0  0
  7  6  1  1  0  0  0
  7  8  1  0  0  0  0
  7  9  1  0  0  0  0
 10  9  1  6  0  0  0
 10 11  1  0  0  0  0
 10 12  1  0  0  0  0
 11 16  1  0  0  0  0
 12 13  1  1  0  0  0
 12 14  1  0  0  0  0
 14 15  1  1  0  0  0
 14 16  1  0  0  0  0
 16 27  1  6  0  0  0
 18 19  2  0  0  0  0
 18 23  1  0  0  0  0
 19 20  1  0  0  0  0
 20 21  2  0  0  0  0
 21 22  1  0  0  0  0
 21 27  1  0  0  0  0
 22 23  2  0  0  0  0
 22 25  1  0  0  0  0
 23 24  1  0  0  0  0
 25 26  2  0  0  0  0
 26 27  1  0  0  0  0
M  END
>  <CHROM.1>
-67.63578058,-172.28936554,72.65728490,-75.46922349,-85.25755407,63.57835012
96.45552799,48.26109528,-28.92333207,-102.45518697,1.52455406,-0.00085136
-0.38170204

>  <Name>
ligand

>  <RI>
0

>  <Rbt.Current_Directory>
/home/itssahil/PROJECTS/Mol_Feturizer/Test_systems_manuscript/rnas/4l81

>  <Rbt.Executable>
rbdock ($Id: //depot/dev/client3/rdock/2013.1/src/exe/rbdock.cxx#4 $)

>  <Rbt.Library>
libRbt.so (2013.1, Build901 2013/11/27)

>  <Rbt.Parameter_File>
/export/apps/rDock/src/rDock_2013.1_src/data/scripts/dock_solv.prm

>  <Rbt.Receptor>
prm/pocket_docking_4.prm

>  <SCORE>
-20.5817

>  <SCORE.INTER>
-17.3029

>  <SCORE.INTER.CONST>
1

>  <SCORE.INTER.POLAR>
0

>  <SCORE.INTER.ROT>
7

>  <SCORE.INTER.SOLV>
16.5615

>  <SCORE.INTER.VDW>
-25.3224

>  <SCORE.INTER.norm>
-0.640847

>  <SCORE.INTRA>
-3.27881

>  <SCORE.INTRA.DIHEDRAL>
-3.24653

>  <SCORE.INTRA.DIHEDRAL.0>
8.34559

>  <SCORE.INTRA.POLAR>
0

>  <SCORE.INTRA.POLAR.0>
0

>  <SCORE.INTRA.REPUL>
0

>  <SCORE.INTRA.REPUL.0>
0

>  <SCORE.INTRA.SOLV>
-0.802766

>  <SCORE.INTRA.SOLV.lig_0>
-48.829

>  <SCORE.INTRA.VDW>
-1.25416

>  <SCORE.INTRA.VDW.0>
-1.77092

>  <SCORE.INTRA.norm>
-0.121437

>  <SCORE.RESTR>
0

>  <SCORE.RESTR.CAVITY>
0

>  <SCORE.RESTR.norm>
0

>  <SCORE.SYSTEM>
0

>  <SCORE.SYSTEM.CONST>
0

>  <SCORE.SYSTEM.DIHEDRAL>
0

>  <SCORE.SYSTEM.SOLV>
0

>  <SCORE.SYSTEM.norm>
0

>  <SCORE.heavy>
27

>  <SCORE.norm>
-0.762285

>  <RMSD>
1.655

$$$$
ligand
 OpenBabel02271912153D
libRbt.so/2013.1/901 2013/11/27
 27 29  0  0  0  0  0  0  0  0999 V2000
   45.6282  -27.7319 -103.9558 N   0  0  0  0  0  0  0  0  0  0  0  0
   46.5517  -27.8414 -102.8209 C   0  0  2  0  0  0  0  0  0  0  0  0
   45.7614  -28.0200 -101.5418 C   0  0  0  0  0  0  0  0  0  0  0  0
   44.5735  -28.3021 -101.5877 O   0  0  0  0  0  0  0  0  0  0  0  0
   47.4288  -26.5887 -102.6912 C   0  0  0  0  0  0  0  0  0  0  0  0
   48.1921  -26.3264 -103.9817 C   0  0  0  0  0  0  0  0  0  0  0  0
   49.9700  -26.7635 -103.8748 S   0  0  2  0  0  0  0  0  0  0  0  0
   50.5213  -26.7885 -105.6112 C   0  0  0  0  0  0  0  0  0  0  0  0
   49.7070  -28.5193 -103.6370 C   0  0  0  0  0  0  0  0  0  0  0  0
   50.3153  -29.0568 -102.3690 C   0  0  1  0  0  0  0  0  0  0  0  0
   49.3603  -28.8750 -101.3098 O   0  0  0  0  0  0  0  0  0  0  0  0
   50.3809  -30.5078 -102.6300 C   0  0  1  0  0  0  0  0  0  0  0  0
   51.6916  -30.8561 -103.0730 O   0  0  0  0  0  0  0  0  0  0  0  0
   50.1274  -31.0915 -101.2747 C   0  0  1  0  0  0  0  0  0  0  0  0
   51.3636  -31.2120 -100.5408 O   0  0  0  0  0  0  0  0  0  0  0  0
   49.1759  -30.0944 -100.5476 C   0  0  2  0  0  0  0  0  0  0  0  0
   46.3098  -27.9168 -100.4585 O   0  0  0  0  0  0  0  0  0  0  0  0
   44.8476  -31.4140 -103.3265 N   0  0  0  0  0  0  0  0  0  0  0  0
   46.1035  -31.2136 -103.7963 C   0  0  0  0  0  0  0  0  0  0  0  0
   47.1313  -30.9211 -102.9723 N   0  0  0  0  0  0  0  0  0  0  0  0
   46.9235  -30.7307 -101.6593 C   0  0  0  0  0  0  0  0  0  0  0  0
   45.5940  -30.8934 -101.1221 C   0  0  0  0  0  0  0  0  0  0  0  0
   44.5468  -31.2573 -102.0200 C   0  0  0  0  0  0  0  0  0  0  0  0
   43.2542  -31.4388 -101.5719 N   0  0  0  0  0  0  0  0  0  0  0  0
   45.6615  -30.6448  -99.8089 N   0  0  0  0  0  0  0  0  0  0  0  0
   46.8868  -30.3412  -99.4993 C   0  0  0  0  0  0  0  0  0  0  0  0
   47.7132  -30.3846 -100.5978 N   0  0  0  0  0  0  0  0  0  0  0  0
  2  1  1  6  0  0  0
  2  3  1  0  0  0  0
  2  5  1  0  0  0  0
  3  4  1  0  0  0  0
  3 17  1  0  0  0  0
  5  6  1  0  0  0  0
  7  6  1  6  0  0  0
  7  8  1  0  0  0  0
  7  9  1  0  0  0  0
 10  9  1  6  0  0  0
 10 11  1  0  0  0  0
 10 12  1  0  0  0  0
 11 16  1  0  0  0  0
 12 13  1  1  0  0  0
 12 14  1  0  0  0  0
 14 15  1  1  0  0  0
 14 16  1  0  0  0  0
 16 27  1  6  0  0  0
 18 19  2  0  0  0  0
 18 23  1  0  0  0  0
 19 20  1  0  0  0  0
 20 21  2  0  0  0  0
 21 22  1  0  0  0  0
 21 27  1  0  0  0  0
 22 23  2  0  0  0  0
 22 25  1  0  0  0  0
 23 24  1  0  0  0  0
 25 26  2  0  0  0  0
 26 27  1  0  0  0  0
M  END
>  <CHROM.1>
13.69254220,-56.33702177,-105.10948231,165.26133815,-122.24375748,86.56780334
66.42702024,47.79155973,-29.30599671,-102.24750061,2.66407945,-0.07013871
2.55480267

>  <Name>
ligand

>  <RI>
0

>  <Rbt.Current_Directory>
/home/itssahil/PROJECTS/Mol_Feturizer/Test_systems_manuscript/rnas/4l81

>  <Rbt.Executable>
rbdock ($Id: //depot/dev/client3/rdock/2013.1/src/exe/rbdock.cxx#4 $)

>  <Rbt.Library>
libRbt.so (2013.1, Build901 2013/11/27)

>  <Rbt.Parameter_File>
/export/apps/rDock/src/rDock_2013.1_src/data/scripts/dock_solv.prm

>  <Rbt.Receptor>
prm/pocket_docking_4.prm

>  <SCORE>
-12.5229

>  <SCORE.INTER>
-12.2978

>  <SCORE.INTER.CONST>
1

>  <SCORE.INTER.POLAR>
0

>  <SCORE.INTER.ROT>
7

>  <SCORE.INTER.SOLV>
15.6329

>  <SCORE.INTER.VDW>
-21.6762

>  <SCORE.INTER.norm>
-0.455475

>  <SCORE.INTRA>
-0.225084

>  <SCORE.INTRA.DIHEDRAL>
6.18149

>  <SCORE.INTRA.DIHEDRAL.0>
8.34559

>  <SCORE.INTRA.POLAR>
0

>  <SCORE.INTRA.POLAR.0>
0

>  <SCORE.INTRA.REPUL>
0

>  <SCORE.INTRA.REPUL.0>
0

>  <SCORE.INTRA.SOLV>
1.4601

>  <SCORE.INTRA.SOLV.lig_0>
-48.829

>  <SCORE.INTRA.VDW>
-4.04588

>  <SCORE.INTRA.VDW.0>
-1.77092

>  <SCORE.INTRA.norm>
-0.00833643

>  <SCORE.RESTR>
0

>  <SCORE.RESTR.CAVITY>
0

>  <SCORE.RESTR.norm>
0

>  <SCORE.SYSTEM>
0

>  <SCORE.SYSTEM.CONST>
0

>  <SCORE.SYSTEM.DIHEDRAL>
0

>  <SCORE.SYSTEM.SOLV>
0

>  <SCORE.SYSTEM.norm>
0

>  <SCORE.heavy>
27

>  <SCORE.norm>
-0.463812

>  <RMSD>
1.729

$$$$
ligand
 OpenBabel02271912153D
libRbt.so/2013.1/901 2013/11/27
 27 29  0  0  0  0  0  0  0  0999 V2000
   46.1621  -28.9014 -105.0088 N   0  0  0  0  0  0  0  0  0  0  0  0
   46.9127  -27.7914 -105.6066 C   0  0  2  0  0  0  0  0  0  0  0  0
   47.1338  -28.0661 -107.0791 C   0  0  0  0  0  0  0  0  0  0  0  0
   47.2453  -29.2149 -107.4800 O   0  0  0  0  0  0  0  0  0  0  0  0
   48.2761  -27.6082 -104.9262 C   0  0  0  0  0  0  0  0  0  0  0  0
   48.1084  -27.3802 -103.4306 C   0  0  0  0  0  0  0  0  0  0  0  0
   49.6958  -27.0936 -102.5578 S   0  0  2  0  0  0  0  0  0  0  0  0
   50.5791  -25.9140 -103.6291 C   0  0  0  0  0  0  0  0  0  0  0  0
   50.4756  -28.6104 -103.1054 C   0  0  0  0  0  0  0  0  0  0  0  0
   50.8787  -29.5251 -101.9795 C   0  0  1  0  0  0  0  0  0  0  0  0
   49.9211  -29.3677 -100.9187 O   0  0  0  0  0  0  0  0  0  0  0  0
   50.6522  -30.8657 -102.5533 C   0  0  1  0  0  0  0  0  0  0  0  0
   51.8842  -31.3906 -103.0453 O   0  0  0  0  0  0  0  0  0  0  0  0
   50.1994  -31.6540 -101.3636 C   0  0  1  0  0  0  0  0  0  0  0  0
   51.3355  -32.1957 -100.6585 O   0  0  0  0  0  0  0  0  0  0  0  0
   49.4376  -30.6505 -100.4467 C   0  0  2  0  0  0  0  0  0  0  0  0
   47.1689  -27.1477 -107.8793 O   0  0  0  0  0  0  0  0  0  0  0  0
   45.0032  -31.9983 -103.0386 N   0  0  0  0  0  0  0  0  0  0  0  0
   46.2814  -32.3040 -103.3710 C   0  0  0  0  0  0  0  0  0  0  0  0
   47.3239  -31.9333 -102.5984 N   0  0  0  0  0  0  0  0  0  0  0  0
   47.1328  -31.1669 -101.5123 C   0  0  0  0  0  0  0  0  0  0  0  0
   45.7914  -30.7831 -101.1439 C   0  0  0  0  0  0  0  0  0  0  0  0
   44.7137  -31.2432 -101.9578 C   0  0  0  0  0  0  0  0  0  0  0  0
   43.4056  -30.9216 -101.6576 N   0  0  0  0  0  0  0  0  0  0  0  0
   45.8811  -30.0278 -100.0429 N   0  0  0  0  0  0  0  0  0  0  0  0
   47.1328  -29.9082  -99.7139 C   0  0  0  0  0  0  0  0  0  0  0  0
   47.9524  -30.5954 -100.5786 N   0  0  0  0  0  0  0  0  0  0  0  0
  2  1  1  1  0  0  0
  2  3  1  0  0  0  0
  2  5  1  0  0  0  0
  3  4  1  0  0  0  0
  3 17  1  0  0  0  0
  5  6  1  0  0  0  0
  7  6  1  6  0  0  0
  7  8  1  0  0  0  0
  7  9  1  0  0  0  0
 10  9  1  6  0  0  0
 10 11  1  0  0  0  0
 10 12  1  0  0  0  0
 11 16  1  0  0  0  0
 12 13  1  1  0  0  0
 12 14  1  0  0  0  0
 14 15  1  1  0  0  0
 14 16  1  0  0  0  0
 16 27  1  6  0  0  0
 18 19  2  0  0  0  0
 18 23  1  0  0  0  0
 19 20  1  0  0  0  0
 20 21  2  0  0  0  0
 21 22  1  0  0  0  0
 21 27  1  0  0  0  0
 22 23  2  0  0  0  0
 22 25  1  0  0  0  0
 23 24  1  0  0  0  0
 25 26  2  0  0  0  0
 26 27  1  0  0  0  0
M  END
>  <CHROM.1>
-30.95882672,-57.09460994,-177.97048384,45.06922359,-119.80510569,32.87615574
103.61419580,48.17822287,-29.62604324,-102.89760663,1.68733754,-0.29299030
-0.93479193

>  <Name>
ligand

>  <RI>
0

>  <Rbt.Current_Directory>
/home/itssahil/PROJECTS/Mol_Feturizer/Test_systems_manuscript/rnas/4l81

>  <Rbt.Executable>
rbdock ($Id: //depot/dev/client3/rdock/2013.1/src/exe/rbdock.cxx#4 $)

>  <Rbt.Library>
libRbt.so (2013.1, Build901 2013/11/27)

>  <Rbt.Parameter_File>
/export/apps/rDock/src/rDock_2013.1_src/data/scripts/dock_solv.prm

>  <Rbt.Receptor>
prm/pocket_docking_4.prm

>  <SCORE>
-14.0802

>  <SCORE.INTER>
-14.6881

>  <SCORE.INTER.CONST>
1

>  <SCORE.INTER.POLAR>
0

>  <SCORE.INTER.ROT>
7

>  <SCORE.INTER.SOLV>
14.6892

>  <SCORE.INTER.VDW>
-22.9551

>  <SCORE.INTER.norm>
-0.544003

>  <SCORE.INTRA>
0.606672

>  <SCORE.INTRA.DIHEDRAL>
1.45451

>  <SCORE.INTRA.DIHEDRAL.0>
8.34559

>  <SCORE.INTRA.POLAR>
0

>  <SCORE.INTRA.POLAR.0>
0

>  <SCORE.INTRA.REPUL>
0

>  <SCORE.INTRA.REPUL.0>
0

>  <SCORE.INTRA.SOLV>
-0.26987

>  <SCORE.INTRA.SOLV.lig_0>
-48.829

>  <SCORE.INTRA.VDW>
0.0143539

>  <SCORE.INTRA.VDW.0>
-1.77092

>  <SCORE.INTRA.norm>
0.0224693

>  <SCORE.RESTR>
0.00118578

>  <SCORE.RESTR.CAVITY>
0.00118578

>  <SCORE.RESTR.norm>
4.39176e-05

>  <SCORE.SYSTEM>
0

>  <SCORE.SYSTEM.CONST>
0

>  <SCORE.SYSTEM.DIHEDRAL>
0

>  <SCORE.SYSTEM.SOLV>
0

>  <SCORE.SYSTEM.norm>
0

>  <SCORE.heavy>
27

>  <SCORE.norm>
-0.52149

>  <RMSD>
1.757

$$$$
ligand
 OpenBabel02271912153D
libRbt.so/2013.1/901 2013/11/27
 27 29  0  0  0  0  0  0  0  0999 V2000
   48.0508  -24.2075 -105.4599 N   0  0  0  0  0  0  0  0  0  0  0  0
   47.0341  -25.2149 -105.1373 C   0  0  2  0  0  0  0  0  0  0  0  0
   46.7870  -25.2230 -103.6434 C   0  0  0  0  0  0  0  0  0  0  0  0
   45.8654  -25.8753 -103.1766 O   0  0  0  0  0  0  0  0  0  0  0  0
   47.4786  -26.6174 -105.5741 C   0  0  0  0  0  0  0  0  0  0  0  0
   48.9280  -26.8716 -105.1850 C   0  0  0  0  0  0  0  0  0  0  0  0
   49.1737  -27.0463 -103.3760 S   0  0  2  0  0  0  0  0  0  0  0  0
   50.7238  -26.1444 -103.0542 C   0  0  0  0  0  0  0  0  0  0  0  0
   49.8265  -28.7130 -103.4458 C   0  0  0  0  0  0  0  0  0  0  0  0
   50.3231  -29.2252 -102.1200 C   0  0  1  0  0  0  0  0  0  0  0  0
   49.3328  -28.9104 -101.1264 O   0  0  0  0  0  0  0  0  0  0  0  0
   50.2837  -30.6891 -102.3022 C   0  0  1  0  0  0  0  0  0  0  0  0
   51.5827  -31.1634 -102.6530 O   0  0  0  0  0  0  0  0  0  0  0  0
   49.9142  -31.1749 -100.9349 C   0  0  1  0  0  0  0  0  0  0  0  0
   51.0971  -31.3510 -100.1281 O   0  0  0  0  0  0  0  0  0  0  0  0
   49.0109  -30.0673 -100.3140 C   0  0  2  0  0  0  0  0  0  0  0  0
   47.5237  -24.6072 -102.8931 O   0  0  0  0  0  0  0  0  0  0  0  0
   44.7956  -31.8341 -103.0173 N   0  0  0  0  0  0  0  0  0  0  0  0
   46.0983  -31.8858 -103.3892 C   0  0  0  0  0  0  0  0  0  0  0  0
   47.0843  -31.4357 -102.5854 N   0  0  0  0  0  0  0  0  0  0  0  0
   46.7967  -30.8363 -101.4185 C   0  0  0  0  0  0  0  0  0  0  0  0
   45.4198  -30.7226 -101.0017 C   0  0  0  0  0  0  0  0  0  0  0  0
   44.4127  -31.2615 -101.8565 C   0  0  0  0  0  0  0  0  0  0  0  0
   43.0772  -31.1957 -101.5147 N   0  0  0  0  0  0  0  0  0  0  0  0
   45.4112  -30.0894  -99.8228 N   0  0  0  0  0  0  0  0  0  0  0  0
   46.6341  -29.8019  -99.4893 C   0  0  0  0  0  0  0  0  0  0  0  0
   47.5339  -30.2442 -100.4307 N   0  0  0  0  0  0  0  0  0  0  0  0
  2  1  1  1  0  0  0
  2  3  1  0  0  0  0
  2  5  1  0  0  0  0
  3  4  1  0  0  0  0
  3 17  1  0  0  0  0
  5  6  1  0  0  0  0
  7  6  1  6  0  0  0
  7  8  1  0  0  0  0
  7  9  1  0  0  0  0
 10  9  1  6  0  0  0
 10 11  1  0  0  0  0
 10 12  1  0  0  0  0
 11 16  1  0  0  0  0
 12 13  1  1  0  0  0
 12 14  1  0  0  0  0
 14 15  1  1  0  0  0
 14 16  1  0  0  0  0
 16 27  1  6  0  0  0
 18 19  2  0  0  0  0
 18 23  1  0  0  0  0
 19 20  1  0  0  0  0
 20 21  2  0  0  0  0
 21 22  1  0  0  0  0
 21 27  1  0  0  0  0
 22 23  2  0  0  0  0
 22 25  1  0  0  0  0
 23 24  1  0  0  0  0
 25 26  2  0  0  0  0
 26 27  1  0  0  0  0
M  END
>  <CHROM.1>
171.32796029,44.71535201,69.86111301,-139.44925997,173.65678395,46.00357411
81.19686019,47.92501583,-28.83212775,-102.46727751,1.37366483,-0.03833661
-0.51114504

>  <Name>
ligand

>  <RI>
0

>  <Rbt.Current_Directory>
/home/itssahil/PROJECTS/Mol_Feturizer/Test_systems_manuscript/rnas/4l81

>  <Rbt.Executable>
rbdock ($Id: //depot/dev/client3/rdock/2013.1/src/exe/rbdock.cxx#4 $)

>  <Rbt.Library>
libRbt.so (2013.1, Build901 2013/11/27)

>  <Rbt.Parameter_File>
/export/apps/rDock/src/rDock_2013.1_src/data/scripts/dock_solv.prm

>  <Rbt.Receptor>
prm/pocket_docking_3.prm

>  <SCORE>
-15.3419

>  <SCORE.INTER>
-15.1522

>  <SCORE.INTER.CONST>
1

>  <SCORE.INTER.POLAR>
0

>  <SCORE.INTER.ROT>
7

>  <SCORE.INTER.SOLV>
15.3992

>  <SCORE.INTER.VDW>
-23.5012

>  <SCORE.INTER.norm>
-0.561191

>  <SCORE.INTRA>
-0.189754

>  <SCORE.INTRA.DIHEDRAL>
0.685007

>  <SCORE.INTRA.DIHEDRAL.0>
8.34559

>  <SCORE.INTRA.POLAR>
0

>  <SCORE.INTRA.POLAR.0>
0

>  <SCORE.INTRA.REPUL>
0

>  <SCORE.INTRA.REPUL.0>
0

>  <SCORE.INTRA.SOLV>
0.854591

>  <SCORE.INTRA.SOLV.lig_0>
-48.829

>  <SCORE.INTRA.VDW>
-0.959553

>  <SCORE.INTRA.VDW.0>
-1.77092

>  <SCORE.INTRA.norm>
-0.00702794

>  <SCORE.RESTR>
0

>  <SCORE.RESTR.CAVITY>
0

>  <SCORE.RESTR.norm>
0

>  <SCORE.SYSTEM>
0

>  <SCORE.SYSTEM.CONST>
0

>  <SCORE.SYSTEM.DIHEDRAL>
0

>  <SCORE.SYSTEM.SOLV>
0

>  <SCORE.SYSTEM.norm>
0

>  <SCORE.heavy>
27

>  <SCORE.norm>
-0.568219

>  <RMSD>
1.828

$$$$
ligand
 OpenBabel02271912153D
libRbt.so/2013.1/901 2013/11/27
 27 29  0  0  0  0  0  0  0  0999 V2000
   45.2165  -27.7940 -103.6064 N   0  0  0  0  0  0  0  0  0  0  0  0
   45.5280  -26.3997 -103.9404 C   0  0  2  0  0  0  0  0  0  0  0  0
   45.4038  -26.1985 -105.4360 C   0  0  0  0  0  0  0  0  0  0  0  0
   45.7202  -27.0938 -106.2048 O   0  0  0  0  0  0  0  0  0  0  0  0
   46.9517  -26.0256 -103.5062 C   0  0  0  0  0  0  0  0  0  0  0  0
   47.7776  -27.2732 -103.2262 C   0  0  0  0  0  0  0  0  0  0  0  0
   49.4969  -26.9034 -102.7059 S   0  0  2  0  0  0  0  0  0  0  0  0
   50.1395  -25.8391 -104.0377 C   0  0  0  0  0  0  0  0  0  0  0  0
   50.1844  -28.4691 -103.2396 C   0  0  0  0  0  0  0  0  0  0  0  0
   50.4548  -29.4283 -102.1110 C   0  0  1  0  0  0  0  0  0  0  0  0
   49.2531  -29.5406 -101.3298 O   0  0  0  0  0  0  0  0  0  0  0  0
   50.6211  -30.7160 -102.8122 C   0  0  1  0  0  0  0  0  0  0  0  0
   52.0099  -30.9843 -102.9984 O   0  0  0  0  0  0  0  0  0  0  0  0
   50.0380  -31.6920 -101.8377 C   0  0  1  0  0  0  0  0  0  0  0  0
   51.0435  -32.1240 -100.8976 O   0  0  0  0  0  0  0  0  0  0  0  0
   48.9064  -30.9274 -101.0875 C   0  0  2  0  0  0  0  0  0  0  0  0
   44.9569  -25.1567 -105.8831 O   0  0  0  0  0  0  0  0  0  0  0  0
   43.7570  -29.6466 -100.8841 N   0  0  0  0  0  0  0  0  0  0  0  0
   44.7544  -29.1949 -100.0846 C   0  0  0  0  0  0  0  0  0  0  0  0
   46.0375  -29.5696 -100.2698 N   0  0  0  0  0  0  0  0  0  0  0  0
   46.3571  -30.4788 -101.2051 C   0  0  0  0  0  0  0  0  0  0  0  0
   45.3204  -31.0176 -102.0521 C   0  0  0  0  0  0  0  0  0  0  0  0
   43.9857  -30.5523 -101.8585 C   0  0  0  0  0  0  0  0  0  0  0  0
   42.9477  -31.0182 -102.6397 N   0  0  0  0  0  0  0  0  0  0  0  0
   45.8987  -31.8939 -102.8817 N   0  0  0  0  0  0  0  0  0  0  0  0
   47.1707  -31.9473 -102.6194 C   0  0  0  0  0  0  0  0  0  0  0  0
   47.5146  -31.0909 -101.5996 N   0  0  0  0  0  0  0  0  0  0  0  0
  2  1  1  6  0  0  0
  2  3  1  0  0  0  0
  2  5  1  0  0  0  0
  3  4  1  0  0  0  0
  3 17  1  0  0  0  0
  5  6  1  0  0  0  0
  7  6  1  6  0  0  0
  7  8  1  0  0  0  0
  7  9  1  0  0  0  0
 10  9  1  6  0  0  0
 10 11  1  0  0  0  0
 10 12  1  0  0  0  0
 11 16  1  0  0  0  0
 12 13  1  1  0  0  0
 12 14  1  0  0  0  0
 14 15  1  1  0  0  0
 14 16  1  0  0  0  0
 16 27  1  6  0  0  0
 18 19  2  0  0  0  0
 18 23  1  0  0  0  0
 19 20  1  0  0  0  0
 20 21  2  0  0  0  0
 21 22  1  0  0  0  0
 21 27  1  0  0  0  0
 22 23  2  0  0  0  0
 22 25  1  0  0  0  0
 23 24  1  0  0  0  0
 25 26  2  0  0  0  0
 26 27  1  0  0  0  0
M  END
>  <CHROM.1>
-35.18088915,16.38854911,179.82219844,-54.52814819,-103.51006139,51.87775351
-61.61670923,47.48711053,-29.07027272,-102.67295393,2.44737584,-0.00618315
-0.54443359

>  <Name>
ligand

>  <RI>
0

>  <Rbt.Current_Directory>
/home/itssahil/PROJECTS/Mol_Feturizer/Test_systems_manuscript/rnas/4l81

>  <Rbt.Executable>
rbdock ($Id: //depot/dev/client3/rdock/2013.1/src/exe/rbdock.cxx#4 $)

>  <Rbt.Library>
libRbt.so (2013.1, Build901 2013/11/27)

>  <Rbt.Parameter_File>
/export/apps/rDock/src/rDock_2013.1_src/data/scripts/dock_solv.prm

>  <Rbt.Receptor>
prm/pocket_docking_2.prm

>  <SCORE>
-13.3748

>  <SCORE.INTER>
-15.6019

>  <SCORE.INTER.CONST>
1

>  <SCORE.INTER.POLAR>
0

>  <SCORE.INTER.ROT>
7

>  <SCORE.INTER.SOLV>
16.9068

>  <SCORE.INTER.VDW>
-24.3036

>  <SCORE.INTER.norm>
-0.57785

>  <SCORE.INTRA>
2.22421

>  <SCORE.INTRA.DIHEDRAL>
3.58681

>  <SCORE.INTRA.DIHEDRAL.0>
8.34559

>  <SCORE.INTRA.POLAR>
0

>  <SCORE.INTRA.POLAR.0>
0

>  <SCORE.INTRA.REPUL>
0

>  <SCORE.INTRA.REPUL.0>
0

>  <SCORE.INTRA.SOLV>
1.40651

>  <SCORE.INTRA.SOLV.lig_0>
-48.829

>  <SCORE.INTRA.VDW>
-0.272456

>  <SCORE.INTRA.VDW.0>
-1.77092

>  <SCORE.INTRA.norm>
0.082378

>  <SCORE.RESTR>
0.00290591

>  <SCORE.RESTR.CAVITY>
0.00290591

>  <SCORE.RESTR.norm>
0.000107626

>  <SCORE.SYSTEM>
0

>  <SCORE.SYSTEM.CONST>
0

>  <SCORE.SYSTEM.DIHEDRAL>
0

>  <SCORE.SYSTEM.SOLV>
0

>  <SCORE.SYSTEM.norm>
0

>  <SCORE.heavy>
27

>  <SCORE.norm>
-0.495364

>  <RMSD>
1.829

$$$$
ligand
 OpenBabel02271912153D
libRbt.so/2013.1/901 2013/11/27
 27 29  0  0  0  0  0  0  0  0999 V2000
   46.8423  -23.7611 -105.8286 N   0  0  0  0  0  0  0  0  0  0  0  0
   47.2162  -25.0713 -105.2841 C   0  0  2  0  0  0  0  0  0  0  0  0
   46.9988  -25.0765 -103.7857 C   0  0  0  0  0  0  0  0  0  0  0  0
   47.5936  -24.2796 -103.0757 O   0  0  0  0  0  0  0  0  0  0  0  0
   48.6879  -25.3972 -105.5728 C   0  0  0  0  0  0  0  0  0  0  0  0
   49.0004  -26.8452 -105.2226 C   0  0  0  0  0  0  0  0  0  0  0  0
   49.2444  -27.1207 -103.4260 S   0  0  2  0  0  0  0  0  0  0  0  0
   50.7490  -26.1700 -103.0363 C   0  0  0  0  0  0  0  0  0  0  0  0
   49.9745  -28.7479 -103.5936 C   0  0  0  0  0  0  0  0  0  0  0  0
   50.4974  -29.3135 -102.3000 C   0  0  1  0  0  0  0  0  0  0  0  0
   49.5495  -28.9992 -101.2658 O   0  0  0  0  0  0  0  0  0  0  0  0
   50.4079  -30.7695 -102.5226 C   0  0  1  0  0  0  0  0  0  0  0  0
   51.6800  -31.2712 -102.9294 O   0  0  0  0  0  0  0  0  0  0  0  0
   50.0677  -31.2845 -101.1583 C   0  0  1  0  0  0  0  0  0  0  0  0
   51.2700  -31.5191 -100.3962 O   0  0  0  0  0  0  0  0  0  0  0  0
   49.2188  -30.1697 -100.4767 C   0  0  2  0  0  0  0  0  0  0  0  0
   46.2057  -25.8513 -103.2802 O   0  0  0  0  0  0  0  0  0  0  0  0
   44.8754  -31.8610 -103.0208 N   0  0  0  0  0  0  0  0  0  0  0  0
   46.1651  -31.9660 -103.4254 C   0  0  0  0  0  0  0  0  0  0  0  0
   47.1870  -31.5292 -102.6599 N   0  0  0  0  0  0  0  0  0  0  0  0
   46.9512  -30.8912 -101.5019 C   0  0  0  0  0  0  0  0  0  0  0  0
   45.5906  -30.7206 -101.0521 C   0  0  0  0  0  0  0  0  0  0  0  0
   44.5434  -31.2466 -101.8656 C   0  0  0  0  0  0  0  0  0  0  0  0
   43.2206  -31.1272 -101.4906 N   0  0  0  0  0  0  0  0  0  0  0  0
   45.6351  -30.0579  -99.8904 N   0  0  0  0  0  0  0  0  0  0  0  0
   46.8754  -29.8034  -99.5968 C   0  0  0  0  0  0  0  0  0  0  0  0
   47.7342  -30.2994 -100.5497 N   0  0  0  0  0  0  0  0  0  0  0  0
  2  1  1  1  0  0  0
  2  3  1  0  0  0  0
  2  5  1  0  0  0  0
  3  4  1  0  0  0  0
  3 17  1  0  0  0  0
  5  6  1  0  0  0  0
  7  6  1  6  0  0  0
  7  8  1  0  0  0  0
  7  9  1  0  0  0  0
 10  9  1  6  0  0  0
 10 11  1  0  0  0  0
 10 12  1  0  0  0  0
 11 16  1  0  0  0  0
 12 13  1  1  0  0  0
 12 14  1  0  0  0  0
 14 15  1  1  0  0  0
 14 16  1  0  0  0  0
 16 27  1  6  0  0  0
 18 19  2  0  0  0  0
 18 23  1  0  0  0  0
 19 20  1  0  0  0  0
 20 21  2  0  0  0  0
 21 22  1  0  0  0  0
 21 27  1  0  0  0  0
 22 23  2  0  0  0  0
 22 25  1  0  0  0  0
 23 24  1  0  0  0  0
 25 26  2  0  0  0  0
 26 27  1  0  0  0  0
M  END
>  <CHROM.1>
-59.74842954,-170.15367136,-78.88347238,-65.26388072,173.18515315,40.94311110
84.36116712,48.06158506,-28.78999495,-102.58326408,1.46180882,0.00526375
-0.48337204

>  <Name>
ligand

>  <RI>
0

>  <Rbt.Current_Directory>
/home/itssahil/PROJECTS/Mol_Feturizer/Test_systems_manuscript/rnas/4l81

>  <Rbt.Executable>
rbdock ($Id: //depot/dev/client3/rdock/2013.1/src/exe/rbdock.cxx#4 $)

>  <Rbt.Library>
libRbt.so (2013.1, Build901 2013/11/27)

>  <Rbt.Parameter_File>
/export/apps/rDock/src/rDock_2013.1_src/data/scripts/dock_solv.prm

>  <Rbt.Receptor>
prm/pocket_docking_5.prm

>  <SCORE>
-17.792

>  <SCORE.INTER>
-14.7317

>  <SCORE.INTER.CONST>
1

>  <SCORE.INTER.POLAR>
0

>  <SCORE.INTER.ROT>
7

>  <SCORE.INTER.SOLV>
16.0498

>  <SCORE.INTER.VDW>
-23.4377

>  <SCORE.INTER.norm>
-0.545617

>  <SCORE.INTRA>
-3.0603

>  <SCORE.INTRA.DIHEDRAL>
-2.30927

>  <SCORE.INTRA.DIHEDRAL.0>
8.34559

>  <SCORE.INTRA.POLAR>
0

>  <SCORE.INTRA.POLAR.0>
0

>  <SCORE.INTRA.REPUL>
0

>  <SCORE.INTRA.REPUL.0>
0

>  <SCORE.INTRA.SOLV>
-1.10415

>  <SCORE.INTRA.SOLV.lig_0>
-48.829

>  <SCORE.INTRA.VDW>
-1.3536

>  <SCORE.INTRA.VDW.0>
-1.77092

>  <SCORE.INTRA.norm>
-0.113345

>  <SCORE.RESTR>
0

>  <SCORE.RESTR.CAVITY>
0

>  <SCORE.RESTR.norm>
0

>  <SCORE.SYSTEM>
0

>  <SCORE.SYSTEM.CONST>
0

>  <SCORE.SYSTEM.DIHEDRAL>
0

>  <SCORE.SYSTEM.SOLV>
0

>  <SCORE.SYSTEM.norm>
0

>  <SCORE.heavy>
27

>  <SCORE.norm>
-0.658962

>  <RMSD>
1.913

$$$$
ligand
 OpenBabel02271912153D
libRbt.so/2013.1/901 2013/11/27
 27 29  0  0  0  0  0  0  0  0999 V2000
   44.9013  -25.4579 -105.2474 N   0  0  0  0  0  0  0  0  0  0  0  0
   45.6302  -26.6038 -104.6922 C   0  0  2  0  0  0  0  0  0  0  0  0
   44.7818  -27.2779 -103.6345 C   0  0  0  0  0  0  0  0  0  0  0  0
   44.2501  -28.3531 -103.8667 O   0  0  0  0  0  0  0  0  0  0  0  0
   46.9584  -26.1677 -104.0588 C   0  0  0  0  0  0  0  0  0  0  0  0
   47.8206  -27.3763 -103.7230 C   0  0  0  0  0  0  0  0  0  0  0  0
   49.5373  -26.9347 -103.2525 S   0  0  2  0  0  0  0  0  0  0  0  0
   50.1816  -26.0584 -104.7141 C   0  0  0  0  0  0  0  0  0  0  0  0
   50.2302  -28.5562 -103.5676 C   0  0  0  0  0  0  0  0  0  0  0  0
   50.5010  -29.3525 -102.3188 C   0  0  1  0  0  0  0  0  0  0  0  0
   49.2949  -29.3700 -101.5365 O   0  0  0  0  0  0  0  0  0  0  0  0
   50.6830  -30.7212 -102.8397 C   0  0  1  0  0  0  0  0  0  0  0  0
   52.0752  -30.9992 -102.9802 O   0  0  0  0  0  0  0  0  0  0  0  0
   50.1014  -31.5628 -101.7462 C   0  0  1  0  0  0  0  0  0  0  0  0
   51.1040  -31.8552 -100.7509 O   0  0  0  0  0  0  0  0  0  0  0  0
   48.9583  -30.7148 -101.1120 C   0  0  2  0  0  0  0  0  0  0  0  0
   44.6498  -26.7710 -102.5343 O   0  0  0  0  0  0  0  0  0  0  0  0
   43.7591  -29.6530 -100.9132 N   0  0  0  0  0  0  0  0  0  0  0  0
   44.7413  -29.1277 -100.1403 C   0  0  0  0  0  0  0  0  0  0  0  0
   46.0382  -29.4529 -100.3221 N   0  0  0  0  0  0  0  0  0  0  0  0
   46.3910  -30.3828 -101.2246 C   0  0  0  0  0  0  0  0  0  0  0  0
   45.3730  -30.9986 -102.0413 C   0  0  0  0  0  0  0  0  0  0  0  0
   44.0205  -30.5849 -101.8541 C   0  0  0  0  0  0  0  0  0  0  0  0
   42.9986  -31.1254 -102.6079 N   0  0  0  0  0  0  0  0  0  0  0  0
   45.9835  -31.8803 -102.8418 N   0  0  0  0  0  0  0  0  0  0  0  0
   47.2584  -31.8679 -102.5886 C   0  0  0  0  0  0  0  0  0  0  0  0
   47.5714  -30.9586 -101.6054 N   0  0  0  0  0  0  0  0  0  0  0  0
  2  1  1  1  0  0  0
  2  3  1  0  0  0  0
  2  5  1  0  0  0  0
  3  4  1  0  0  0  0
  3 17  1  0  0  0  0
  5  6  1  0  0  0  0
  7  6  1  6  0  0  0
  7  8  1  0  0  0  0
  7  9  1  0  0  0  0
 10  9  1  6  0  0  0
 10 11  1  0  0  0  0
 10 12  1  0  0  0  0
 11 16  1  0  0  0  0
 12 13  1  1  0  0  0
 12 14  1  0  0  0  0
 14 15  1  1  0  0  0
 14 16  1  0  0  0  0
 16 27  1  6  0  0  0
 18 19  2  0  0  0  0
 18 23  1  0  0  0  0
 19 20  1  0  0  0  0
 20 21  2  0  0  0  0
 21 22  1  0  0  0  0
 21 27  1  0  0  0  0
 22 23  2  0  0  0  0
 22 25  1  0  0  0  0
 23 24  1  0  0  0  0
 25 26  2  0  0  0  0
 26 27  1  0  0  0  0
M  END
>  <CHROM.1>
106.49544654,-169.37532882,169.38361615,-59.38415910,-103.58325133,52.30740798
-67.53901117,47.42295489,-29.12363795,-102.59761795,-2.86630314,-0.06180234
2.63697810

>  <Name>
ligand

>  <RI>
0

>  <Rbt.Current_Directory>
/home/itssahil/PROJECTS/Mol_Feturizer/Test_systems_manuscript/rnas/4l81

>  <Rbt.Executable>
rbdock ($Id: //depot/dev/client3/rdock/2013.1/src/exe/rbdock.cxx#4 $)

>  <Rbt.Library>
libRbt.so (2013.1, Build901 2013/11/27)

>  <Rbt.Parameter_File>
/export/apps/rDock/src/rDock_2013.1_src/data/scripts/dock_solv.prm

>  <Rbt.Receptor>
prm/pocket_docking_2.prm

>  <SCORE>
-16.0771

>  <SCORE.INTER>
-13.3798

>  <SCORE.INTER.CONST>
1

>  <SCORE.INTER.POLAR>
0

>  <SCORE.INTER.ROT>
7

>  <SCORE.INTER.SOLV>
20.3972

>  <SCORE.INTER.VDW>
-23.9856

>  <SCORE.INTER.norm>
-0.495548

>  <SCORE.INTRA>
-2.70131

>  <SCORE.INTRA.DIHEDRAL>
-0.781461

>  <SCORE.INTRA.DIHEDRAL.0>
8.34559

>  <SCORE.INTRA.POLAR>
0

>  <SCORE.INTRA.POLAR.0>
0

>  <SCORE.INTRA.REPUL>
0

>  <SCORE.INTRA.REPUL.0>
0

>  <SCORE.INTRA.SOLV>
-0.623701

>  <SCORE.INTRA.SOLV.lig_0>
-48.829

>  <SCORE.INTRA.VDW>
-1.99873

>  <SCORE.INTRA.VDW.0>
-1.77092

>  <SCORE.INTRA.norm>
-0.100049

>  <SCORE.RESTR>
0.0039838

>  <SCORE.RESTR.CAVITY>
0.0039838

>  <SCORE.RESTR.norm>
0.000147548

>  <SCORE.SYSTEM>
0

>  <SCORE.SYSTEM.CONST>
0

>  <SCORE.SYSTEM.DIHEDRAL>
0

>  <SCORE.SYSTEM.SOLV>
0

>  <SCORE.SYSTEM.norm>
0

>  <SCORE.heavy>
27

>  <SCORE.norm>
-0.595449

>  <RMSD>
1.937

$$$$
ligand
 OpenBabel02271912153D
libRbt.so/2013.1/901 2013/11/27
 27 29  0  0  0  0  0  0  0  0999 V2000
   45.3193  -28.6197 -104.5149 N   0  0  0  0  0  0  0  0  0  0  0  0
   46.3083  -27.5419 -104.4012 C   0  0  2  0  0  0  0  0  0  0  0  0
   45.6607  -26.2217 -104.7622 C   0  0  0  0  0  0  0  0  0  0  0  0
   44.5459  -26.2004 -105.2618 O   0  0  0  0  0  0  0  0  0  0  0  0
   47.5036  -27.7794 -105.3341 C   0  0  0  0  0  0  0  0  0  0  0  0
   48.6583  -26.8526 -104.9812 C   0  0  0  0  0  0  0  0  0  0  0  0
   49.2497  -27.0543 -103.2570 S   0  0  2  0  0  0  0  0  0  0  0  0
   50.6521  -25.8976 -103.1357 C   0  0  0  0  0  0  0  0  0  0  0  0
   50.1582  -28.5686 -103.5571 C   0  0  0  0  0  0  0  0  0  0  0  0
   50.4655  -29.3487 -102.3066 C   0  0  1  0  0  0  0  0  0  0  0  0
   49.2582  -29.4319 -101.5305 O   0  0  0  0  0  0  0  0  0  0  0  0
   50.7246  -30.7056 -102.8258 C   0  0  1  0  0  0  0  0  0  0  0  0
   52.1306  -30.9073 -102.9590 O   0  0  0  0  0  0  0  0  0  0  0  0
   50.1841  -31.5774 -101.7350 C   0  0  1  0  0  0  0  0  0  0  0  0
   51.1959  -31.8146 -100.7343 O   0  0  0  0  0  0  0  0  0  0  0  0
   48.9932  -30.7929 -101.1071 C   0  0  2  0  0  0  0  0  0  0  0  0
   46.2307  -25.1705 -104.5275 O   0  0  0  0  0  0  0  0  0  0  0  0
   43.7518  -29.9471 -101.0040 N   0  0  0  0  0  0  0  0  0  0  0  0
   44.7009  -29.3546 -100.2385 C   0  0  0  0  0  0  0  0  0  0  0  0
   46.0127  -29.6304 -100.3943 N   0  0  0  0  0  0  0  0  0  0  0  0
   46.4158  -30.5744 -101.2602 C   0  0  0  0  0  0  0  0  0  0  0  0
   45.4352  -31.2602 -102.0668 C   0  0  0  0  0  0  0  0  0  0  0  0
   44.0642  -30.8983 -101.9093 C   0  0  0  0  0  0  0  0  0  0  0  0
   43.0757  -31.5071 -102.6556 N   0  0  0  0  0  0  0  0  0  0  0  0
   46.0925  -32.1417 -102.8295 N   0  0  0  0  0  0  0  0  0  0  0  0
   47.3624  -32.0666 -102.5625 C   0  0  0  0  0  0  0  0  0  0  0  0
   47.6242  -31.1120 -101.6075 N   0  0  0  0  0  0  0  0  0  0  0  0
  2  1  1  6  0  0  0
  2  3  1  0  0  0  0
  2  5  1  0  0  0  0
  3  4  1  0  0  0  0
  3 17  1  0  0  0  0
  5  6  1  0  0  0  0
  7  6  1  6  0  0  0
  7  8  1  0  0  0  0
  7  9  1  0  0  0  0
 10  9  1  6  0  0  0
 10 11  1  0  0  0  0
 10 12  1  0  0  0  0
 11 16  1  0  0  0  0
 12 13  1  1  0  0  0
 12 14  1  0  0  0  0
 14 15  1  1  0  0  0
 14 16  1  0  0  0  0
 16 27  1  6  0  0  0
 18 19  2  0  0  0  0
 18 23  1  0  0  0  0
 19 20  1  0  0  0  0
 20 21  2  0  0  0  0
 21 22  1  0  0  0  0
 21 27  1  0  0  0  0
 22 23  2  0  0  0  0
 22 25  1  0  0  0  0
 23 24  1  0  0  0  0
 25 26  2  0  0  0  0
 26 27  1  0  0  0  0
M  END
>  <CHROM.1>
-10.26135476,-166.69994563,58.84685175,177.66644218,-161.49035867,47.28548451
-65.44295949,47.62815302,-29.20695547,-102.77522704,-2.78132178,0.01857500
2.60079393

>  <Name>
ligand

>  <RI>
0

>  <Rbt.Current_Directory>
/home/itssahil/PROJECTS/Mol_Feturizer/Test_systems_manuscript/rnas/4l81

>  <Rbt.Executable>
rbdock ($Id: //depot/dev/client3/rdock/2013.1/src/exe/rbdock.cxx#4 $)

>  <Rbt.Library>
libRbt.so (2013.1, Build901 2013/11/27)

>  <Rbt.Parameter_File>
/export/apps/rDock/src/rDock_2013.1_src/data/scripts/dock_solv.prm

>  <Rbt.Receptor>
prm/pocket_docking_3.prm

>  <SCORE>
-15.8098

>  <SCORE.INTER>
-13.5068

>  <SCORE.INTER.CONST>
1

>  <SCORE.INTER.POLAR>
0

>  <SCORE.INTER.ROT>
7

>  <SCORE.INTER.SOLV>
15.1781

>  <SCORE.INTER.VDW>
-22.3306

>  <SCORE.INTER.norm>
-0.500251

>  <SCORE.INTRA>
-2.30297

>  <SCORE.INTRA.DIHEDRAL>
-1.95319

>  <SCORE.INTRA.DIHEDRAL.0>
8.34559

>  <SCORE.INTRA.POLAR>
0

>  <SCORE.INTRA.POLAR.0>
0

>  <SCORE.INTRA.REPUL>
0

>  <SCORE.INTRA.REPUL.0>
0

>  <SCORE.INTRA.SOLV>
-0.0306381

>  <SCORE.INTRA.SOLV.lig_0>
-48.829

>  <SCORE.INTRA.VDW>
-1.31105

>  <SCORE.INTRA.VDW.0>
-1.77092

>  <SCORE.INTRA.norm>
-0.085295

>  <SCORE.RESTR>
0

>  <SCORE.RESTR.CAVITY>
0

>  <SCORE.RESTR.norm>
0

>  <SCORE.SYSTEM>
0

>  <SCORE.SYSTEM.CONST>
0

>  <SCORE.SYSTEM.DIHEDRAL>
0

>  <SCORE.SYSTEM.SOLV>
0

>  <SCORE.SYSTEM.norm>
0

>  <SCORE.heavy>
27

>  <SCORE.norm>
-0.585546

>  <RMSD>
1.970

$$$$
ligand
 OpenBabel02271912153D
libRbt.so/2013.1/901 2013/11/27
 27 29  0  0  0  0  0  0  0  0999 V2000
   45.6195  -28.5485 -103.4099 N   0  0  0  0  0  0  0  0  0  0  0  0
   45.9443  -27.1315 -103.2118 C   0  0  2  0  0  0  0  0  0  0  0  0
   46.0097  -26.4356 -104.5550 C   0  0  0  0  0  0  0  0  0  0  0  0
   46.1199  -25.2202 -104.6127 O   0  0  0  0  0  0  0  0  0  0  0  0
   47.2928  -26.9615 -102.4991 C   0  0  0  0  0  0  0  0  0  0  0  0
   48.3369  -27.9017 -103.0847 C   0  0  0  0  0  0  0  0  0  0  0  0
   50.0538  -27.2835 -102.9021 S   0  0  2  0  0  0  0  0  0  0  0  0
   50.3489  -26.3469 -104.4368 C   0  0  0  0  0  0  0  0  0  0  0  0
   50.8464  -28.8246 -103.3554 C   0  0  0  0  0  0  0  0  0  0  0  0
   51.1282  -29.7283 -102.1846 C   0  0  1  0  0  0  0  0  0  0  0  0
   49.9954  -29.6720 -101.3011 O   0  0  0  0  0  0  0  0  0  0  0  0
   51.1144  -31.0698 -102.7993 C   0  0  1  0  0  0  0  0  0  0  0  0
   52.4512  -31.4827 -103.0785 O   0  0  0  0  0  0  0  0  0  0  0  0
   50.5343  -31.9181 -101.7102 C   0  0  1  0  0  0  0  0  0  0  0  0
   51.5760  -32.3817 -100.8264 O   0  0  0  0  0  0  0  0  0  0  0  0
   49.5476  -30.9997 -100.9285 C   0  0  2  0  0  0  0  0  0  0  0  0
   45.9865  -27.0833 -105.5870 O   0  0  0  0  0  0  0  0  0  0  0  0
   44.5200  -29.4758 -100.1545 N   0  0  0  0  0  0  0  0  0  0  0  0
   45.6120  -29.1238  -99.4324 C   0  0  0  0  0  0  0  0  0  0  0  0
   46.8489  -29.5508  -99.7620 N   0  0  0  0  0  0  0  0  0  0  0  0
   47.0276  -30.4171 -100.7725 C   0  0  0  0  0  0  0  0  0  0  0  0
   45.8871  -30.8510 -101.5429 C   0  0  0  0  0  0  0  0  0  0  0  0
   44.6047  -30.3316 -101.1950 C   0  0  0  0  0  0  0  0  0  0  0  0
   43.4733  -30.6968 -101.8959 N   0  0  0  0  0  0  0  0  0  0  0  0
   46.3348  -31.7038 -102.4719 N   0  0  0  0  0  0  0  0  0  0  0  0
   47.6208  -31.8369 -102.3380 C   0  0  0  0  0  0  0  0  0  0  0  0
   48.1067  -31.0618 -101.3109 N   0  0  0  0  0  0  0  0  0  0  0  0
  2  1  1  6  0  0  0
  2  3  1  0  0  0  0
  2  5  1  0  0  0  0
  3  4  1  0  0  0  0
  3 17  1  0  0  0  0
  5  6  1  0  0  0  0
  7  6  1  6  0  0  0
  7  8  1  0  0  0  0
  7  9  1  0  0  0  0
 10  9  1  6  0  0  0
 10 11  1  0  0  0  0
 10 12  1  0  0  0  0
 11 16  1  0  0  0  0
 12 13  1  1  0  0  0
 12 14  1  0  0  0  0
 14 15  1  1  0  0  0
 14 16  1  0  0  0  0
 16 27  1  6  0  0  0
 18 19  2  0  0  0  0
 18 23  1  0  0  0  0
 19 20  1  0  0  0  0
 20 21  2  0  0  0  0
 21 22  1  0  0  0  0
 21 27  1  0  0  0  0
 22 23  2  0  0  0  0
 22 25  1  0  0  0  0
 23 24  1  0  0  0  0
 25 26  2  0  0  0  0
 26 27  1  0  0  0  0
M  END
>  <CHROM.1>
171.84938622,44.00356724,153.09706893,-91.43124423,-90.65739670,40.62198539
-69.35065633,48.05937778,-29.27349016,-102.34887309,-2.67353496,-0.15296191
2.55745175

>  <Name>
ligand

>  <RI>
0

>  <Rbt.Current_Directory>
/home/itssahil/PROJECTS/Mol_Feturizer/Test_systems_manuscript/rnas/4l81

>  <Rbt.Executable>
rbdock ($Id: //depot/dev/client3/rdock/2013.1/src/exe/rbdock.cxx#4 $)

>  <Rbt.Library>
libRbt.so (2013.1, Build901 2013/11/27)

>  <Rbt.Parameter_File>
/export/apps/rDock/src/rDock_2013.1_src/data/scripts/dock_solv.prm

>  <Rbt.Receptor>
prm/pocket_docking_3.prm

>  <SCORE>
-15.8848

>  <SCORE.INTER>
-16.1585

>  <SCORE.INTER.CONST>
1

>  <SCORE.INTER.POLAR>
0

>  <SCORE.INTER.ROT>
7

>  <SCORE.INTER.SOLV>
14.291

>  <SCORE.INTER.VDW>
-23.8027

>  <SCORE.INTER.norm>
-0.598465

>  <SCORE.INTRA>
0.273699

>  <SCORE.INTRA.DIHEDRAL>
1.9966

>  <SCORE.INTRA.DIHEDRAL.0>
8.34559

>  <SCORE.INTRA.POLAR>
0

>  <SCORE.INTRA.POLAR.0>
0

>  <SCORE.INTRA.REPUL>
0

>  <SCORE.INTRA.REPUL.0>
0

>  <SCORE.INTRA.SOLV>
3.31047

>  <SCORE.INTRA.SOLV.lig_0>
-48.829

>  <SCORE.INTRA.VDW>
-2.37984

>  <SCORE.INTRA.VDW.0>
-1.77092

>  <SCORE.INTRA.norm>
0.010137

>  <SCORE.RESTR>
0

>  <SCORE.RESTR.CAVITY>
0

>  <SCORE.RESTR.norm>
0

>  <SCORE.SYSTEM>
0

>  <SCORE.SYSTEM.CONST>
0

>  <SCORE.SYSTEM.DIHEDRAL>
0

>  <SCORE.SYSTEM.SOLV>
0

>  <SCORE.SYSTEM.norm>
0

>  <SCORE.heavy>
27

>  <SCORE.norm>
-0.588328

>  <RMSD>
2.084

$$$$
ligand
 OpenBabel02271912153D
libRbt.so/2013.1/901 2013/11/27
 27 29  0  0  0  0  0  0  0  0999 V2000
   46.5394  -26.5052 -106.0763 N   0  0  0  0  0  0  0  0  0  0  0  0
   47.7683  -26.7175 -105.3035 C   0  0  2  0  0  0  0  0  0  0  0  0
   48.9299  -26.9330 -106.2506 C   0  0  0  0  0  0  0  0  0  0  0  0
   48.9211  -26.4215 -107.3601 O   0  0  0  0  0  0  0  0  0  0  0  0
   47.6457  -27.9394 -104.3830 C   0  0  0  0  0  0  0  0  0  0  0  0
   47.5729  -27.5127 -102.9237 C   0  0  0  0  0  0  0  0  0  0  0  0
   49.1897  -26.9786 -102.2424 S   0  0  2  0  0  0  0  0  0  0  0  0
   49.7553  -25.6969 -103.4073 C   0  0  0  0  0  0  0  0  0  0  0  0
   50.1196  -28.3702 -102.8810 C   0  0  0  0  0  0  0  0  0  0  0  0
   50.5439  -29.3525 -101.8219 C   0  0  1  0  0  0  0  0  0  0  0  0
   49.5954  -29.2766 -100.7441 O   0  0  0  0  0  0  0  0  0  0  0  0
   50.3263  -30.6548 -102.4811 C   0  0  1  0  0  0  0  0  0  0  0  0
   51.5589  -31.1318 -103.0181 O   0  0  0  0  0  0  0  0  0  0  0  0
   49.8941  -31.5251 -101.3419 C   0  0  1  0  0  0  0  0  0  0  0  0
   51.0430  -32.0991 -100.6848 O   0  0  0  0  0  0  0  0  0  0  0  0
   49.1306  -30.5932 -100.3536 C   0  0  2  0  0  0  0  0  0  0  0  0
   49.8958  -27.5894 -105.9026 O   0  0  0  0  0  0  0  0  0  0  0  0
   44.6830  -31.8471 -102.9698 N   0  0  0  0  0  0  0  0  0  0  0  0
   45.9607  -32.1214 -103.3306 C   0  0  0  0  0  0  0  0  0  0  0  0
   47.0074  -31.7815 -102.5497 N   0  0  0  0  0  0  0  0  0  0  0  0
   46.8201  -31.0761 -101.4224 C   0  0  0  0  0  0  0  0  0  0  0  0
   45.4789  -30.7264 -101.0208 C   0  0  0  0  0  0  0  0  0  0  0  0
   44.3974  -31.1537 -101.8474 C   0  0  0  0  0  0  0  0  0  0  0  0
   43.0894  -30.8622 -101.5176 N   0  0  0  0  0  0  0  0  0  0  0  0
   45.5726  -30.0300  -99.8820 N   0  0  0  0  0  0  0  0  0  0  0  0
   46.8264  -29.9151  -99.5594 C   0  0  0  0  0  0  0  0  0  0  0  0
   47.6437  -30.5466 -100.4677 N   0  0  0  0  0  0  0  0  0  0  0  0
  2  1  1  6  0  0  0
  2  3  1  0  0  0  0
  2  5  1  0  0  0  0
  3  4  1  0  0  0  0
  3 17  1  0  0  0  0
  5  6  1  0  0  0  0
  7  6  1  6  0  0  0
  7  8  1  0  0  0  0
  7  9  1  0  0  0  0
 10  9  1  6  0  0  0
 10 11  1  0  0  0  0
 10 12  1  0  0  0  0
 11 16  1  0  0  0  0
 12 13  1  1  0  0  0
 12 14  1  0  0  0  0
 14 15  1  1  0  0  0
 14 16  1  0  0  0  0
 16 27  1  6  0  0  0
 18 19  2  0  0  0  0
 18 23  1  0  0  0  0
 19 20  1  0  0  0  0
 20 21  2  0  0  0  0
 21 22  1  0  0  0  0
 21 27  1  0  0  0  0
 22 23  2  0  0  0  0
 22 25  1  0  0  0  0
 23 24  1  0  0  0  0
 25 26  2  0  0  0  0
 26 27  1  0  0  0  0
M  END
>  <CHROM.1>
28.98073914,-109.80241947,-75.13611132,53.84098505,-107.89450037,27.29531343
104.35121227,48.14231803,-29.29856416,-102.68052954,1.15790087,-0.12819213
-0.80339795

>  <Name>
ligand

>  <RI>
0

>  <Rbt.Current_Directory>
/home/itssahil/PROJECTS/Mol_Feturizer/Test_systems_manuscript/rnas/4l81

>  <Rbt.Executable>
rbdock ($Id: //depot/dev/client3/rdock/2013.1/src/exe/rbdock.cxx#4 $)

>  <Rbt.Library>
libRbt.so (2013.1, Build901 2013/11/27)

>  <Rbt.Parameter_File>
/export/apps/rDock/src/rDock_2013.1_src/data/scripts/dock_solv.prm

>  <Rbt.Receptor>
prm/pocket_docking_2.prm

>  <SCORE>
-7.66517

>  <SCORE.INTER>
-13.4047

>  <SCORE.INTER.CONST>
1

>  <SCORE.INTER.POLAR>
0

>  <SCORE.INTER.ROT>
7

>  <SCORE.INTER.SOLV>
15.6263

>  <SCORE.INTER.VDW>
-22.4119

>  <SCORE.INTER.norm>
-0.496469

>  <SCORE.INTRA>
5.12698

>  <SCORE.INTRA.DIHEDRAL>
7.3525

>  <SCORE.INTRA.DIHEDRAL.0>
8.34559

>  <SCORE.INTRA.POLAR>
0

>  <SCORE.INTRA.POLAR.0>
0

>  <SCORE.INTRA.REPUL>
0

>  <SCORE.INTRA.REPUL.0>
0

>  <SCORE.INTRA.SOLV>
-0.380722

>  <SCORE.INTRA.SOLV.lig_0>
-48.829

>  <SCORE.INTRA.VDW>
1.64109

>  <SCORE.INTRA.VDW.0>
-1.77092

>  <SCORE.INTRA.norm>
0.189888

>  <SCORE.RESTR>
0.612512

>  <SCORE.RESTR.CAVITY>
0.612512

>  <SCORE.RESTR.norm>
0.0226856

>  <SCORE.SYSTEM>
0

>  <SCORE.SYSTEM.CONST>
0

>  <SCORE.SYSTEM.DIHEDRAL>
0

>  <SCORE.SYSTEM.SOLV>
0

>  <SCORE.SYSTEM.norm>
0

>  <SCORE.heavy>
27

>  <SCORE.norm>
-0.283895

>  <RMSD>
2.090

$$$$
ligand
 OpenBabel02271912153D
libRbt.so/2013.1/901 2013/11/27
 27 29  0  0  0  0  0  0  0  0999 V2000
   46.0425  -25.4955 -105.5792 N   0  0  0  0  0  0  0  0  0  0  0  0
   45.9961  -26.9042 -105.1715 C   0  0  2  0  0  0  0  0  0  0  0  0
   45.7611  -26.9905 -103.6781 C   0  0  0  0  0  0  0  0  0  0  0  0
   46.1167  -27.9802 -103.0563 O   0  0  0  0  0  0  0  0  0  0  0  0
   47.3068  -27.6274 -105.5098 C   0  0  0  0  0  0  0  0  0  0  0  0
   48.5084  -26.7541 -105.1774 C   0  0  0  0  0  0  0  0  0  0  0  0
   49.0854  -26.9423 -103.4468 S   0  0  2  0  0  0  0  0  0  0  0  0
   50.5779  -25.9005 -103.3658 C   0  0  0  0  0  0  0  0  0  0  0  0
   49.8665  -28.5355 -103.6924 C   0  0  0  0  0  0  0  0  0  0  0  0
   50.1840  -29.2587 -102.4106 C   0  0  1  0  0  0  0  0  0  0  0  0
   48.9773  -29.3273 -101.6321 O   0  0  0  0  0  0  0  0  0  0  0  0
   50.4633  -30.6319 -102.8733 C   0  0  1  0  0  0  0  0  0  0  0  0
   51.8722  -30.8183 -102.9976 O   0  0  0  0  0  0  0  0  0  0  0  0
   49.9347  -31.4657 -101.7475 C   0  0  1  0  0  0  0  0  0  0  0  0
   50.9489  -31.6464 -100.7376 O   0  0  0  0  0  0  0  0  0  0  0  0
   48.7318  -30.6734 -101.1528 C   0  0  2  0  0  0  0  0  0  0  0  0
   45.2466  -26.0617 -103.0801 O   0  0  0  0  0  0  0  0  0  0  0  0
   43.4836  -29.8653 -101.1263 N   0  0  0  0  0  0  0  0  0  0  0  0
   44.4239  -29.2205 -100.3930 C   0  0  0  0  0  0  0  0  0  0  0  0
   45.7386  -29.4944 -100.5255 N   0  0  0  0  0  0  0  0  0  0  0  0
   46.1537  -30.4853 -101.3314 C   0  0  0  0  0  0  0  0  0  0  0  0
   45.1828  -31.2260 -102.1004 C   0  0  0  0  0  0  0  0  0  0  0  0
   43.8083  -30.8664 -101.9716 C   0  0  0  0  0  0  0  0  0  0  0  0
   42.8286  -31.5267 -102.6850 N   0  0  0  0  0  0  0  0  0  0  0  0
   45.8511  -32.1462 -102.8057 N   0  0  0  0  0  0  0  0  0  0  0  0
   47.1188  -32.0450 -102.5374 C   0  0  0  0  0  0  0  0  0  0  0  0
   47.3681  -31.0329 -101.6400 N   0  0  0  0  0  0  0  0  0  0  0  0
  2  1  1  1  0  0  0
  2  3  1  0  0  0  0
  2  5  1  0  0  0  0
  3  4  1  0  0  0  0
  3 17  1  0  0  0  0
  5  6  1  0  0  0  0
  7  6  1  6  0  0  0
  7  8  1  0  0  0  0
  7  9  1  0  0  0  0
 10  9  1  6  0  0  0
 10 11  1  0  0  0  0
 10 12  1  0  0  0  0
 11 16  1  0  0  0  0
 12 13  1  1  0  0  0
 12 14  1  0  0  0  0
 14 15  1  1  0  0  0
 14 16  1  0  0  0  0
 16 27  1  6  0  0  0
 18 19  2  0  0  0  0
 18 23  1  0  0  0  0
 19 20  1  0  0  0  0
 20 21  2  0  0  0  0
 21 22  1  0  0  0  0
 21 27  1  0  0  0  0
 22 23  2  0  0  0  0
 22 25  1  0  0  0  0
 23 24  1  0  0  0  0
 25 26  2  0  0  0  0
 26 27  1  0  0  0  0
M  END
>  <CHROM.1>
-155.63160883,42.22490070,87.88374880,175.90764781,-164.81957481,53.24834992
-64.28689232,47.47828436,-29.14008454,-102.73115981,0.31449312,0.03699323
-0.51827199

>  <Name>
ligand

>  <RI>
0

>  <Rbt.Current_Directory>
/home/itssahil/PROJECTS/Mol_Feturizer/Test_systems_manuscript/rnas/4l81

>  <Rbt.Executable>
rbdock ($Id: //depot/dev/client3/rdock/2013.1/src/exe/rbdock.cxx#4 $)

>  <Rbt.Library>
libRbt.so (2013.1, Build901 2013/11/27)

>  <Rbt.Parameter_File>
/export/apps/rDock/src/rDock_2013.1_src/data/scripts/dock_solv.prm

>  <Rbt.Receptor>
prm/pocket_docking_2.prm

>  <SCORE>
-11.9846

>  <SCORE.INTER>
-10.9283

>  <SCORE.INTER.CONST>
1

>  <SCORE.INTER.POLAR>
0

>  <SCORE.INTER.ROT>
7

>  <SCORE.INTER.SOLV>
17.304

>  <SCORE.INTER.VDW>
-21.3202

>  <SCORE.INTER.norm>
-0.404752

>  <SCORE.INTRA>
-1.09271

>  <SCORE.INTRA.DIHEDRAL>
0.233602

>  <SCORE.INTRA.DIHEDRAL.0>
8.34559

>  <SCORE.INTRA.POLAR>
0

>  <SCORE.INTRA.POLAR.0>
0

>  <SCORE.INTRA.REPUL>
0

>  <SCORE.INTRA.REPUL.0>
0

>  <SCORE.INTRA.SOLV>
0.10954

>  <SCORE.INTRA.SOLV.lig_0>
-48.829

>  <SCORE.INTRA.VDW>
-1.26428

>  <SCORE.INTRA.VDW.0>
-1.77092

>  <SCORE.INTRA.norm>
-0.0404707

>  <SCORE.RESTR>
0.0363772

>  <SCORE.RESTR.CAVITY>
0.0363772

>  <SCORE.RESTR.norm>
0.0013473

>  <SCORE.SYSTEM>
0

>  <SCORE.SYSTEM.CONST>
0

>  <SCORE.SYSTEM.DIHEDRAL>
0

>  <SCORE.SYSTEM.SOLV>
0

>  <SCORE.SYSTEM.norm>
0

>  <SCORE.heavy>
27

>  <SCORE.norm>
-0.443876

>  <RMSD>
2.092

$$$$
ligand
 OpenBabel02271912153D
libRbt.so/2013.1/901 2013/11/27
 27 29  0  0  0  0  0  0  0  0999 V2000
   45.2837  -25.7652 -104.6364 N   0  0  0  0  0  0  0  0  0  0  0  0
   46.0660  -26.9160 -104.1714 C   0  0  2  0  0  0  0  0  0  0  0  0
   45.2041  -27.7865 -103.2814 C   0  0  0  0  0  0  0  0  0  0  0  0
   44.9380  -27.4288 -102.1439 O   0  0  0  0  0  0  0  0  0  0  0  0
   47.3024  -26.4684 -103.3799 C   0  0  0  0  0  0  0  0  0  0  0  0
   48.2458  -27.6389 -103.1419 C   0  0  0  0  0  0  0  0  0  0  0  0
   49.9939  -27.1292 -102.9234 S   0  0  2  0  0  0  0  0  0  0  0  0
   50.3781  -26.2126 -104.4504 C   0  0  0  0  0  0  0  0  0  0  0  0
   50.6978  -28.7167 -103.3628 C   0  0  0  0  0  0  0  0  0  0  0  0
   50.9827  -29.6017 -102.1785 C   0  0  1  0  0  0  0  0  0  0  0  0
   49.8274  -29.5795 -101.3230 O   0  0  0  0  0  0  0  0  0  0  0  0
   51.0312  -30.9471 -102.7829 C   0  0  1  0  0  0  0  0  0  0  0  0
   52.3881  -31.3142 -103.0267 O   0  0  0  0  0  0  0  0  0  0  0  0
   50.4550  -31.8079 -101.7016 C   0  0  1  0  0  0  0  0  0  0  0  0
   51.4906  -32.2281 -100.7894 O   0  0  0  0  0  0  0  0  0  0  0  0
   49.4178  -30.9197 -100.9511 C   0  0  2  0  0  0  0  0  0  0  0  0
   44.7424  -28.8326 -103.7025 O   0  0  0  0  0  0  0  0  0  0  0  0
   44.3320  -29.5116 -100.3596 N   0  0  0  0  0  0  0  0  0  0  0  0
   45.3946  -29.1042  -99.6228 C   0  0  0  0  0  0  0  0  0  0  0  0
   46.6509  -29.5075  -99.9055 N   0  0  0  0  0  0  0  0  0  0  0  0
   46.8797  -30.4030 -100.8799 C   0  0  0  0  0  0  0  0  0  0  0  0
   45.7722  -30.8952 -101.6632 C   0  0  0  0  0  0  0  0  0  0  0  0
   44.4674  -30.4003 -101.3666 C   0  0  0  0  0  0  0  0  0  0  0  0
   43.3652  -30.8212 -102.0827 N   0  0  0  0  0  0  0  0  0  0  0  0
   46.2672  -31.7668 -102.5497 N   0  0  0  0  0  0  0  0  0  0  0  0
   47.5524  -31.8590 -102.3786 C   0  0  0  0  0  0  0  0  0  0  0  0
   47.9897  -31.0355 -101.3675 N   0  0  0  0  0  0  0  0  0  0  0  0
  2  1  1  1  0  0  0
  2  3  1  0  0  0  0
  2  5  1  0  0  0  0
  3  4  1  0  0  0  0
  3 17  1  0  0  0  0
  5  6  1  0  0  0  0
  7  6  1  6  0  0  0
  7  8  1  0  0  0  0
  7  9  1  0  0  0  0
 10  9  1  6  0  0  0
 10 11  1  0  0  0  0
 10 12  1  0  0  0  0
 11 16  1  0  0  0  0
 12 13  1  1  0  0  0
 12 14  1  0  0  0  0
 14 15  1  1  0  0  0
 14 16  1  0  0  0  0
 16 27  1  6  0  0  0
 18 19  2  0  0  0  0
 18 23  1  0  0  0  0
 19 20  1  0  0  0  0
 20 21  2  0  0  0  0
 21 22  1  0  0  0  0
 21 27  1  0  0  0  0
 22 23  2  0  0  0  0
 22 25  1  0  0  0  0
 23 24  1  0  0  0  0
 25 26  2  0  0  0  0
 26 27  1  0  0  0  0
M  END
>  <CHROM.1>
-74.44462762,-168.75257429,153.72384963,-57.21970881,-94.45869502,46.57772217
-67.69996303,47.84207855,-29.29831947,-102.28392395,-2.91867079,-0.11811133
2.64061834

>  <Name>
ligand

>  <RI>
0

>  <Rbt.Current_Directory>
/home/itssahil/PROJECTS/Mol_Feturizer/Test_systems_manuscript/rnas/4l81

>  <Rbt.Executable>
rbdock ($Id: //depot/dev/client3/rdock/2013.1/src/exe/rbdock.cxx#4 $)

>  <Rbt.Library>
libRbt.so (2013.1, Build901 2013/11/27)

>  <Rbt.Parameter_File>
/export/apps/rDock/src/rDock_2013.1_src/data/scripts/dock_solv.prm

>  <Rbt.Receptor>
prm/pocket_docking_3.prm

>  <SCORE>
-17.7694

>  <SCORE.INTER>
-15.5567

>  <SCORE.INTER.CONST>
1

>  <SCORE.INTER.POLAR>
0

>  <SCORE.INTER.ROT>
7

>  <SCORE.INTER.SOLV>
17.9632

>  <SCORE.INTER.VDW>
-24.6255

>  <SCORE.INTER.norm>
-0.576175

>  <SCORE.INTRA>
-2.2127

>  <SCORE.INTRA.DIHEDRAL>
0.446914

>  <SCORE.INTRA.DIHEDRAL.0>
8.34559

>  <SCORE.INTRA.POLAR>
0

>  <SCORE.INTRA.POLAR.0>
0

>  <SCORE.INTRA.REPUL>
0

>  <SCORE.INTRA.REPUL.0>
0

>  <SCORE.INTRA.SOLV>
0.238145

>  <SCORE.INTRA.SOLV.lig_0>
-48.829

>  <SCORE.INTRA.VDW>
-2.55523

>  <SCORE.INTRA.VDW.0>
-1.77092

>  <SCORE.INTRA.norm>
-0.0819518

>  <SCORE.RESTR>
0

>  <SCORE.RESTR.CAVITY>
0

>  <SCORE.RESTR.norm>
0

>  <SCORE.SYSTEM>
0

>  <SCORE.SYSTEM.CONST>
0

>  <SCORE.SYSTEM.DIHEDRAL>
0

>  <SCORE.SYSTEM.SOLV>
0

>  <SCORE.SYSTEM.norm>
0

>  <SCORE.heavy>
27

>  <SCORE.norm>
-0.658127

>  <RMSD>
2.097

$$$$
ligand
 OpenBabel02271912153D
libRbt.so/2013.1/901 2013/11/27
 27 29  0  0  0  0  0  0  0  0999 V2000
   45.7894  -28.9333 -105.0109 N   0  0  0  0  0  0  0  0  0  0  0  0
   46.3958  -28.4817 -103.7535 C   0  0  2  0  0  0  0  0  0  0  0  0
   45.5156  -27.4258 -103.1186 C   0  0  0  0  0  0  0  0  0  0  0  0
   45.1575  -27.5420 -101.9563 O   0  0  0  0  0  0  0  0  0  0  0  0
   47.7918  -27.8885 -103.9876 C   0  0  0  0  0  0  0  0  0  0  0  0
   48.4394  -27.4915 -102.6686 C   0  0  0  0  0  0  0  0  0  0  0  0
   50.2153  -27.0638 -102.8319 S   0  0  2  0  0  0  0  0  0  0  0  0
   50.3189  -26.2281 -104.4475 C   0  0  0  0  0  0  0  0  0  0  0  0
   50.7473  -28.7012 -103.3267 C   0  0  0  0  0  0  0  0  0  0  0  0
   51.0511  -29.6150 -102.1694 C   0  0  1  0  0  0  0  0  0  0  0  0
   49.9071  -29.6196 -101.2987 O   0  0  0  0  0  0  0  0  0  0  0  0
   51.0968  -30.9443 -102.8087 C   0  0  1  0  0  0  0  0  0  0  0  0
   52.4518  -31.2994 -103.0795 O   0  0  0  0  0  0  0  0  0  0  0  0
   50.5382  -31.8349 -101.7425 C   0  0  1  0  0  0  0  0  0  0  0  0
   51.5873  -32.2740 -100.8549 O   0  0  0  0  0  0  0  0  0  0  0  0
   49.5075  -30.9705 -100.9559 C   0  0  2  0  0  0  0  0  0  0  0  0
   45.1853  -26.4372 -103.7498 O   0  0  0  0  0  0  0  0  0  0  0  0
   44.4219  -29.6166 -100.2478 N   0  0  0  0  0  0  0  0  0  0  0  0
   45.4920  -29.2274  -99.5122 C   0  0  0  0  0  0  0  0  0  0  0  0
   46.7468  -29.6127  -99.8255 N   0  0  0  0  0  0  0  0  0  0  0  0
   46.9675  -30.4732 -100.8327 C   0  0  0  0  0  0  0  0  0  0  0  0
   45.8523  -30.9459 -101.6170 C   0  0  0  0  0  0  0  0  0  0  0  0
   44.5488  -30.4699 -101.2861 C   0  0  0  0  0  0  0  0  0  0  0  0
   43.4394  -30.8736 -102.0009 N   0  0  0  0  0  0  0  0  0  0  0  0
   46.3403  -31.7839 -102.5392 N   0  0  0  0  0  0  0  0  0  0  0  0
   47.6283  -31.8733 -102.3888 C   0  0  0  0  0  0  0  0  0  0  0  0
   48.0745  -31.0815 -101.3565 N   0  0  0  0  0  0  0  0  0  0  0  0
  2  1  1  6  0  0  0
  2  3  1  0  0  0  0
  2  5  1  0  0  0  0
  3  4  1  0  0  0  0
  3 17  1  0  0  0  0
  5  6  1  0  0  0  0
  7  6  1  6  0  0  0
  7  8  1  0  0  0  0
  7  9  1  0  0  0  0
 10  9  1  6  0  0  0
 10 11  1  0  0  0  0
 10 12  1  0  0  0  0
 11 16  1  0  0  0  0
 12 13  1  1  0  0  0
 12 14  1  0  0  0  0
 14 15  1  1  0  0  0
 14 16  1  0  0  0  0
 16 27  1  6  0  0  0
 18 19  2  0  0  0  0
 18 23  1  0  0  0  0
 19 20  1  0  0  0  0
 20 21  2  0  0  0  0
 21 22  1  0  0  0  0
 21 27  1  0  0  0  0
 22 23  2  0  0  0  0
 22 25  1  0  0  0  0
 23 24  1  0  0  0  0
 25 26  2  0  0  0  0
 26 27  1  0  0  0  0
M  END
>  <CHROM.1>
127.59249350,-177.01625391,169.43054710,36.12252236,-86.57242264,53.00911553
-68.18771750,47.99824365,-29.42760966,-102.25548076,-3.04654600,-0.12972182
2.62837671

>  <Name>
ligand

>  <RI>
0

>  <Rbt.Current_Directory>
/home/itssahil/PROJECTS/Mol_Feturizer/Test_systems_manuscript/rnas/4l81

>  <Rbt.Executable>
rbdock ($Id: //depot/dev/client3/rdock/2013.1/src/exe/rbdock.cxx#4 $)

>  <Rbt.Library>
libRbt.so (2013.1, Build901 2013/11/27)

>  <Rbt.Parameter_File>
/export/apps/rDock/src/rDock_2013.1_src/data/scripts/dock_solv.prm

>  <Rbt.Receptor>
prm/pocket_docking_3.prm

>  <SCORE>
-19.8684

>  <SCORE.INTER>
-16.3976

>  <SCORE.INTER.CONST>
1

>  <SCORE.INTER.POLAR>
0

>  <SCORE.INTER.ROT>
7

>  <SCORE.INTER.SOLV>
14.1892

>  <SCORE.INTER.VDW>
-23.9281

>  <SCORE.INTER.norm>
-0.607318

>  <SCORE.INTRA>
-3.47079

>  <SCORE.INTRA.DIHEDRAL>
-2.92251

>  <SCORE.INTRA.DIHEDRAL.0>
8.34559

>  <SCORE.INTRA.POLAR>
0

>  <SCORE.INTRA.POLAR.0>
0

>  <SCORE.INTRA.REPUL>
0

>  <SCORE.INTRA.REPUL.0>
0

>  <SCORE.INTRA.SOLV>
-0.0539319

>  <SCORE.INTRA.SOLV.lig_0>
-48.829

>  <SCORE.INTRA.VDW>
-1.98257

>  <SCORE.INTRA.VDW.0>
-1.77092

>  <SCORE.INTRA.norm>
-0.128548

>  <SCORE.RESTR>
0

>  <SCORE.RESTR.CAVITY>
0

>  <SCORE.RESTR.norm>
0

>  <SCORE.SYSTEM>
0

>  <SCORE.SYSTEM.CONST>
0

>  <SCORE.SYSTEM.DIHEDRAL>
0

>  <SCORE.SYSTEM.SOLV>
0

>  <SCORE.SYSTEM.norm>
0

>  <SCORE.heavy>
27

>  <SCORE.norm>
-0.735866

>  <RMSD>
2.185

$$$$
ligand
 OpenBabel02271912153D
libRbt.so/2013.1/901 2013/11/27
 27 29  0  0  0  0  0  0  0  0999 V2000
   48.8551  -25.6369 -106.7930 N   0  0  0  0  0  0  0  0  0  0  0  0
   48.0946  -26.8651 -107.0496 C   0  0  2  0  0  0  0  0  0  0  0  0
   46.7312  -26.5088 -107.6035 C   0  0  0  0  0  0  0  0  0  0  0  0
   46.6307  -25.7085 -108.5211 O   0  0  0  0  0  0  0  0  0  0  0  0
   47.9095  -27.6864 -105.7664 C   0  0  0  0  0  0  0  0  0  0  0  0
   49.2562  -28.0456 -105.1546 C   0  0  0  0  0  0  0  0  0  0  0  0
   49.1132  -28.9920 -103.5903 S   0  0  2  0  0  0  0  0  0  0  0  0
   48.4605  -27.7768 -102.4000 C   0  0  0  0  0  0  0  0  0  0  0  0
   50.8509  -28.8971 -103.1660 C   0  0  0  0  0  0  0  0  0  0  0  0
   51.2358  -29.7572 -101.9917 C   0  0  1  0  0  0  0  0  0  0  0  0
   50.3037  -29.4956 -100.9289 O   0  0  0  0  0  0  0  0  0  0  0  0
   50.9453  -31.1197 -102.4784 C   0  0  1  0  0  0  0  0  0  0  0  0
   52.1464  -31.7245 -102.9549 O   0  0  0  0  0  0  0  0  0  0  0  0
   50.4813  -31.8144 -101.2357 C   0  0  1  0  0  0  0  0  0  0  0  0
   51.6064  -32.3587 -100.5151 O   0  0  0  0  0  0  0  0  0  0  0  0
   49.7767  -30.7259 -100.3715 C   0  0  2  0  0  0  0  0  0  0  0  0
   45.7278  -27.0409 -107.1619 O   0  0  0  0  0  0  0  0  0  0  0  0
   45.2761  -31.8188 -102.9693 N   0  0  0  0  0  0  0  0  0  0  0  0
   46.5405  -32.1514 -103.3281 C   0  0  0  0  0  0  0  0  0  0  0  0
   47.6018  -31.8475 -102.5521 N   0  0  0  0  0  0  0  0  0  0  0  0
   47.4462  -31.1220 -101.4327 C   0  0  0  0  0  0  0  0  0  0  0  0
   46.1216  -30.7109 -101.0340 C   0  0  0  0  0  0  0  0  0  0  0  0
   45.0219  -31.1011 -101.8547 C   0  0  0  0  0  0  0  0  0  0  0  0
   43.7279  -30.7504 -101.5271 N   0  0  0  0  0  0  0  0  0  0  0  0
   46.2465  -30.0062  -99.9033 N   0  0  0  0  0  0  0  0  0  0  0  0
   47.5046  -29.9412  -99.5831 C   0  0  0  0  0  0  0  0  0  0  0  0
   48.2929  -30.6173 -100.4849 N   0  0  0  0  0  0  0  0  0  0  0  0
  2  1  1  1  0  0  0
  2  3  1  0  0  0  0
  2  5  1  0  0  0  0
  3  4  1  0  0  0  0
  3 17  1  0  0  0  0
  5  6  1  0  0  0  0
  7  6  1  6  0  0  0
  7  8  1  0  0  0  0
  7  9  1  0  0  0  0
 10  9  1  6  0  0  0
 10 11  1  0  0  0  0
 10 12  1  0  0  0  0
 11 16  1  0  0  0  0
 12 13  1  1  0  0  0
 12 14  1  0  0  0  0
 14 15  1  1  0  0  0
 14 16  1  0  0  0  0
 16 27  1  6  0  0  0
 18 19  2  0  0  0  0
 18 23  1  0  0  0  0
 19 20  1  0  0  0  0
 20 21  2  0  0  0  0
 21 22  1  0  0  0  0
 21 27  1  0  0  0  0
 22 23  2  0  0  0  0
 22 25  1  0  0  0  0
 23 24  1  0  0  0  0
 25 26  2  0  0  0  0
 26 27  1  0  0  0  0
M  END
>  <CHROM.1>
48.28702162,-58.03690788,178.48275994,-69.84103762,-171.23130016,-49.34119602
97.64563353,48.31502197,-29.56906917,-103.12133994,-1.80605070,0.02896593
2.22394318

>  <Name>
ligand

>  <RI>
0

>  <Rbt.Current_Directory>
/home/itssahil/PROJECTS/Mol_Feturizer/Test_systems_manuscript/rnas/4l81

>  <Rbt.Executable>
rbdock ($Id: //depot/dev/client3/rdock/2013.1/src/exe/rbdock.cxx#4 $)

>  <Rbt.Library>
libRbt.so (2013.1, Build901 2013/11/27)

>  <Rbt.Parameter_File>
/export/apps/rDock/src/rDock_2013.1_src/data/scripts/dock_solv.prm

>  <Rbt.Receptor>
prm/pocket_docking_4.prm

>  <SCORE>
-15.6022

>  <SCORE.INTER>
-12.9395

>  <SCORE.INTER.CONST>
1

>  <SCORE.INTER.POLAR>
0

>  <SCORE.INTER.ROT>
7

>  <SCORE.INTER.SOLV>
15.8436

>  <SCORE.INTER.VDW>
-22.1742

>  <SCORE.INTER.norm>
-0.47924

>  <SCORE.INTRA>
-2.66275

>  <SCORE.INTRA.DIHEDRAL>
-3.94747

>  <SCORE.INTRA.DIHEDRAL.0>
8.34559

>  <SCORE.INTRA.POLAR>
0

>  <SCORE.INTRA.POLAR.0>
0

>  <SCORE.INTRA.REPUL>
0

>  <SCORE.INTRA.REPUL.0>
0

>  <SCORE.INTRA.SOLV>
-0.257729

>  <SCORE.INTRA.SOLV.lig_0>
-48.829

>  <SCORE.INTRA.VDW>
-0.560157

>  <SCORE.INTRA.VDW.0>
-1.77092

>  <SCORE.INTRA.norm>
-0.0986205

>  <SCORE.RESTR>
0

>  <SCORE.RESTR.CAVITY>
0

>  <SCORE.RESTR.norm>
0

>  <SCORE.SYSTEM>
0

>  <SCORE.SYSTEM.CONST>
0

>  <SCORE.SYSTEM.DIHEDRAL>
0

>  <SCORE.SYSTEM.SOLV>
0

>  <SCORE.SYSTEM.norm>
0

>  <SCORE.heavy>
27

>  <SCORE.norm>
-0.577861

>  <RMSD>
2.223

$$$$
ligand
 OpenBabel02271912153D
libRbt.so/2013.1/901 2013/11/27
 27 29  0  0  0  0  0  0  0  0999 V2000
   46.8686  -27.4386 -106.7556 N   0  0  0  0  0  0  0  0  0  0  0  0
   47.8858  -26.3844 -106.6733 C   0  0  2  0  0  0  0  0  0  0  0  0
   48.7157  -26.3832 -107.9397 C   0  0  0  0  0  0  0  0  0  0  0  0
   48.9729  -27.4343 -108.5069 O   0  0  0  0  0  0  0  0  0  0  0  0
   48.8157  -26.5977 -105.4711 C   0  0  0  0  0  0  0  0  0  0  0  0
   48.0499  -26.4585 -104.1630 C   0  0  0  0  0  0  0  0  0  0  0  0
   49.1126  -26.6304 -102.6783 S   0  0  2  0  0  0  0  0  0  0  0  0
   50.6410  -25.7462 -103.1275 C   0  0  0  0  0  0  0  0  0  0  0  0
   49.6414  -28.3050 -103.0316 C   0  0  0  0  0  0  0  0  0  0  0  0
   50.1265  -29.0556 -101.8199 C   0  0  1  0  0  0  0  0  0  0  0  0
   49.1303  -28.9245 -100.7916 O   0  0  0  0  0  0  0  0  0  0  0  0
   50.0830  -30.4605 -102.2693 C   0  0  1  0  0  0  0  0  0  0  0  0
   51.3827  -30.8684 -102.6933 O   0  0  0  0  0  0  0  0  0  0  0  0
   49.7018  -31.1883 -101.0175 C   0  0  1  0  0  0  0  0  0  0  0  0
   50.8783  -31.5162 -100.2496 O   0  0  0  0  0  0  0  0  0  0  0  0
   48.7982  -30.2098 -100.2088 C   0  0  2  0  0  0  0  0  0  0  0  0
   49.1051  -25.3335 -108.4209 O   0  0  0  0  0  0  0  0  0  0  0  0
   44.6173  -31.8115 -103.0640 N   0  0  0  0  0  0  0  0  0  0  0  0
   45.9274  -31.8765 -103.4067 C   0  0  0  0  0  0  0  0  0  0  0  0
   46.9019  -31.4704 -102.5663 N   0  0  0  0  0  0  0  0  0  0  0  0
   46.5974  -30.9019 -101.3884 C   0  0  0  0  0  0  0  0  0  0  0  0
   45.2132  -30.7748 -101.0006 C   0  0  0  0  0  0  0  0  0  0  0  0
   44.2172  -31.2677 -101.8952 C   0  0  0  0  0  0  0  0  0  0  0  0
   42.8753  -31.1869 -101.5828 N   0  0  0  0  0  0  0  0  0  0  0  0
   45.1880  -30.1782  -99.8030 N   0  0  0  0  0  0  0  0  0  0  0  0
   46.4076  -29.9245  -99.4320 C   0  0  0  0  0  0  0  0  0  0  0  0
   47.3215  -30.3547 -100.3655 N   0  0  0  0  0  0  0  0  0  0  0  0
  2  1  1  6  0  0  0
  2  3  1  0  0  0  0
  2  5  1  0  0  0  0
  3  4  1  0  0  0  0
  3 17  1  0  0  0  0
  5  6  1  0  0  0  0
  7  6  1  6  0  0  0
  7  8  1  0  0  0  0
  7  9  1  0  0  0  0
 10  9  1  6  0  0  0
 10 11  1  0  0  0  0
 10 12  1  0  0  0  0
 11 16  1  0  0  0  0
 12 13  1  1  0  0  0
 12 14  1  0  0  0  0
 14 15  1  1  0  0  0
 14 16  1  0  0  0  0
 16 27  1  6  0  0  0
 18 19  2  0  0  0  0
 18 23  1  0  0  0  0
 19 20  1  0  0  0  0
 20 21  2  0  0  0  0
 21 22  1  0  0  0  0
 21 27  1  0  0  0  0
 22 23  2  0  0  0  0
 22 25  1  0  0  0  0
 23 24  1  0  0  0  0
 25 26  2  0  0  0  0
 26 27  1  0  0  0  0
M  END
>  <CHROM.1>
-35.17038766,-65.25127194,-177.55081615,39.79197655,-158.08394205,50.48726628
90.13926945,48.04471929,-29.03846194,-103.01288783,1.24135069,-0.32681923
-0.99768028

>  <Name>
ligand

>  <RI>
0

>  <Rbt.Current_Directory>
/home/itssahil/PROJECTS/Mol_Feturizer/Test_systems_manuscript/rnas/4l81

>  <Rbt.Executable>
rbdock ($Id: //depot/dev/client3/rdock/2013.1/src/exe/rbdock.cxx#4 $)

>  <Rbt.Library>
libRbt.so (2013.1, Build901 2013/11/27)

>  <Rbt.Parameter_File>
/export/apps/rDock/src/rDock_2013.1_src/data/scripts/dock_solv.prm

>  <Rbt.Receptor>
prm/pocket_docking_4.prm

>  <SCORE>
-16.2384

>  <SCORE.INTER>
-15.065

>  <SCORE.INTER.CONST>
1

>  <SCORE.INTER.POLAR>
0

>  <SCORE.INTER.ROT>
7

>  <SCORE.INTER.SOLV>
16.9356

>  <SCORE.INTER.VDW>
-23.9552

>  <SCORE.INTER.norm>
-0.557964

>  <SCORE.INTRA>
-1.17332

>  <SCORE.INTRA.DIHEDRAL>
-2.14192

>  <SCORE.INTRA.DIHEDRAL.0>
8.34559

>  <SCORE.INTRA.POLAR>
0

>  <SCORE.INTRA.POLAR.0>
0

>  <SCORE.INTRA.REPUL>
0

>  <SCORE.INTRA.REPUL.0>
0

>  <SCORE.INTRA.SOLV>
-0.628434

>  <SCORE.INTRA.SOLV.lig_0>
-48.829

>  <SCORE.INTRA.VDW>
0.211853

>  <SCORE.INTRA.VDW.0>
-1.77092

>  <SCORE.INTRA.norm>
-0.0434564

>  <SCORE.RESTR>
0

>  <SCORE.RESTR.CAVITY>
0

>  <SCORE.RESTR.norm>
0

>  <SCORE.SYSTEM>
0

>  <SCORE.SYSTEM.CONST>
0

>  <SCORE.SYSTEM.DIHEDRAL>
0

>  <SCORE.SYSTEM.SOLV>
0

>  <SCORE.SYSTEM.norm>
0

>  <SCORE.heavy>
27

>  <SCORE.norm>
-0.60142

>  <RMSD>
2.315

$$$$
ligand
 OpenBabel02271912153D
libRbt.so/2013.1/901 2013/11/27
 27 29  0  0  0  0  0  0  0  0999 V2000
   47.0102  -28.1532 -106.6016 N   0  0  0  0  0  0  0  0  0  0  0  0
   47.0097  -27.3066 -105.4032 C   0  0  2  0  0  0  0  0  0  0  0  0
   45.8781  -26.3046 -105.4929 C   0  0  0  0  0  0  0  0  0  0  0  0
   45.3496  -25.8819 -104.4757 O   0  0  0  0  0  0  0  0  0  0  0  0
   48.3347  -26.5464 -105.2554 C   0  0  0  0  0  0  0  0  0  0  0  0
   49.4817  -27.5071 -104.9753 C   0  0  0  0  0  0  0  0  0  0  0  0
   49.2111  -28.5463 -103.4886 S   0  0  2  0  0  0  0  0  0  0  0  0
   48.8001  -27.3449 -102.1820 C   0  0  0  0  0  0  0  0  0  0  0  0
   50.9478  -28.7822 -103.1186 C   0  0  0  0  0  0  0  0  0  0  0  0
   51.2064  -29.8258 -102.0646 C   0  0  1  0  0  0  0  0  0  0  0  0
   50.1078  -29.7984 -101.1376 O   0  0  0  0  0  0  0  0  0  0  0  0
   51.0859  -31.0875 -102.8206 C   0  0  1  0  0  0  0  0  0  0  0  0
   52.3835  -31.5482 -103.1939 O   0  0  0  0  0  0  0  0  0  0  0  0
   50.4859  -32.0141 -101.8089 C   0  0  1  0  0  0  0  0  0  0  0  0
   51.5222  -32.6360 -101.0211 O   0  0  0  0  0  0  0  0  0  0  0  0
   49.5861  -31.1292 -100.8948 C   0  0  2  0  0  0  0  0  0  0  0  0
   45.5081  -25.8874 -106.5764 O   0  0  0  0  0  0  0  0  0  0  0  0
   44.7351  -29.2100  -99.9037 N   0  0  0  0  0  0  0  0  0  0  0  0
   45.8769  -28.9705  -99.2131 C   0  0  0  0  0  0  0  0  0  0  0  0
   47.0613  -29.4908  -99.5973 N   0  0  0  0  0  0  0  0  0  0  0  0
   47.1314  -30.3415 -100.6340 C   0  0  0  0  0  0  0  0  0  0  0  0
   45.9328  -30.6573 -101.3730 C   0  0  0  0  0  0  0  0  0  0  0  0
   44.7116  -30.0416 -100.9667 C   0  0  0  0  0  0  0  0  0  0  0  0
   43.5302  -30.2916 -101.6349 N   0  0  0  0  0  0  0  0  0  0  0  0
   46.2747  -31.5194 -102.3376 N   0  0  0  0  0  0  0  0  0  0  0  0
   47.5486  -31.7635 -102.2535 C   0  0  0  0  0  0  0  0  0  0  0  0
   48.1330  -31.0598 -101.2263 N   0  0  0  0  0  0  0  0  0  0  0  0
  2  1  1  6  0  0  0
  2  3  1  0  0  0  0
  2  5  1  0  0  0  0
  3  4  1  0  0  0  0
  3 17  1  0  0  0  0
  5  6  1  0  0  0  0
  7  6  1  6  0  0  0
  7  8  1  0  0  0  0
  7  9  1  0  0  0  0
 10  9  1  6  0  0  0
 10 11  1  0  0  0  0
 10 12  1  0  0  0  0
 11 16  1  0  0  0  0
 12 13  1  1  0  0  0
 12 14  1  0  0  0  0
 14 15  1  1  0  0  0
 14 16  1  0  0  0  0
 16 27  1  6  0  0  0
 18 19  2  0  0  0  0
 18 23  1  0  0  0  0
 19 20  1  0  0  0  0
 20 21  2  0  0  0  0
 21 22  1  0  0  0  0
 21 27  1  0  0  0  0
 22 23  2  0  0  0  0
 22 25  1  0  0  0  0
 23 24  1  0  0  0  0
 25 26  2  0  0  0  0
 26 27  1  0  0  0  0
M  END
>  <CHROM.1>
150.90524835,-66.75065056,-56.74441068,-51.93716775,-169.27755606,-32.64040185
-64.35331260,48.07388548,-29.32329819,-102.66696540,-2.25178146,-0.26915965
2.26659748

>  <Name>
ligand

>  <RI>
0

>  <Rbt.Current_Directory>
/home/itssahil/PROJECTS/Mol_Feturizer/Test_systems_manuscript/rnas/4l81

>  <Rbt.Executable>
rbdock ($Id: //depot/dev/client3/rdock/2013.1/src/exe/rbdock.cxx#4 $)

>  <Rbt.Library>
libRbt.so (2013.1, Build901 2013/11/27)

>  <Rbt.Parameter_File>
/export/apps/rDock/src/rDock_2013.1_src/data/scripts/dock_solv.prm

>  <Rbt.Receptor>
prm/pocket_docking_3.prm

>  <SCORE>
-15.156

>  <SCORE.INTER>
-13.902

>  <SCORE.INTER.CONST>
1

>  <SCORE.INTER.POLAR>
0

>  <SCORE.INTER.ROT>
7

>  <SCORE.INTER.SOLV>
15.1618

>  <SCORE.INTER.VDW>
-22.5886

>  <SCORE.INTER.norm>
-0.51489

>  <SCORE.INTRA>
-1.2555

>  <SCORE.INTRA.DIHEDRAL>
-0.962587

>  <SCORE.INTRA.DIHEDRAL.0>
8.34559

>  <SCORE.INTRA.POLAR>
0

>  <SCORE.INTRA.POLAR.0>
0

>  <SCORE.INTRA.REPUL>
0

>  <SCORE.INTRA.REPUL.0>
0

>  <SCORE.INTRA.SOLV>
0.249752

>  <SCORE.INTRA.SOLV.lig_0>
-48.829

>  <SCORE.INTRA.VDW>
-0.899081

>  <SCORE.INTRA.VDW.0>
-1.77092

>  <SCORE.INTRA.norm>
-0.0465

>  <SCORE.RESTR>
0.00157471

>  <SCORE.RESTR.CAVITY>
0.00157471

>  <SCORE.RESTR.norm>
5.83225e-05

>  <SCORE.SYSTEM>
0

>  <SCORE.SYSTEM.CONST>
0

>  <SCORE.SYSTEM.DIHEDRAL>
0

>  <SCORE.SYSTEM.SOLV>
0

>  <SCORE.SYSTEM.norm>
0

>  <SCORE.heavy>
27

>  <SCORE.norm>
-0.561332

>  <RMSD>
2.415

$$$$
ligand
 OpenBabel02271912153D
libRbt.so/2013.1/901 2013/11/27
 27 29  0  0  0  0  0  0  0  0999 V2000
   46.9411  -25.5624 -106.8833 N   0  0  0  0  0  0  0  0  0  0  0  0
   47.9126  -24.7522 -106.1399 C   0  0  2  0  0  0  0  0  0  0  0  0
   49.3089  -25.0479 -106.6454 C   0  0  0  0  0  0  0  0  0  0  0  0
   50.2792  -24.5426 -106.1014 O   0  0  0  0  0  0  0  0  0  0  0  0
   47.8558  -25.0520 -104.6358 C   0  0  0  0  0  0  0  0  0  0  0  0
   48.2356  -26.4995 -104.3577 C   0  0  0  0  0  0  0  0  0  0  0  0
   49.1207  -26.7247 -102.7673 S   0  0  2  0  0  0  0  0  0  0  0  0
   50.7137  -25.8796 -103.0278 C   0  0  0  0  0  0  0  0  0  0  0  0
   49.6390  -28.4088 -103.0896 C   0  0  0  0  0  0  0  0  0  0  0  0
   50.1278  -29.1370 -101.8658 C   0  0  1  0  0  0  0  0  0  0  0  0
   49.1481  -28.9631 -100.8281 O   0  0  0  0  0  0  0  0  0  0  0  0
   50.0546  -30.5518 -102.2790 C   0  0  1  0  0  0  0  0  0  0  0  0
   51.3413  -30.9924 -102.7097 O   0  0  0  0  0  0  0  0  0  0  0  0
   49.6783  -31.2414 -101.0042 C   0  0  1  0  0  0  0  0  0  0  0  0
   50.8595  -31.5700 -100.2439 O   0  0  0  0  0  0  0  0  0  0  0  0
   48.8025  -30.2275 -100.2086 C   0  0  2  0  0  0  0  0  0  0  0  0
   49.4782  -25.8165 -107.5758 O   0  0  0  0  0  0  0  0  0  0  0  0
   44.5532  -31.7414 -103.0104 N   0  0  0  0  0  0  0  0  0  0  0  0
   45.8564  -31.8202 -103.3757 C   0  0  0  0  0  0  0  0  0  0  0  0
   46.8503  -31.4364 -102.5475 N   0  0  0  0  0  0  0  0  0  0  0  0
   46.5731  -30.8770 -101.3585 C   0  0  0  0  0  0  0  0  0  0  0  0
   45.1974  -30.7357 -100.9461 C   0  0  0  0  0  0  0  0  0  0  0  0
   44.1800  -31.2053 -101.8292 C   0  0  0  0  0  0  0  0  0  0  0  0
   42.8448  -31.1101 -101.4935 N   0  0  0  0  0  0  0  0  0  0  0  0
   45.2002  -30.1521  -99.7419 N   0  0  0  0  0  0  0  0  0  0  0  0
   46.4292  -29.9189  -99.3887 C   0  0  0  0  0  0  0  0  0  0  0  0
   47.3215  -30.3509 -100.3421 N   0  0  0  0  0  0  0  0  0  0  0  0
  2  1  1  6  0  0  0
  2  3  1  0  0  0  0
  2  5  1  0  0  0  0
  3  4  1  0  0  0  0
  3 17  1  0  0  0  0
  5  6  1  0  0  0  0
  7  6  1  6  0  0  0
  7  8  1  0  0  0  0
  7  9  1  0  0  0  0
 10  9  1  6  0  0  0
 10 11  1  0  0  0  0
 10 12  1  0  0  0  0
 11 16  1  0  0  0  0
 12 13  1  1  0  0  0
 12 14  1  0  0  0  0
 14 15  1  1  0  0  0
 14 16  1  0  0  0  0
 16 27  1  6  0  0  0
 18 19  2  0  0  0  0
 18 23  1  0  0  0  0
 19 20  1  0  0  0  0
 20 21  2  0  0  0  0
 21 22  1  0  0  0  0
 21 27  1  0  0  0  0
 22 23  2  0  0  0  0
 22 25  1  0  0  0  0
 23 24  1  0  0  0  0
 25 26  2  0  0  0  0
 26 27  1  0  0  0  0
M  END
>  <CHROM.1>
-175.24962135,62.88083172,146.44306151,-67.26705529,-165.28723822,49.64031643
88.05032627,48.09886450,-28.74308372,-102.79674767,1.21312599,-0.17815510
-0.75092215

>  <Name>
ligand

>  <RI>
0

>  <Rbt.Current_Directory>
/home/itssahil/PROJECTS/Mol_Feturizer/Test_systems_manuscript/rnas/4l81

>  <Rbt.Executable>
rbdock ($Id: //depot/dev/client3/rdock/2013.1/src/exe/rbdock.cxx#4 $)

>  <Rbt.Library>
libRbt.so (2013.1, Build901 2013/11/27)

>  <Rbt.Parameter_File>
/export/apps/rDock/src/rDock_2013.1_src/data/scripts/dock_solv.prm

>  <Rbt.Receptor>
prm/pocket_docking_3.prm

>  <SCORE>
-14.8945

>  <SCORE.INTER>
-14.01

>  <SCORE.INTER.CONST>
1

>  <SCORE.INTER.POLAR>
0

>  <SCORE.INTER.ROT>
7

>  <SCORE.INTER.SOLV>
16.7597

>  <SCORE.INTER.VDW>
-23.1932

>  <SCORE.INTER.norm>
-0.518888

>  <SCORE.INTRA>
-0.885064

>  <SCORE.INTRA.DIHEDRAL>
-0.0860836

>  <SCORE.INTRA.DIHEDRAL.0>
8.34559

>  <SCORE.INTRA.POLAR>
0

>  <SCORE.INTRA.POLAR.0>
0

>  <SCORE.INTRA.REPUL>
0

>  <SCORE.INTRA.REPUL.0>
0

>  <SCORE.INTRA.SOLV>
-0.607578

>  <SCORE.INTRA.SOLV.lig_0>
-48.829

>  <SCORE.INTRA.VDW>
-0.538233

>  <SCORE.INTRA.VDW.0>
-1.77092

>  <SCORE.INTRA.norm>
-0.0327801

>  <SCORE.RESTR>
0.000527502

>  <SCORE.RESTR.CAVITY>
0.000527502

>  <SCORE.RESTR.norm>
1.95371e-05

>  <SCORE.SYSTEM>
0

>  <SCORE.SYSTEM.CONST>
0

>  <SCORE.SYSTEM.DIHEDRAL>
0

>  <SCORE.SYSTEM.SOLV>
0

>  <SCORE.SYSTEM.norm>
0

>  <SCORE.heavy>
27

>  <SCORE.norm>
-0.551648

>  <RMSD>
2.446

$$$$
ligand
 OpenBabel02271912153D
libRbt.so/2013.1/901 2013/11/27
 27 29  0  0  0  0  0  0  0  0999 V2000
   46.2769  -26.0920 -104.8427 N   0  0  0  0  0  0  0  0  0  0  0  0
   46.5961  -25.8660 -103.4286 C   0  0  2  0  0  0  0  0  0  0  0  0
   47.7168  -24.8537 -103.3191 C   0  0  0  0  0  0  0  0  0  0  0  0
   48.0644  -24.2133 -104.2998 O   0  0  0  0  0  0  0  0  0  0  0  0
   47.0329  -27.1659 -102.7395 C   0  0  0  0  0  0  0  0  0  0  0  0
   48.0700  -27.9005 -103.5773 C   0  0  0  0  0  0  0  0  0  0  0  0
   49.7759  -27.2726 -103.3346 S   0  0  2  0  0  0  0  0  0  0  0  0
   50.1748  -26.4622 -104.9169 C   0  0  0  0  0  0  0  0  0  0  0  0
   50.5853  -28.8463 -103.6118 C   0  0  0  0  0  0  0  0  0  0  0  0
   50.8550  -29.6197 -102.3485 C   0  0  1  0  0  0  0  0  0  0  0  0
   49.6713  -29.5621 -101.5346 O   0  0  0  0  0  0  0  0  0  0  0  0
   50.9623  -31.0088 -102.8349 C   0  0  1  0  0  0  0  0  0  0  0  0
   52.3366  -31.3525 -103.0040 O   0  0  0  0  0  0  0  0  0  0  0  0
   50.3746  -31.7936 -101.7032 C   0  0  1  0  0  0  0  0  0  0  0  0
   51.3902  -32.1034 -100.7266 O   0  0  0  0  0  0  0  0  0  0  0  0
   49.2876  -30.8785 -101.0635 C   0  0  2  0  0  0  0  0  0  0  0  0
   48.2577  -24.6459 -102.2471 O   0  0  0  0  0  0  0  0  0  0  0  0
   44.1258  -29.7078 -100.6353 N   0  0  0  0  0  0  0  0  0  0  0  0
   45.1476  -29.2324  -99.8816 C   0  0  0  0  0  0  0  0  0  0  0  0
   46.4290  -29.5801 -100.1226 N   0  0  0  0  0  0  0  0  0  0  0  0
   46.7265  -30.4850 -101.0692 C   0  0  0  0  0  0  0  0  0  0  0  0
   45.6653  -31.0484 -101.8685 C   0  0  0  0  0  0  0  0  0  0  0  0
   44.3307  -30.6113 -101.6170 C   0  0  0  0  0  0  0  0  0  0  0  0
   43.2696  -31.1016 -102.3507 N   0  0  0  0  0  0  0  0  0  0  0  0
   46.2252  -31.9146 -102.7211 N   0  0  0  0  0  0  0  0  0  0  0  0
   47.5083  -31.9399 -102.5152 C   0  0  0  0  0  0  0  0  0  0  0  0
   47.8784  -31.0734 -101.5132 N   0  0  0  0  0  0  0  0  0  0  0  0
  2  1  1  6  0  0  0
  2  3  1  0  0  0  0
  2  5  1  0  0  0  0
  3  4  1  0  0  0  0
  3 17  1  0  0  0  0
  5  6  1  0  0  0  0
  7  6  1  6  0  0  0
  7  8  1  0  0  0  0
  7  9  1  0  0  0  0
 10  9  1  6  0  0  0
 10 11  1  0  0  0  0
 10 12  1  0  0  0  0
 11 16  1  0  0  0  0
 12 13  1  1  0  0  0
 12 14  1  0  0  0  0
 14 15  1  1  0  0  0
 14 16  1  0  0  0  0
 16 27  1  6  0  0  0
 18 19  2  0  0  0  0
 18 23  1  0  0  0  0
 19 20  1  0  0  0  0
 20 21  2  0  0  0  0
 21 22  1  0  0  0  0
 21 27  1  0  0  0  0
 22 23  2  0  0  0  0
 22 25  1  0  0  0  0
 23 24  1  0  0  0  0
 25 26  2  0  0  0  0
 26 27  1  0  0  0  0
M  END
>  <CHROM.1>
11.34118066,47.67908813,82.86883834,-110.84037679,-93.89650269,44.78536889
-71.38156821,48.12748452,-28.98499268,-102.43678851,1.49471515,0.16573511
-0.35847377

>  <Name>
ligand

>  <RI>
0

>  <Rbt.Current_Directory>
/home/itssahil/PROJECTS/Mol_Feturizer/Test_systems_manuscript/rnas/4l81

>  <Rbt.Executable>
rbdock ($Id: //depot/dev/client3/rdock/2013.1/src/exe/rbdock.cxx#4 $)

>  <Rbt.Library>
libRbt.so (2013.1, Build901 2013/11/27)

>  <Rbt.Parameter_File>
/export/apps/rDock/src/rDock_2013.1_src/data/scripts/dock_solv.prm

>  <Rbt.Receptor>
prm/pocket_docking_4.prm

>  <SCORE>
-15.3142

>  <SCORE.INTER>
-15.4258

>  <SCORE.INTER.CONST>
1

>  <SCORE.INTER.POLAR>
0

>  <SCORE.INTER.ROT>
7

>  <SCORE.INTER.SOLV>
15.1815

>  <SCORE.INTER.VDW>
-23.611

>  <SCORE.INTER.norm>
-0.571324

>  <SCORE.INTRA>
0.111604

>  <SCORE.INTRA.DIHEDRAL>
3.03339

>  <SCORE.INTRA.DIHEDRAL.0>
8.34559

>  <SCORE.INTRA.POLAR>
0

>  <SCORE.INTRA.POLAR.0>
0

>  <SCORE.INTRA.REPUL>
0

>  <SCORE.INTRA.REPUL.0>
0

>  <SCORE.INTRA.SOLV>
0.799999

>  <SCORE.INTRA.SOLV.lig_0>
-48.829

>  <SCORE.INTRA.VDW>
-1.80509

>  <SCORE.INTRA.VDW.0>
-1.77092

>  <SCORE.INTRA.norm>
0.00413347

>  <SCORE.RESTR>
0

>  <SCORE.RESTR.CAVITY>
0

>  <SCORE.RESTR.norm>
0

>  <SCORE.SYSTEM>
0

>  <SCORE.SYSTEM.CONST>
0

>  <SCORE.SYSTEM.DIHEDRAL>
0

>  <SCORE.SYSTEM.SOLV>
0

>  <SCORE.SYSTEM.norm>
0

>  <SCORE.heavy>
27

>  <SCORE.norm>
-0.567191

>  <RMSD>
2.475

$$$$
ligand
 OpenBabel02271912153D
libRbt.so/2013.1/901 2013/11/27
 27 29  0  0  0  0  0  0  0  0999 V2000
   48.3269  -24.1411 -107.9137 N   0  0  0  0  0  0  0  0  0  0  0  0
   48.8234  -25.4616 -107.5106 C   0  0  2  0  0  0  0  0  0  0  0  0
   48.0732  -26.5364 -108.2685 C   0  0  0  0  0  0  0  0  0  0  0  0
   48.6636  -27.5234 -108.6808 O   0  0  0  0  0  0  0  0  0  0  0  0
   48.6358  -25.6936 -106.0051 C   0  0  0  0  0  0  0  0  0  0  0  0
   49.2674  -27.0108 -105.5776 C   0  0  0  0  0  0  0  0  0  0  0  0
   49.2031  -27.2923 -103.7665 S   0  0  2  0  0  0  0  0  0  0  0  0
   50.6066  -26.3258 -103.1218 C   0  0  0  0  0  0  0  0  0  0  0  0
   49.9713  -28.9099 -103.8110 C   0  0  0  0  0  0  0  0  0  0  0  0
   50.4822  -29.3749 -102.4732 C   0  0  1  0  0  0  0  0  0  0  0  0
   49.5230  -28.9867 -101.4752 O   0  0  0  0  0  0  0  0  0  0  0  0
   50.3984  -30.8439 -102.5865 C   0  0  1  0  0  0  0  0  0  0  0  0
   51.6759  -31.3707 -102.9415 O   0  0  0  0  0  0  0  0  0  0  0  0
   50.0455  -31.2558 -101.1909 C   0  0  1  0  0  0  0  0  0  0  0  0
   51.2404  -31.4286 -100.4012 O   0  0  0  0  0  0  0  0  0  0  0  0
   49.1869  -30.0955 -100.6037 C   0  0  2  0  0  0  0  0  0  0  0  0
   46.8710  -26.4422 -108.4443 O   0  0  0  0  0  0  0  0  0  0  0  0
   44.8709  -31.9343 -103.0915 N   0  0  0  0  0  0  0  0  0  0  0  0
   46.1642  -32.0546 -103.4798 C   0  0  0  0  0  0  0  0  0  0  0  0
   47.1782  -31.5746 -102.7298 N   0  0  0  0  0  0  0  0  0  0  0  0
   46.9304  -30.8786 -101.6083 C   0  0  0  0  0  0  0  0  0  0  0  0
   45.5656  -30.6906 -101.1788 C   0  0  0  0  0  0  0  0  0  0  0  0
   44.5271  -31.2624 -101.9724 C   0  0  0  0  0  0  0  0  0  0  0  0
   43.2008  -31.1293 -101.6146 N   0  0  0  0  0  0  0  0  0  0  0  0
   45.5981  -29.9686 -100.0526 N   0  0  0  0  0  0  0  0  0  0  0  0
   46.8350  -29.6941  -99.7627 C   0  0  0  0  0  0  0  0  0  0  0  0
   47.7034  -30.2351 -100.6818 N   0  0  0  0  0  0  0  0  0  0  0  0
  2  1  1  6  0  0  0
  2  3  1  0  0  0  0
  2  5  1  0  0  0  0
  3  4  1  0  0  0  0
  3 17  1  0  0  0  0
  5  6  1  0  0  0  0
  7  6  1  6  0  0  0
  7  8  1  0  0  0  0
  7  9  1  0  0  0  0
 10  9  1  6  0  0  0
 10 11  1  0  0  0  0
 10 12  1  0  0  0  0
 11 16  1  0  0  0  0
 12 13  1  1  0  0  0
 12 14  1  0  0  0  0
 14 15  1  1  0  0  0
 14 16  1  0  0  0  0
 16 27  1  6  0  0  0
 18 19  2  0  0  0  0
 18 23  1  0  0  0  0
 19 20  1  0  0  0  0
 20 21  2  0  0  0  0
 21 22  1  0  0  0  0
 21 27  1  0  0  0  0
 22 23  2  0  0  0  0
 22 25  1  0  0  0  0
 23 24  1  0  0  0  0
 25 26  2  0  0  0  0
 26 27  1  0  0  0  0
M  END
>  <CHROM.1>
140.64949723,-174.85432301,175.29528231,-81.26570706,163.41576139,39.66142030
83.00302881,48.25946407,-29.05954873,-103.43879781,1.40194883,-0.20508779
-0.92153901

>  <Name>
ligand

>  <RI>
0

>  <Rbt.Current_Directory>
/home/itssahil/PROJECTS/Mol_Feturizer/Test_systems_manuscript/rnas/4l81

>  <Rbt.Executable>
rbdock ($Id: //depot/dev/client3/rdock/2013.1/src/exe/rbdock.cxx#4 $)

>  <Rbt.Library>
libRbt.so (2013.1, Build901 2013/11/27)

>  <Rbt.Parameter_File>
/export/apps/rDock/src/rDock_2013.1_src/data/scripts/dock_solv.prm

>  <Rbt.Receptor>
prm/pocket_docking_5.prm

>  <SCORE>
-18.1557

>  <SCORE.INTER>
-15.4666

>  <SCORE.INTER.CONST>
1

>  <SCORE.INTER.POLAR>
0

>  <SCORE.INTER.ROT>
7

>  <SCORE.INTER.SOLV>
15.5961

>  <SCORE.INTER.VDW>
-23.7764

>  <SCORE.INTER.norm>
-0.572837

>  <SCORE.INTRA>
-2.68913

>  <SCORE.INTRA.DIHEDRAL>
-3.07926

>  <SCORE.INTRA.DIHEDRAL.0>
8.34559

>  <SCORE.INTRA.POLAR>
0

>  <SCORE.INTRA.POLAR.0>
0

>  <SCORE.INTRA.REPUL>
0

>  <SCORE.INTRA.REPUL.0>
0

>  <SCORE.INTRA.SOLV>
-1.22588

>  <SCORE.INTRA.SOLV.lig_0>
-48.829

>  <SCORE.INTRA.VDW>
-0.536555

>  <SCORE.INTRA.VDW.0>
-1.77092

>  <SCORE.INTRA.norm>
-0.0995974

>  <SCORE.RESTR>
0

>  <SCORE.RESTR.CAVITY>
0

>  <SCORE.RESTR.norm>
0

>  <SCORE.SYSTEM>
0

>  <SCORE.SYSTEM.CONST>
0

>  <SCORE.SYSTEM.DIHEDRAL>
0

>  <SCORE.SYSTEM.SOLV>
0

>  <SCORE.SYSTEM.norm>
0

>  <SCORE.heavy>
27

>  <SCORE.norm>
-0.672435

>  <RMSD>
2.479

$$$$
ligand
 OpenBabel02271912153D
libRbt.so/2013.1/901 2013/11/27
 27 29  0  0  0  0  0  0  0  0999 V2000
   49.0425  -27.2630 -108.1623 N   0  0  0  0  0  0  0  0  0  0  0  0
   48.3758  -26.5261 -107.0828 C   0  0  2  0  0  0  0  0  0  0  0  0
   48.4406  -25.0408 -107.3701 C   0  0  0  0  0  0  0  0  0  0  0  0
   49.5109  -24.5108 -107.6276 O   0  0  0  0  0  0  0  0  0  0  0  0
   49.0406  -26.7983 -105.7266 C   0  0  0  0  0  0  0  0  0  0  0  0
   48.1755  -26.2810 -104.5861 C   0  0  0  0  0  0  0  0  0  0  0  0
   48.9570  -26.4724 -102.9381 S   0  0  2  0  0  0  0  0  0  0  0  0
   50.6166  -25.7517 -103.1527 C   0  0  0  0  0  0  0  0  0  0  0  0
   49.3730  -28.2031 -103.1390 C   0  0  0  0  0  0  0  0  0  0  0  0
   49.8371  -28.8660 -101.8694 C   0  0  1  0  0  0  0  0  0  0  0  0
   48.8004  -28.7100 -100.8856 O   0  0  0  0  0  0  0  0  0  0  0  0
   49.8548  -30.2950 -102.2370 C   0  0  1  0  0  0  0  0  0  0  0  0
   51.1815  -30.6823 -102.5911 O   0  0  0  0  0  0  0  0  0  0  0  0
   49.4515  -30.9624 -100.9586 C   0  0  1  0  0  0  0  0  0  0  0  0
   50.6090  -31.2055 -100.1325 O   0  0  0  0  0  0  0  0  0  0  0  0
   48.4883  -29.9702 -100.2403 C   0  0  2  0  0  0  0  0  0  0  0  0
   47.4236  -24.3695 -107.3795 O   0  0  0  0  0  0  0  0  0  0  0  0
   44.4760  -32.0247 -103.0472 N   0  0  0  0  0  0  0  0  0  0  0  0
   45.8012  -32.0953 -103.3242 C   0  0  0  0  0  0  0  0  0  0  0  0
   46.7279  -31.5624 -102.5007 N   0  0  0  0  0  0  0  0  0  0  0  0
   46.3584  -30.8622 -101.4159 C   0  0  0  0  0  0  0  0  0  0  0  0
   44.9558  -30.7266 -101.1049 C   0  0  0  0  0  0  0  0  0  0  0  0
   44.0120  -31.3528 -101.9723 C   0  0  0  0  0  0  0  0  0  0  0  0
   42.6560  -31.2714 -101.7286 N   0  0  0  0  0  0  0  0  0  0  0  0
   44.8637  -29.9885  -99.9925 N   0  0  0  0  0  0  0  0  0  0  0  0
   46.0596  -29.6577  -99.6053 C   0  0  0  0  0  0  0  0  0  0  0  0
   47.0237  -30.1739 -100.4394 N   0  0  0  0  0  0  0  0  0  0  0  0
  2  1  1  6  0  0  0
  2  3  1  0  0  0  0
  2  5  1  0  0  0  0
  3  4  1  0  0  0  0
  3 17  1  0  0  0  0
  5  6  1  0  0  0  0
  7  6  1  6  0  0  0
  7  8  1  0  0  0  0
  7  9  1  0  0  0  0
 10  9  1  6  0  0  0
 10 11  1  0  0  0  0
 10 12  1  0  0  0  0
 11 16  1  0  0  0  0
 12 13  1  1  0  0  0
 12 14  1  0  0  0  0
 14 15  1  1  0  0  0
 14 16  1  0  0  0  0
 16 27  1  6  0  0  0
 18 19  2  0  0  0  0
 18 23  1  0  0  0  0
 19 20  1  0  0  0  0
 20 21  2  0  0  0  0
 21 22  1  0  0  0  0
 21 27  1  0  0  0  0
 22 23  2  0  0  0  0
 22 25  1  0  0  0  0
 23 24  1  0  0  0  0
 25 26  2  0  0  0  0
 26 27  1  0  0  0  0
M  END
>  <CHROM.1>
-51.87449717,-167.77361597,-176.21668773,50.50403337,-169.34539233,57.15473758
93.95141187,47.92652237,-28.76325620,-103.04679409,1.20660293,-0.30188924
-0.89198716

>  <Name>
ligand

>  <RI>
0

>  <Rbt.Current_Directory>
/home/itssahil/PROJECTS/Mol_Feturizer/Test_systems_manuscript/rnas/4l81

>  <Rbt.Executable>
rbdock ($Id: //depot/dev/client3/rdock/2013.1/src/exe/rbdock.cxx#4 $)

>  <Rbt.Library>
libRbt.so (2013.1, Build901 2013/11/27)

>  <Rbt.Parameter_File>
/export/apps/rDock/src/rDock_2013.1_src/data/scripts/dock_solv.prm

>  <Rbt.Receptor>
prm/pocket_docking_5.prm

>  <SCORE>
-14.8514

>  <SCORE.INTER>
-12.923

>  <SCORE.INTER.CONST>
1

>  <SCORE.INTER.POLAR>
0

>  <SCORE.INTER.ROT>
7

>  <SCORE.INTER.SOLV>
19.9559

>  <SCORE.INTER.VDW>
-23.534

>  <SCORE.INTER.norm>
-0.478631

>  <SCORE.INTRA>
-1.92835

>  <SCORE.INTRA.DIHEDRAL>
-3.48426

>  <SCORE.INTRA.DIHEDRAL.0>
8.34559

>  <SCORE.INTRA.POLAR>
0

>  <SCORE.INTRA.POLAR.0>
0

>  <SCORE.INTRA.REPUL>
0

>  <SCORE.INTRA.REPUL.0>
0

>  <SCORE.INTRA.SOLV>
-1.29827

>  <SCORE.INTRA.SOLV.lig_0>
-48.829

>  <SCORE.INTRA.VDW>
0.462916

>  <SCORE.INTRA.VDW.0>
-1.77092

>  <SCORE.INTRA.norm>
-0.0714203

>  <SCORE.RESTR>
0

>  <SCORE.RESTR.CAVITY>
0

>  <SCORE.RESTR.norm>
0

>  <SCORE.SYSTEM>
0

>  <SCORE.SYSTEM.CONST>
0

>  <SCORE.SYSTEM.DIHEDRAL>
0

>  <SCORE.SYSTEM.SOLV>
0

>  <SCORE.SYSTEM.norm>
0

>  <SCORE.heavy>
27

>  <SCORE.norm>
-0.550051

>  <RMSD>
2.510

$$$$
ligand
 OpenBabel02271912153D
libRbt.so/2013.1/901 2013/11/27
 27 29  0  0  0  0  0  0  0  0999 V2000
   47.2452  -25.6630 -106.8050 N   0  0  0  0  0  0  0  0  0  0  0  0
   48.3259  -25.0679 -106.0110 C   0  0  2  0  0  0  0  0  0  0  0  0
   48.5073  -23.6186 -106.4103 C   0  0  0  0  0  0  0  0  0  0  0  0
   48.2538  -23.2589 -107.5500 O   0  0  0  0  0  0  0  0  0  0  0  0
   49.6515  -25.8110 -106.2256 C   0  0  0  0  0  0  0  0  0  0  0  0
   49.5638  -27.2371 -105.7007 C   0  0  0  0  0  0  0  0  0  0  0  0
   49.2754  -27.3281 -103.8918 S   0  0  2  0  0  0  0  0  0  0  0  0
   50.6816  -26.4165 -103.1766 C   0  0  0  0  0  0  0  0  0  0  0  0
   49.8937  -28.9980 -103.6974 C   0  0  0  0  0  0  0  0  0  0  0  0
   50.3962  -29.3004 -102.3108 C   0  0  1  0  0  0  0  0  0  0  0  0
   49.3964  -28.8643 -101.3742 O   0  0  0  0  0  0  0  0  0  0  0  0
   50.3875  -30.7757 -102.2769 C   0  0  1  0  0  0  0  0  0  0  0  0
   51.6972  -31.2690 -102.5542 O   0  0  0  0  0  0  0  0  0  0  0  0
   50.0235  -31.0639 -100.8534 C   0  0  1  0  0  0  0  0  0  0  0  0
   51.2071  -31.0955 -100.0291 O   0  0  0  0  0  0  0  0  0  0  0  0
   49.0956  -29.8965 -100.4015 C   0  0  2  0  0  0  0  0  0  0  0  0
   48.8749  -22.7946 -105.5913 O   0  0  0  0  0  0  0  0  0  0  0  0
   44.8939  -31.8355 -103.0061 N   0  0  0  0  0  0  0  0  0  0  0  0
   46.1916  -31.8550 -103.3978 C   0  0  0  0  0  0  0  0  0  0  0  0
   47.1761  -31.3616 -102.6177 N   0  0  0  0  0  0  0  0  0  0  0  0
   46.8886  -30.7504 -101.4570 C   0  0  0  0  0  0  0  0  0  0  0  0
   45.5155  -30.6703 -101.0203 C   0  0  0  0  0  0  0  0  0  0  0  0
   44.5119  -31.2539 -101.8494 C   0  0  0  0  0  0  0  0  0  0  0  0
   43.1805  -31.2218 -101.4875 N   0  0  0  0  0  0  0  0  0  0  0  0
   45.5062  -30.0167  -99.8525 N   0  0  0  0  0  0  0  0  0  0  0  0
   46.7249  -29.6871  -99.5435 C   0  0  0  0  0  0  0  0  0  0  0  0
   47.6230  -30.1191 -100.4915 N   0  0  0  0  0  0  0  0  0  0  0  0
  2  1  1  6  0  0  0
  2  3  1  0  0  0  0
  2  5  1  0  0  0  0
  3  4  1  0  0  0  0
  3 17  1  0  0  0  0
  5  6  1  0  0  0  0
  7  6  1  6  0  0  0
  7  8  1  0  0  0  0
  7  9  1  0  0  0  0
 10  9  1  6  0  0  0
 10 11  1  0  0  0  0
 10 12  1  0  0  0  0
 11 16  1  0  0  0  0
 12 13  1  1  0  0  0
 12 14  1  0  0  0  0
 14 15  1  1  0  0  0
 14 16  1  0  0  0  0
 16 27  1  6  0  0  0
 18 19  2  0  0  0  0
 18 23  1  0  0  0  0
 19 20  1  0  0  0  0
 20 21  2  0  0  0  0
 21 22  1  0  0  0  0
 21 27  1  0  0  0  0
 22 23  2  0  0  0  0
 22 25  1  0  0  0  0
 23 24  1  0  0  0  0
 25 26  2  0  0  0  0
 26 27  1  0  0  0  0
M  END
>  <CHROM.1>
-29.92646257,-65.18291468,-62.94854452,-57.93271204,155.06328583,48.65113647
73.70558381,48.31124873,-28.64681017,-103.03198298,1.35443370,-0.10888207
-0.68551931

>  <Name>
ligand

>  <RI>
0

>  <Rbt.Current_Directory>
/home/itssahil/PROJECTS/Mol_Feturizer/Test_systems_manuscript/rnas/4l81

>  <Rbt.Executable>
rbdock ($Id: //depot/dev/client3/rdock/2013.1/src/exe/rbdock.cxx#4 $)

>  <Rbt.Library>
libRbt.so (2013.1, Build901 2013/11/27)

>  <Rbt.Parameter_File>
/export/apps/rDock/src/rDock_2013.1_src/data/scripts/dock_solv.prm

>  <Rbt.Receptor>
prm/pocket_docking_6.prm

>  <SCORE>
-15.9316

>  <SCORE.INTER>
-13.8131

>  <SCORE.INTER.CONST>
1

>  <SCORE.INTER.POLAR>
0

>  <SCORE.INTER.ROT>
7

>  <SCORE.INTER.SOLV>
15.3362

>  <SCORE.INTER.VDW>
-22.5875

>  <SCORE.INTER.norm>
-0.511598

>  <SCORE.INTRA>
-2.1185

>  <SCORE.INTRA.DIHEDRAL>
-3.22229

>  <SCORE.INTRA.DIHEDRAL.0>
8.34559

>  <SCORE.INTRA.POLAR>
0

>  <SCORE.INTRA.POLAR.0>
0

>  <SCORE.INTRA.REPUL>
0

>  <SCORE.INTRA.REPUL.0>
0

>  <SCORE.INTRA.SOLV>
0.010457

>  <SCORE.INTRA.SOLV.lig_0>
-48.829

>  <SCORE.INTRA.VDW>
-0.512582

>  <SCORE.INTRA.VDW.0>
-1.77092

>  <SCORE.INTRA.norm>
-0.0784629

>  <SCORE.RESTR>
0

>  <SCORE.RESTR.CAVITY>
0

>  <SCORE.RESTR.norm>
0

>  <SCORE.SYSTEM>
0

>  <SCORE.SYSTEM.CONST>
0

>  <SCORE.SYSTEM.DIHEDRAL>
0

>  <SCORE.SYSTEM.SOLV>
0

>  <SCORE.SYSTEM.norm>
0

>  <SCORE.heavy>
27

>  <SCORE.norm>
-0.590061

>  <RMSD>
2.535

$$$$
ligand
 OpenBabel02271912153D
libRbt.so/2013.1/901 2013/11/27
 27 29  0  0  0  0  0  0  0  0999 V2000
   45.5222  -25.0733 -106.1407 N   0  0  0  0  0  0  0  0  0  0  0  0
   45.9046  -26.1022 -105.1671 C   0  0  2  0  0  0  0  0  0  0  0  0
   44.7155  -26.4354 -104.2908 C   0  0  0  0  0  0  0  0  0  0  0  0
   44.8405  -26.4800 -103.0763 O   0  0  0  0  0  0  0  0  0  0  0  0
   47.0597  -25.6265 -104.2756 C   0  0  0  0  0  0  0  0  0  0  0  0
   47.6918  -26.7981 -103.5376 C   0  0  0  0  0  0  0  0  0  0  0  0
   49.1633  -26.3251 -102.5506 S   0  0  2  0  0  0  0  0  0  0  0  0
   50.4395  -25.9778 -103.8037 C   0  0  0  0  0  0  0  0  0  0  0  0
   49.6359  -27.9992 -102.1232 C   0  0  0  0  0  0  0  0  0  0  0  0
   48.9130  -28.5444 -100.9202 C   0  0  1  0  0  0  0  0  0  0  0  0
   47.5321  -28.1578 -101.0225 O   0  0  0  0  0  0  0  0  0  0  0  0
   48.9584  -30.0018 -101.1472 C   0  0  1  0  0  0  0  0  0  0  0  0
   50.0367  -30.5690 -100.4048 O   0  0  0  0  0  0  0  0  0  0  0  0
   47.6505  -30.4581 -100.5785 C   0  0  1  0  0  0  0  0  0  0  0  0
   47.7810  -30.7181  -99.1655 O   0  0  0  0  0  0  0  0  0  0  0  0
   46.6485  -29.2875 -100.8103 C   0  0  2  0  0  0  0  0  0  0  0  0
   43.6191  -26.6286 -104.7863 O   0  0  0  0  0  0  0  0  0  0  0  0
   46.1463  -29.8757 -106.0639 N   0  0  0  0  0  0  0  0  0  0  0  0
   47.2922  -29.8494 -105.3399 C   0  0  0  0  0  0  0  0  0  0  0  0
   47.2799  -29.7349 -103.9953 N   0  0  0  0  0  0  0  0  0  0  0  0
   46.1252  -29.5531 -103.3342 C   0  0  0  0  0  0  0  0  0  0  0  0
   44.8838  -29.5333 -104.0698 C   0  0  0  0  0  0  0  0  0  0  0  0
   44.9383  -29.7134 -105.4840 C   0  0  0  0  0  0  0  0  0  0  0  0
   43.7886  -29.7150 -106.2474 N   0  0  0  0  0  0  0  0  0  0  0  0
   43.8995  -29.3346 -103.1853 N   0  0  0  0  0  0  0  0  0  0  0  0
   44.4154  -29.2237 -101.9974 C   0  0  0  0  0  0  0  0  0  0  0  0
   45.7840  -29.3574 -102.0245 N   0  0  0  0  0  0  0  0  0  0  0  0
  2  1  1  6  0  0  0
  2  3  1  0  0  0  0
  2  5  1  0  0  0  0
  3  4  1  0  0  0  0
  3 17  1  0  0  0  0
  5  6  1  0  0  0  0
  7  6  1  6  0  0  0
  7  8  1  0  0  0  0
  7  9  1  0  0  0  0
 10  9  1  6  0  0  0
 10 11  1  0  0  0  0
 10 12  1  0  0  0  0
 11 16  1  0  0  0  0
 12 13  1  1  0  0  0
 12 14  1  0  0  0  0
 14 15  1  1  0  0  0
 14 16  1  0  0  0  0
 16 27  1  6  0  0  0
 18 19  2  0  0  0  0
 18 23  1  0  0  0  0
 19 20  1  0  0  0  0
 20 21  2  0  0  0  0
 21 22  1  0  0  0  0
 21 27  1  0  0  0  0
 22 23  2  0  0  0  0
 22 25  1  0  0  0  0
 23 24  1  0  0  0  0
 25 26  2  0  0  0  0
 26 27  1  0  0  0  0
M  END
>  <CHROM.1>
-131.89801901,-164.85537467,175.56765293,-71.37483552,-84.42777880,42.22305601
61.33892727,46.84560653,-28.28401819,-103.09378073,-2.45249865,0.54163271
2.50856910

>  <Name>
ligand

>  <RI>
0

>  <Rbt.Current_Directory>
/home/itssahil/PROJECTS/Mol_Feturizer/Test_systems_manuscript/rnas/4l81

>  <Rbt.Executable>
rbdock ($Id: //depot/dev/client3/rdock/2013.1/src/exe/rbdock.cxx#4 $)

>  <Rbt.Library>
libRbt.so (2013.1, Build901 2013/11/27)

>  <Rbt.Parameter_File>
/export/apps/rDock/src/rDock_2013.1_src/data/scripts/dock_solv.prm

>  <Rbt.Receptor>
prm/pocket_docking_3.prm

>  <SCORE>
-10.343

>  <SCORE.INTER>
-5.92791

>  <SCORE.INTER.CONST>
1

>  <SCORE.INTER.POLAR>
0

>  <SCORE.INTER.ROT>
7

>  <SCORE.INTER.SOLV>
21.4256

>  <SCORE.INTER.VDW>
-19.3605

>  <SCORE.INTER.norm>
-0.219552

>  <SCORE.INTRA>
-4.48347

>  <SCORE.INTRA.DIHEDRAL>
-2.29523

>  <SCORE.INTRA.DIHEDRAL.0>
8.34559

>  <SCORE.INTRA.POLAR>
0

>  <SCORE.INTRA.POLAR.0>
0

>  <SCORE.INTRA.REPUL>
0

>  <SCORE.INTRA.REPUL.0>
0

>  <SCORE.INTRA.SOLV>
-0.160206

>  <SCORE.INTRA.SOLV.lig_0>
-48.829

>  <SCORE.INTRA.VDW>
-3.25575

>  <SCORE.INTRA.VDW.0>
-1.77092

>  <SCORE.INTRA.norm>
-0.166055

>  <SCORE.RESTR>
0.068424

>  <SCORE.RESTR.CAVITY>
0.068424

>  <SCORE.RESTR.norm>
0.00253422

>  <SCORE.SYSTEM>
0

>  <SCORE.SYSTEM.CONST>
0

>  <SCORE.SYSTEM.DIHEDRAL>
0

>  <SCORE.SYSTEM.SOLV>
0

>  <SCORE.SYSTEM.norm>
0

>  <SCORE.heavy>
27

>  <SCORE.norm>
-0.383073

>  <RMSD>
2.564

$$$$
ligand
 OpenBabel02271912153D
libRbt.so/2013.1/901 2013/11/27
 27 29  0  0  0  0  0  0  0  0999 V2000
   48.3390  -25.9429 -108.1029 N   0  0  0  0  0  0  0  0  0  0  0  0
   48.8415  -27.2994 -107.8577 C   0  0  2  0  0  0  0  0  0  0  0  0
   48.0778  -28.2843 -108.7177 C   0  0  0  0  0  0  0  0  0  0  0  0
   47.6405  -27.9402 -109.8053 O   0  0  0  0  0  0  0  0  0  0  0  0
   48.6795  -27.6977 -106.3845 C   0  0  0  0  0  0  0  0  0  0  0  0
   49.6662  -26.9401 -105.5073 C   0  0  0  0  0  0  0  0  0  0  0  0
   49.4065  -27.2209 -103.7136 S   0  0  2  0  0  0  0  0  0  0  0  0
   50.7975  -26.3463 -102.9264 C   0  0  0  0  0  0  0  0  0  0  0  0
   50.0727  -28.8836 -103.6961 C   0  0  0  0  0  0  0  0  0  0  0  0
   50.5430  -29.3336 -102.3385 C   0  0  1  0  0  0  0  0  0  0  0  0
   49.5464  -28.9487 -101.3764 O   0  0  0  0  0  0  0  0  0  0  0  0
   50.4787  -30.8041 -102.4436 C   0  0  1  0  0  0  0  0  0  0  0  0
   51.7729  -31.3195 -102.7513 O   0  0  0  0  0  0  0  0  0  0  0  0
   50.0831  -31.2099 -101.0576 C   0  0  1  0  0  0  0  0  0  0  0  0
   51.2524  -31.3641 -100.2268 O   0  0  0  0  0  0  0  0  0  0  0  0
   49.1929  -30.0550 -100.5084 C   0  0  2  0  0  0  0  0  0  0  0  0
   47.9222  -29.4348 -108.3476 O   0  0  0  0  0  0  0  0  0  0  0  0
   44.9817  -31.9270 -103.1465 N   0  0  0  0  0  0  0  0  0  0  0  0
   46.2882  -32.0297 -103.4934 C   0  0  0  0  0  0  0  0  0  0  0  0
   47.2716  -31.5430 -102.7078 N   0  0  0  0  0  0  0  0  0  0  0  0
   46.9795  -30.8574 -101.5906 C   0  0  0  0  0  0  0  0  0  0  0  0
   45.5994  -30.6881 -101.2045 C   0  0  0  0  0  0  0  0  0  0  0  0
   44.5939  -31.2666 -102.0349 C   0  0  0  0  0  0  0  0  0  0  0  0
   43.2553  -31.1512 -101.7195 N   0  0  0  0  0  0  0  0  0  0  0  0
   45.5868  -29.9733 -100.0733 N   0  0  0  0  0  0  0  0  0  0  0  0
   46.8104  -29.6864  -99.7416 C   0  0  0  0  0  0  0  0  0  0  0  0
   47.7145  -30.2112 -100.6355 N   0  0  0  0  0  0  0  0  0  0  0  0
  2  1  1  1  0  0  0
  2  3  1  0  0  0  0
  2  5  1  0  0  0  0
  3  4  1  0  0  0  0
  3 17  1  0  0  0  0
  5  6  1  0  0  0  0
  7  6  1  6  0  0  0
  7  8  1  0  0  0  0
  7  9  1  0  0  0  0
 10  9  1  6  0  0  0
 10 11  1  0  0  0  0
 10 12  1  0  0  0  0
 11 16  1  0  0  0  0
 12 13  1  1  0  0  0
 12 14  1  0  0  0  0
 14 15  1  1  0  0  0
 14 16  1  0  0  0  0
 16 27  1  6  0  0  0
 18 19  2  0  0  0  0
 18 23  1  0  0  0  0
 19 20  1  0  0  0  0
 20 21  2  0  0  0  0
 21 22  1  0  0  0  0
 21 27  1  0  0  0  0
 22 23  2  0  0  0  0
 22 25  1  0  0  0  0
 23 24  1  0  0  0  0
 25 26  2  0  0  0  0
 26 27  1  0  0  0  0
M  END
>  <CHROM.1>
30.83652095,-71.83883835,173.48492055,174.65312524,157.82322607,44.33584437
82.20892140,48.33391879,-29.42767858,-103.47831345,1.40043377,-0.34477160
-1.16757901

>  <Name>
ligand

>  <RI>
0

>  <Rbt.Current_Directory>
/home/itssahil/PROJECTS/Mol_Feturizer/Test_systems_manuscript/rnas/4l81

>  <Rbt.Executable>
rbdock ($Id: //depot/dev/client3/rdock/2013.1/src/exe/rbdock.cxx#4 $)

>  <Rbt.Library>
libRbt.so (2013.1, Build901 2013/11/27)

>  <Rbt.Parameter_File>
/export/apps/rDock/src/rDock_2013.1_src/data/scripts/dock_solv.prm

>  <Rbt.Receptor>
prm/pocket_docking_7.prm

>  <SCORE>
-18.1681

>  <SCORE.INTER>
-16.8024

>  <SCORE.INTER.CONST>
1

>  <SCORE.INTER.POLAR>
0

>  <SCORE.INTER.ROT>
7

>  <SCORE.INTER.SOLV>
17.0179

>  <SCORE.INTER.VDW>
-25.1409

>  <SCORE.INTER.norm>
-0.622311

>  <SCORE.INTRA>
-1.36568

>  <SCORE.INTRA.DIHEDRAL>
-3.0025

>  <SCORE.INTRA.DIHEDRAL.0>
8.34559

>  <SCORE.INTRA.POLAR>
0

>  <SCORE.INTRA.POLAR.0>
0

>  <SCORE.INTRA.REPUL>
0

>  <SCORE.INTRA.REPUL.0>
0

>  <SCORE.INTRA.SOLV>
-0.61771

>  <SCORE.INTRA.SOLV.lig_0>
-48.829

>  <SCORE.INTRA.VDW>
0.44443

>  <SCORE.INTRA.VDW.0>
-1.77092

>  <SCORE.INTRA.norm>
-0.0505807

>  <SCORE.RESTR>
0

>  <SCORE.RESTR.CAVITY>
0

>  <SCORE.RESTR.norm>
0

>  <SCORE.SYSTEM>
0

>  <SCORE.SYSTEM.CONST>
0

>  <SCORE.SYSTEM.DIHEDRAL>
0

>  <SCORE.SYSTEM.SOLV>
0

>  <SCORE.SYSTEM.norm>
0

>  <SCORE.heavy>
27

>  <SCORE.norm>
-0.672891

>  <RMSD>
2.606

$$$$
ligand
 OpenBabel02271912153D
libRbt.so/2013.1/901 2013/11/27
 27 29  0  0  0  0  0  0  0  0999 V2000
   47.7699  -24.3118 -104.4726 N   0  0  0  0  0  0  0  0  0  0  0  0
   48.3620  -24.1852 -103.1361 C   0  0  2  0  0  0  0  0  0  0  0  0
   49.8388  -23.8764 -103.2650 C   0  0  0  0  0  0  0  0  0  0  0  0
   50.5187  -23.6977 -102.2657 O   0  0  0  0  0  0  0  0  0  0  0  0
   48.1945  -25.4777 -102.3258 C   0  0  0  0  0  0  0  0  0  0  0  0
   48.4591  -26.6993 -103.1946 C   0  0  0  0  0  0  0  0  0  0  0  0
   50.2332  -26.9341 -103.5956 S   0  0  2  0  0  0  0  0  0  0  0  0
   50.3053  -26.7293 -105.4046 C   0  0  0  0  0  0  0  0  0  0  0  0
   50.1979  -28.7232 -103.5155 C   0  0  0  0  0  0  0  0  0  0  0  0
   50.6296  -29.2788 -102.1844 C   0  0  1  0  0  0  0  0  0  0  0  0
   49.6345  -28.9175 -101.2117 O   0  0  0  0  0  0  0  0  0  0  0  0
   50.5094  -30.7356 -102.3862 C   0  0  1  0  0  0  0  0  0  0  0  0
   51.7869  -31.2815 -102.7108 O   0  0  0  0  0  0  0  0  0  0  0  0
   50.0773  -31.2143 -101.0348 C   0  0  1  0  0  0  0  0  0  0  0  0
   51.2270  -31.4688 -100.2013 O   0  0  0  0  0  0  0  0  0  0  0  0
   49.2248  -30.0626 -100.4225 C   0  0  2  0  0  0  0  0  0  0  0  0
   50.3670  -23.8364 -104.3624 O   0  0  0  0  0  0  0  0  0  0  0  0
   44.9802  -31.9792 -102.9735 N   0  0  0  0  0  0  0  0  0  0  0  0
   46.2869  -32.1903 -103.2664 C   0  0  0  0  0  0  0  0  0  0  0  0
   47.2767  -31.6751 -102.5076 N   0  0  0  0  0  0  0  0  0  0  0  0
   46.9967  -30.8565 -101.4804 C   0  0  0  0  0  0  0  0  0  0  0  0
   45.6194  -30.5710 -101.1579 C   0  0  0  0  0  0  0  0  0  0  0  0
   44.6033  -31.1811 -101.9522 C   0  0  0  0  0  0  0  0  0  0  0  0
   43.2661  -30.9591 -101.6929 N   0  0  0  0  0  0  0  0  0  0  0  0
   45.6197  -29.7372 -100.1113 N   0  0  0  0  0  0  0  0  0  0  0  0
   46.8491  -29.4830  -99.7745 C   0  0  0  0  0  0  0  0  0  0  0  0
   47.7435  -30.1509 -100.5780 N   0  0  0  0  0  0  0  0  0  0  0  0
  2  1  1  6  0  0  0
  2  3  1  0  0  0  0
  2  5  1  0  0  0  0
  3  4  1  0  0  0  0
  3 17  1  0  0  0  0
  5  6  1  0  0  0  0
  7  6  1  6  0  0  0
  7  8  1  0  0  0  0
  7  9  1  0  0  0  0
 10  9  1  6  0  0  0
 10 11  1  0  0  0  0
 10 12  1  0  0  0  0
 11 16  1  0  0  0  0
 12 13  1  1  0  0  0
 12 14  1  0  0  0  0
 14 15  1  1  0  0  0
 14 16  1  0  0  0  0
 16 27  1  6  0  0  0
 18 19  2  0  0  0  0
 18 23  1  0  0  0  0
 19 20  1  0  0  0  0
 20 21  2  0  0  0  0
 21 22  1  0  0  0  0
 21 27  1  0  0  0  0
 22 23  2  0  0  0  0
 22 25  1  0  0  0  0
 23 24  1  0  0  0  0
 25 26  2  0  0  0  0
 26 27  1  0  0  0  0
M  END
>  <CHROM.1>
178.17552013,41.84100584,72.79376958,-115.80196139,-95.76309763,67.70001143
92.25473940,48.57574134,-28.60259068,-102.35228845,1.12313776,0.03449228
-0.30211100

>  <Name>
ligand

>  <RI>
0

>  <Rbt.Current_Directory>
/home/itssahil/PROJECTS/Mol_Feturizer/Test_systems_manuscript/rnas/4l81

>  <Rbt.Executable>
rbdock ($Id: //depot/dev/client3/rdock/2013.1/src/exe/rbdock.cxx#4 $)

>  <Rbt.Library>
libRbt.so (2013.1, Build901 2013/11/27)

>  <Rbt.Parameter_File>
/export/apps/rDock/src/rDock_2013.1_src/data/scripts/dock_solv.prm

>  <Rbt.Receptor>
prm/pocket_docking_6.prm

>  <SCORE>
-17.7606

>  <SCORE.INTER>
-18.1207

>  <SCORE.INTER.CONST>
1

>  <SCORE.INTER.POLAR>
0

>  <SCORE.INTER.ROT>
7

>  <SCORE.INTER.SOLV>
16.0216

>  <SCORE.INTER.VDW>
-25.6876

>  <SCORE.INTER.norm>
-0.671136

>  <SCORE.INTRA>
0.360051

>  <SCORE.INTRA.DIHEDRAL>
2.66698

>  <SCORE.INTRA.DIHEDRAL.0>
8.34559

>  <SCORE.INTRA.POLAR>
0

>  <SCORE.INTRA.POLAR.0>
0

>  <SCORE.INTRA.REPUL>
0

>  <SCORE.INTRA.REPUL.0>
0

>  <SCORE.INTRA.SOLV>
1.20752

>  <SCORE.INTRA.SOLV.lig_0>
-48.829

>  <SCORE.INTRA.VDW>
-1.5772

>  <SCORE.INTRA.VDW.0>
-1.77092

>  <SCORE.INTRA.norm>
0.0133352

>  <SCORE.RESTR>
0

>  <SCORE.RESTR.CAVITY>
0

>  <SCORE.RESTR.norm>
0

>  <SCORE.SYSTEM>
0

>  <SCORE.SYSTEM.CONST>
0

>  <SCORE.SYSTEM.DIHEDRAL>
0

>  <SCORE.SYSTEM.SOLV>
0

>  <SCORE.SYSTEM.norm>
0

>  <SCORE.heavy>
27

>  <SCORE.norm>
-0.657801

>  <RMSD>
2.696

$$$$
ligand
 OpenBabel02271912153D
libRbt.so/2013.1/901 2013/11/27
 27 29  0  0  0  0  0  0  0  0999 V2000
   44.4301  -24.3832 -106.2439 N   0  0  0  0  0  0  0  0  0  0  0  0
   44.5353  -25.5698 -105.3874 C   0  0  2  0  0  0  0  0  0  0  0  0
   43.5922  -25.4292 -104.2112 C   0  0  0  0  0  0  0  0  0  0  0  0
   43.0801  -24.3488 -103.9600 O   0  0  0  0  0  0  0  0  0  0  0  0
   45.9643  -25.7523 -104.8583 C   0  0  0  0  0  0  0  0  0  0  0  0
   46.9300  -26.0463 -105.9976 C   0  0  0  0  0  0  0  0  0  0  0  0
   46.8833  -27.7926 -106.5559 S   0  0  2  0  0  0  0  0  0  0  0  0
   45.1169  -28.1043 -106.8757 C   0  0  0  0  0  0  0  0  0  0  0  0
   47.0034  -28.5060 -104.9172 C   0  0  0  0  0  0  0  0  0  0  0  0
   48.4153  -28.8054 -104.4887 C   0  0  1  0  0  0  0  0  0  0  0  0
   48.4255  -28.9266 -103.0562 O   0  0  0  0  0  0  0  0  0  0  0  0
   48.6369  -30.1618 -105.0259 C   0  0  1  0  0  0  0  0  0  0  0  0
   49.3316  -30.0772 -106.2692 O   0  0  0  0  0  0  0  0  0  0  0  0
   49.5209  -30.7801 -103.9874 C   0  0  1  0  0  0  0  0  0  0  0  0
   50.9056  -30.4896 -104.2695 O   0  0  0  0  0  0  0  0  0  0  0  0
   49.1103  -30.1318 -102.6313 C   0  0  2  0  0  0  0  0  0  0  0  0
   43.3110  -26.3975 -103.5269 O   0  0  0  0  0  0  0  0  0  0  0  0
   45.2524  -33.7525 -102.1782 N   0  0  0  0  0  0  0  0  0  0  0  0
   45.8857  -33.3550 -103.3091 C   0  0  0  0  0  0  0  0  0  0  0  0
   46.8858  -32.4495 -103.2817 N   0  0  0  0  0  0  0  0  0  0  0  0
   47.2288  -31.8426 -102.1339 C   0  0  0  0  0  0  0  0  0  0  0  0
   46.5524  -32.2053 -100.9118 C   0  0  0  0  0  0  0  0  0  0  0  0
   45.5391  -33.2074 -100.9771 C   0  0  0  0  0  0  0  0  0  0  0  0
   44.8593  -33.6089  -99.8451 N   0  0  0  0  0  0  0  0  0  0  0  0
   47.0737  -31.4588  -99.9311 N   0  0  0  0  0  0  0  0  0  0  0  0
   47.9850  -30.6795 -100.4327 C   0  0  0  0  0  0  0  0  0  0  0  0
   48.1313  -30.8758 -101.7861 N   0  0  0  0  0  0  0  0  0  0  0  0
  2  1  1  6  0  0  0
  2  3  1  0  0  0  0
  2  5  1  0  0  0  0
  3  4  1  0  0  0  0
  3 17  1  0  0  0  0
  5  6  1  0  0  0  0
  7  6  1  1  0  0  0
  7  8  1  0  0  0  0
  7  9  1  0  0  0  0
 10  9  1  6  0  0  0
 10 11  1  0  0  0  0
 10 12  1  0  0  0  0
 11 16  1  0  0  0  0
 12 13  1  6  0  0  0
 12 14  1  0  0  0  0
 14 15  1  6  0  0  0
 14 16  1  0  0  0  0
 16 27  1  6  0  0  0
 18 19  2  0  0  0  0
 18 23  1  0  0  0  0
 19 20  1  0  0  0  0
 20 21  2  0  0  0  0
 21 22  1  0  0  0  0
 21 27  1  0  0  0  0
 22 23  2  0  0  0  0
 22 25  1  0  0  0  0
 23 24  1  0  0  0  0
 25 26  2  0  0  0  0
 26 27  1  0  0  0  0
M  END
>  <CHROM.1>
-13.25736570,-65.22943803,-79.52039546,52.22711011,-92.45338458,160.65445834
92.16213722,46.70143502,-29.28650324,-103.79619661,1.88382469,0.47687284
-0.66552010

>  <Name>
ligand

>  <RI>
0

>  <Rbt.Current_Directory>
/home/itssahil/PROJECTS/Mol_Feturizer/Test_systems_manuscript/rnas/4l81

>  <Rbt.Executable>
rbdock ($Id: //depot/dev/client3/rdock/2013.1/src/exe/rbdock.cxx#4 $)

>  <Rbt.Library>
libRbt.so (2013.1, Build901 2013/11/27)

>  <Rbt.Parameter_File>
/export/apps/rDock/src/rDock_2013.1_src/data/scripts/dock_solv.prm

>  <Rbt.Receptor>
prm/pocket_docking_4.prm

>  <SCORE>
703.171

>  <SCORE.INTER>
696.76

>  <SCORE.INTER.CONST>
1

>  <SCORE.INTER.POLAR>
0

>  <SCORE.INTER.ROT>
7

>  <SCORE.INTER.SOLV>
32.3637

>  <SCORE.INTER.VDW>
445.452

>  <SCORE.INTER.norm>
25.8059

>  <SCORE.INTRA>
0.866049

>  <SCORE.INTRA.DIHEDRAL>
-0.81314

>  <SCORE.INTRA.DIHEDRAL.0>
8.34559

>  <SCORE.INTRA.POLAR>
0

>  <SCORE.INTRA.POLAR.0>
0

>  <SCORE.INTRA.REPUL>
0

>  <SCORE.INTRA.REPUL.0>
0

>  <SCORE.INTRA.SOLV>
0.533088

>  <SCORE.INTRA.SOLV.lig_0>
-48.829

>  <SCORE.INTRA.VDW>
1.00608

>  <SCORE.INTRA.VDW.0>
-1.77092

>  <SCORE.INTRA.norm>
0.0320759

>  <SCORE.RESTR>
5.54463

>  <SCORE.RESTR.CAVITY>
5.54463

>  <SCORE.RESTR.norm>
0.205357

>  <SCORE.SYSTEM>
0

>  <SCORE.SYSTEM.CONST>
0

>  <SCORE.SYSTEM.DIHEDRAL>
0

>  <SCORE.SYSTEM.SOLV>
0

>  <SCORE.SYSTEM.norm>
0

>  <SCORE.heavy>
27

>  <SCORE.norm>
26.0434

>  <RMSD>
2.867

$$$$
ligand
 OpenBabel02271912153D
libRbt.so/2013.1/901 2013/11/27
 27 29  0  0  0  0  0  0  0  0999 V2000
   48.9672  -25.0580 -106.8991 N   0  0  0  0  0  0  0  0  0  0  0  0
   48.8636  -26.5077 -107.0996 C   0  0  2  0  0  0  0  0  0  0  0  0
   47.8140  -26.7985 -108.1515 C   0  0  0  0  0  0  0  0  0  0  0  0
   47.6962  -27.9262 -108.6068 O   0  0  0  0  0  0  0  0  0  0  0  0
   48.4752  -27.2254 -105.7998 C   0  0  0  0  0  0  0  0  0  0  0  0
   49.7132  -27.5982 -104.9965 C   0  0  0  0  0  0  0  0  0  0  0  0
   49.3644  -28.7657 -103.6258 S   0  0  2  0  0  0  0  0  0  0  0  0
   48.5772  -27.7262 -102.3532 C   0  0  0  0  0  0  0  0  0  0  0  0
   51.0352  -28.7853 -102.9801 C   0  0  0  0  0  0  0  0  0  0  0  0
   51.2711  -29.8501 -101.9421 C   0  0  1  0  0  0  0  0  0  0  0  0
   50.1555  -29.8371 -101.0353 O   0  0  0  0  0  0  0  0  0  0  0  0
   51.1609  -31.0964 -102.7247 C   0  0  1  0  0  0  0  0  0  0  0  0
   52.4639  -31.5540 -103.0828 O   0  0  0  0  0  0  0  0  0  0  0  0
   50.5395  -32.0405 -101.7425 C   0  0  1  0  0  0  0  0  0  0  0  0
   51.5592  -32.6811 -100.9480 O   0  0  0  0  0  0  0  0  0  0  0  0
   49.6256  -31.1706 -100.8282 C   0  0  2  0  0  0  0  0  0  0  0  0
   47.0579  -25.9201 -108.5277 O   0  0  0  0  0  0  0  0  0  0  0  0
   44.7753  -29.2044  -99.9296 N   0  0  0  0  0  0  0  0  0  0  0  0
   45.9071  -28.9718  -99.2205 C   0  0  0  0  0  0  0  0  0  0  0  0
   47.0932  -29.5042  -99.5818 N   0  0  0  0  0  0  0  0  0  0  0  0
   47.1738  -30.3602 -100.6134 C   0  0  0  0  0  0  0  0  0  0  0  0
   45.9853  -30.6688 -101.3716 C   0  0  0  0  0  0  0  0  0  0  0  0
   44.7628  -30.0406 -100.9892 C   0  0  0  0  0  0  0  0  0  0  0  0
   43.5909  -30.2832 -101.6767 N   0  0  0  0  0  0  0  0  0  0  0  0
   46.3362  -31.5383 -102.3264 N   0  0  0  0  0  0  0  0  0  0  0  0
   47.6063  -31.7931 -102.2191 C   0  0  0  0  0  0  0  0  0  0  0  0
   48.1790  -31.0900 -101.1851 N   0  0  0  0  0  0  0  0  0  0  0  0
  2  1  1  1  0  0  0
  2  3  1  0  0  0  0
  2  5  1  0  0  0  0
  3  4  1  0  0  0  0
  3 17  1  0  0  0  0
  5  6  1  0  0  0  0
  7  6  1  6  0  0  0
  7  8  1  0  0  0  0
  7  9  1  0  0  0  0
 10  9  1  6  0  0  0
 10 11  1  0  0  0  0
 10 12  1  0  0  0  0
 11 16  1  0  0  0  0
 12 13  1  1  0  0  0
 12 14  1  0  0  0  0
 14 15  1  1  0  0  0
 14 16  1  0  0  0  0
 16 27  1  6  0  0  0
 18 19  2  0  0  0  0
 18 23  1  0  0  0  0
 19 20  1  0  0  0  0
 20 21  2  0  0  0  0
 21 22  1  0  0  0  0
 21 27  1  0  0  0  0
 22 23  2  0  0  0  0
 22 25  1  0  0  0  0
 23 24  1  0  0  0  0
 25 26  2  0  0  0  0
 26 27  1  0  0  0  0
M  END
>  <CHROM.1>
169.79442031,-88.87145150,-167.52291830,-75.85390609,-169.54225375,-44.64224849
-62.94020612,48.47605237,-29.35704252,-103.07423713,1.53855075,0.24374207
-0.99378500

>  <Name>
ligand

>  <RI>
0

>  <Rbt.Current_Directory>
/home/itssahil/PROJECTS/Mol_Feturizer/Test_systems_manuscript/rnas/4l81

>  <Rbt.Executable>
rbdock ($Id: //depot/dev/client3/rdock/2013.1/src/exe/rbdock.cxx#4 $)

>  <Rbt.Library>
libRbt.so (2013.1, Build901 2013/11/27)

>  <Rbt.Parameter_File>
/export/apps/rDock/src/rDock_2013.1_src/data/scripts/dock_solv.prm

>  <Rbt.Receptor>
prm/pocket_docking_4.prm

>  <SCORE>
-15.5532

>  <SCORE.INTER>
-14.1021

>  <SCORE.INTER.CONST>
1

>  <SCORE.INTER.POLAR>
0

>  <SCORE.INTER.ROT>
7

>  <SCORE.INTER.SOLV>
16.5752

>  <SCORE.INTER.VDW>
-23.1931

>  <SCORE.INTER.norm>
-0.522299

>  <SCORE.INTRA>
-1.45793

>  <SCORE.INTRA.DIHEDRAL>
0.0348416

>  <SCORE.INTRA.DIHEDRAL.0>
8.34559

>  <SCORE.INTRA.POLAR>
0

>  <SCORE.INTRA.POLAR.0>
0

>  <SCORE.INTRA.REPUL>
0

>  <SCORE.INTRA.REPUL.0>
0

>  <SCORE.INTRA.SOLV>
-0.550752

>  <SCORE.INTRA.SOLV.lig_0>
-48.829

>  <SCORE.INTRA.VDW>
-1.19998

>  <SCORE.INTRA.VDW.0>
-1.77092

>  <SCORE.INTRA.norm>
-0.0539975

>  <SCORE.RESTR>
0.00678537

>  <SCORE.RESTR.CAVITY>
0.00678537

>  <SCORE.RESTR.norm>
0.00025131

>  <SCORE.SYSTEM>
0

>  <SCORE.SYSTEM.CONST>
0

>  <SCORE.SYSTEM.DIHEDRAL>
0

>  <SCORE.SYSTEM.SOLV>
0

>  <SCORE.SYSTEM.norm>
0

>  <SCORE.heavy>
27

>  <SCORE.norm>
-0.576045

>  <RMSD>
3.031

$$$$
ligand
 OpenBabel02271912153D
libRbt.so/2013.1/901 2013/11/27
 27 29  0  0  0  0  0  0  0  0999 V2000
   47.0022  -26.2424 -105.5640 N   0  0  0  0  0  0  0  0  0  0  0  0
   46.0658  -26.9490 -104.6828 C   0  0  2  0  0  0  0  0  0  0  0  0
   44.6470  -26.7010 -105.1502 C   0  0  0  0  0  0  0  0  0  0  0  0
   44.3486  -25.6362 -105.6698 O   0  0  0  0  0  0  0  0  0  0  0  0
   46.1992  -26.4742 -103.2295 C   0  0  0  0  0  0  0  0  0  0  0  0
   47.5266  -26.9215 -102.6337 C   0  0  0  0  0  0  0  0  0  0  0  0
   47.7133  -28.7446 -102.5648 S   0  0  2  0  0  0  0  0  0  0  0  0
   46.5036  -29.2627 -101.3048 C   0  0  0  0  0  0  0  0  0  0  0  0
   49.1897  -28.7335 -101.5504 C   0  0  0  0  0  0  0  0  0  0  0  0
   49.9791  -30.0139 -101.6154 C   0  0  1  0  0  0  0  0  0  0  0  0
   49.0480  -31.0993 -101.7632 O   0  0  0  0  0  0  0  0  0  0  0  0
   50.6895  -29.8924 -102.9031 C   0  0  1  0  0  0  0  0  0  0  0  0
   52.0152  -29.4168 -102.6760 O   0  0  0  0  0  0  0  0  0  0  0  0
   50.7302  -31.3097 -103.3845 C   0  0  1  0  0  0  0  0  0  0  0  0
   51.8910  -31.9854 -102.8578 O   0  0  0  0  0  0  0  0  0  0  0  0
   49.4344  -31.9854 -102.8437 C   0  0  2  0  0  0  0  0  0  0  0  0
   43.8011  -27.5715 -105.0426 O   0  0  0  0  0  0  0  0  0  0  0  0
   46.8603  -30.1902 -107.1273 N   0  0  0  0  0  0  0  0  0  0  0  0
   48.0315  -29.7380 -106.6156 C   0  0  0  0  0  0  0  0  0  0  0  0
   48.6045  -30.3134 -105.5379 N   0  0  0  0  0  0  0  0  0  0  0  0
   47.9827  -31.3048 -104.8792 C   0  0  0  0  0  0  0  0  0  0  0  0
   46.7135  -31.7903 -105.3650 C   0  0  0  0  0  0  0  0  0  0  0  0
   46.1703  -31.1906 -106.5400 C   0  0  0  0  0  0  0  0  0  0  0  0
   44.9656  -31.6130 -107.0644 N   0  0  0  0  0  0  0  0  0  0  0  0
   46.3143  -32.7615 -104.5355 N   0  0  0  0  0  0  0  0  0  0  0  0
   47.2023  -32.9069 -103.5975 C   0  0  0  0  0  0  0  0  0  0  0  0
   48.2584  -32.0411 -103.7603 N   0  0  0  0  0  0  0  0  0  0  0  0
  2  1  1  6  0  0  0
  2  3  1  0  0  0  0
  2  5  1  0  0  0  0
  3  4  1  0  0  0  0
  3 17  1  0  0  0  0
  5  6  1  0  0  0  0
  7  6  1  1  0  0  0
  7  8  1  0  0  0  0
  7  9  1  0  0  0  0
 10  9  1  6  0  0  0
 10 11  1  0  0  0  0
 10 12  1  0  0  0  0
 11 16  1  0  0  0  0
 12 13  1  1  0  0  0
 12 14  1  0  0  0  0
 14 15  1  1  0  0  0
 14 16  1  0  0  0  0
 16 27  1  6  0  0  0
 18 19  2  0  0  0  0
 18 23  1  0  0  0  0
 19 20  1  0  0  0  0
 20 21  2  0  0  0  0
 21 22  1  0  0  0  0
 21 27  1  0  0  0  0
 22 23  2  0  0  0  0
 22 25  1  0  0  0  0
 23 24  1  0  0  0  0
 25 26  2  0  0  0  0
 26 27  1  0  0  0  0
M  END
>  <CHROM.1>
-32.51876077,-69.17774258,-61.93658006,-68.95349902,-160.24492075,-34.24305203
94.14772965,47.71693768,-29.64003005,-103.97426526,-2.80567108,0.66000053
-2.69177115

>  <Name>
ligand

>  <RI>
0

>  <Rbt.Current_Directory>
/home/itssahil/PROJECTS/Mol_Feturizer/Test_systems_manuscript/rnas/4l81

>  <Rbt.Executable>
rbdock ($Id: //depot/dev/client3/rdock/2013.1/src/exe/rbdock.cxx#4 $)

>  <Rbt.Library>
libRbt.so (2013.1, Build901 2013/11/27)

>  <Rbt.Parameter_File>
/export/apps/rDock/src/rDock_2013.1_src/data/scripts/dock_solv.prm

>  <Rbt.Receptor>
prm/pocket_docking_4.prm

>  <SCORE>
-10.4836

>  <SCORE.INTER>
-7.40418

>  <SCORE.INTER.CONST>
1

>  <SCORE.INTER.POLAR>
0

>  <SCORE.INTER.ROT>
7

>  <SCORE.INTER.SOLV>
15.5612

>  <SCORE.INTER.VDW>
-18.3898

>  <SCORE.INTER.norm>
-0.274229

>  <SCORE.INTRA>
-3.0847

>  <SCORE.INTRA.DIHEDRAL>
-0.779459

>  <SCORE.INTRA.DIHEDRAL.0>
8.34559

>  <SCORE.INTRA.POLAR>
0

>  <SCORE.INTRA.POLAR.0>
0

>  <SCORE.INTRA.REPUL>
0

>  <SCORE.INTRA.REPUL.0>
0

>  <SCORE.INTRA.SOLV>
0.280156

>  <SCORE.INTRA.SOLV.lig_0>
-48.829

>  <SCORE.INTRA.VDW>
-2.83505

>  <SCORE.INTRA.VDW.0>
-1.77092

>  <SCORE.INTRA.norm>
-0.114248

>  <SCORE.RESTR>
0.00526921

>  <SCORE.RESTR.CAVITY>
0.00526921

>  <SCORE.RESTR.norm>
0.000195156

>  <SCORE.SYSTEM>
0

>  <SCORE.SYSTEM.CONST>
0

>  <SCORE.SYSTEM.DIHEDRAL>
0

>  <SCORE.SYSTEM.SOLV>
0

>  <SCORE.SYSTEM.norm>
0

>  <SCORE.heavy>
27

>  <SCORE.norm>
-0.388282

>  <RMSD>
3.367

$$$$
ligand
 OpenBabel02271912153D
libRbt.so/2013.1/901 2013/11/27
 27 29  0  0  0  0  0  0  0  0999 V2000
   45.8914  -26.5172 -106.9179 N   0  0  0  0  0  0  0  0  0  0  0  0
   45.8853  -27.8673 -106.3436 C   0  0  2  0  0  0  0  0  0  0  0  0
   44.6737  -28.0309 -105.4504 C   0  0  0  0  0  0  0  0  0  0  0  0
   44.0810  -29.0985 -105.4082 O   0  0  0  0  0  0  0  0  0  0  0  0
   47.1508  -28.1282 -105.5155 C   0  0  0  0  0  0  0  0  0  0  0  0
   47.2485  -29.5959 -105.1240 C   0  0  0  0  0  0  0  0  0  0  0  0
   47.5180  -30.7120 -106.5540 S   0  0  2  0  0  0  0  0  0  0  0  0
   45.8363  -31.2185 -107.0388 C   0  0  0  0  0  0  0  0  0  0  0  0
   47.9734  -32.1436 -105.5784 C   0  0  0  0  0  0  0  0  0  0  0  0
   49.4298  -32.1793 -105.1983 C   0  0  1  0  0  0  0  0  0  0  0  0
   49.6976  -31.0356 -104.3693 O   0  0  0  0  0  0  0  0  0  0  0  0
   49.5070  -33.3619 -104.3190 C   0  0  1  0  0  0  0  0  0  0  0  0
   49.9652  -34.4866 -105.0677 O   0  0  0  0  0  0  0  0  0  0  0  0
   50.5460  -32.9548 -103.3206 C   0  0  1  0  0  0  0  0  0  0  0  0
   51.8643  -33.2837 -103.8056 O   0  0  0  0  0  0  0  0  0  0  0  0
   50.4105  -31.4104 -103.1637 C   0  0  2  0  0  0  0  0  0  0  0  0
   44.3005  -27.1117 -104.7428 O   0  0  0  0  0  0  0  0  0  0  0  0
   45.6520  -30.7225 -100.9095 N   0  0  0  0  0  0  0  0  0  0  0  0
   45.9234  -31.2746 -102.1176 C   0  0  0  0  0  0  0  0  0  0  0  0
   47.1892  -31.4299 -102.5588 N   0  0  0  0  0  0  0  0  0  0  0  0
   48.2254  -30.9578 -101.8467 C   0  0  0  0  0  0  0  0  0  0  0  0
   47.9794  -30.3256 -100.5730 C   0  0  0  0  0  0  0  0  0  0  0  0
   46.6302  -30.2318 -100.1192 C   0  0  0  0  0  0  0  0  0  0  0  0
   46.3246  -29.6482  -98.9065 N   0  0  0  0  0  0  0  0  0  0  0  0
   49.1647  -29.9464 -100.0808 N   0  0  0  0  0  0  0  0  0  0  0  0
   50.0968  -30.2744 -100.9252 C   0  0  0  0  0  0  0  0  0  0  0  0
   49.5795  -30.9083 -102.0307 N   0  0  0  0  0  0  0  0  0  0  0  0
  2  1  1  1  0  0  0
  2  3  1  0  0  0  0
  2  5  1  0  0  0  0
  3  4  1  0  0  0  0
  3 17  1  0  0  0  0
  5  6  1  0  0  0  0
  7  6  1  1  0  0  0
  7  8  1  0  0  0  0
  7  9  1  0  0  0  0
 10  9  1  1  0  0  0
 10 11  1  0  0  0  0
 10 12  1  0  0  0  0
 11 16  1  0  0  0  0
 12 13  1  6  0  0  0
 12 14  1  0  0  0  0
 14 15  1  6  0  0  0
 14 16  1  0  0  0  0
 16 27  1  1  0  0  0
 18 19  2  0  0  0  0
 18 23  1  0  0  0  0
 19 20  1  0  0  0  0
 20 21  2  0  0  0  0
 21 22  1  0  0  0  0
 21 27  1  0  0  0  0
 22 23  2  0  0  0  0
 22 25  1  0  0  0  0
 23 24  1  0  0  0  0
 25 26  2  0  0  0  0
 26 27  1  0  0  0  0
M  END
>  <CHROM.1>
143.12065287,-170.37228862,66.89817837,-92.89693143,-84.95311242,62.83303244
43.10552467,47.71936688,-30.56948919,-103.84470968,-2.69711324,-0.73386395
1.50386895

>  <Name>
ligand

>  <RI>
0

>  <Rbt.Current_Directory>
/home/itssahil/PROJECTS/Mol_Feturizer/Test_systems_manuscript/rnas/4l81

>  <Rbt.Executable>
rbdock ($Id: //depot/dev/client3/rdock/2013.1/src/exe/rbdock.cxx#4 $)

>  <Rbt.Library>
libRbt.so (2013.1, Build901 2013/11/27)

>  <Rbt.Parameter_File>
/export/apps/rDock/src/rDock_2013.1_src/data/scripts/dock_solv.prm

>  <Rbt.Receptor>
prm/pocket_docking_6.prm

>  <SCORE>
-13.0304

>  <SCORE.INTER>
-8.71918

>  <SCORE.INTER.CONST>
1

>  <SCORE.INTER.POLAR>
0

>  <SCORE.INTER.ROT>
7

>  <SCORE.INTER.SOLV>
20.7231

>  <SCORE.INTER.VDW>
-20.9872

>  <SCORE.INTER.norm>
-0.322933

>  <SCORE.INTRA>
-4.31121

>  <SCORE.INTRA.DIHEDRAL>
-2.31704

>  <SCORE.INTRA.DIHEDRAL.0>
8.34559

>  <SCORE.INTRA.POLAR>
0

>  <SCORE.INTRA.POLAR.0>
0

>  <SCORE.INTRA.REPUL>
0

>  <SCORE.INTRA.REPUL.0>
0

>  <SCORE.INTRA.SOLV>
-0.951306

>  <SCORE.INTRA.SOLV.lig_0>
-48.829

>  <SCORE.INTRA.VDW>
-2.67704

>  <SCORE.INTRA.VDW.0>
-1.77092

>  <SCORE.INTRA.norm>
-0.159675

>  <SCORE.RESTR>
0

>  <SCORE.RESTR.CAVITY>
0

>  <SCORE.RESTR.norm>
0

>  <SCORE.SYSTEM>
0

>  <SCORE.SYSTEM.CONST>
0

>  <SCORE.SYSTEM.DIHEDRAL>
0

>  <SCORE.SYSTEM.SOLV>
0

>  <SCORE.SYSTEM.norm>
0

>  <SCORE.heavy>
27

>  <SCORE.norm>
-0.482607

>  <RMSD>
3.456

$$$$
ligand
 OpenBabel02271912153D
libRbt.so/2013.1/901 2013/11/27
 27 29  0  0  0  0  0  0  0  0999 V2000
   48.7561  -22.8112 -104.9078 N   0  0  0  0  0  0  0  0  0  0  0  0
   50.1156  -22.9805 -104.3827 C   0  0  2  0  0  0  0  0  0  0  0  0
   51.0837  -22.1659 -105.2146 C   0  0  0  0  0  0  0  0  0  0  0  0
   51.8797  -21.4149 -104.6714 O   0  0  0  0  0  0  0  0  0  0  0  0
   50.5488  -24.4524 -104.4172 C   0  0  0  0  0  0  0  0  0  0  0  0
   49.7811  -25.2670 -103.3857 C   0  0  0  0  0  0  0  0  0  0  0  0
   50.4478  -26.9599 -103.1556 S   0  0  2  0  0  0  0  0  0  0  0  0
   49.9852  -27.8263 -104.6902 C   0  0  0  0  0  0  0  0  0  0  0  0
   49.1198  -27.5313 -102.0979 C   0  0  0  0  0  0  0  0  0  0  0  0
   49.5510  -28.5590 -101.0856 C   0  0  1  0  0  0  0  0  0  0  0  0
   48.4418  -28.8025 -100.2040 O   0  0  0  0  0  0  0  0  0  0  0  0
   49.7099  -29.7755 -101.9056 C   0  0  1  0  0  0  0  0  0  0  0  0
   51.0844  -29.9469 -102.2474 O   0  0  0  0  0  0  0  0  0  0  0  0
   49.2783  -30.8577 -100.9650 C   0  0  1  0  0  0  0  0  0  0  0  0
   50.3942  -31.3030 -100.1664 O   0  0  0  0  0  0  0  0  0  0  0  0
   48.1915  -30.2219 -100.0470 C   0  0  2  0  0  0  0  0  0  0  0  0
   51.0993  -22.2773 -106.4280 O   0  0  0  0  0  0  0  0  0  0  0  0
   44.5767  -32.2564 -103.3624 N   0  0  0  0  0  0  0  0  0  0  0  0
   45.9266  -32.3229 -103.4679 C   0  0  0  0  0  0  0  0  0  0  0  0
   46.7390  -31.7962 -102.5278 N   0  0  0  0  0  0  0  0  0  0  0  0
   46.2319  -31.1060 -101.4934 C   0  0  0  0  0  0  0  0  0  0  0  0
   44.8007  -30.9748 -101.3636 C   0  0  0  0  0  0  0  0  0  0  0  0
   43.9772  -31.5945 -102.3501 C   0  0  0  0  0  0  0  0  0  0  0  0
   42.6010  -31.5168 -102.2816 N   0  0  0  0  0  0  0  0  0  0  0  0
   44.5651  -30.2466 -100.2659 N   0  0  0  0  0  0  0  0  0  0  0  0
   45.7007  -29.9178  -99.7258 C   0  0  0  0  0  0  0  0  0  0  0  0
   46.7649  -30.4255 -100.4338 N   0  0  0  0  0  0  0  0  0  0  0  0
  2  1  1  6  0  0  0
  2  3  1  0  0  0  0
  2  5  1  0  0  0  0
  3  4  1  0  0  0  0
  3 17  1  0  0  0  0
  5  6  1  0  0  0  0
  7  6  1  6  0  0  0
  7  8  1  0  0  0  0
  7  9  1  0  0  0  0
 10  9  1  6  0  0  0
 10 11  1  0  0  0  0
 10 12  1  0  0  0  0
 11 16  1  0  0  0  0
 12 13  1  1  0  0  0
 12 14  1  0  0  0  0
 14 15  1  1  0  0  0
 14 16  1  0  0  0  0
 16 27  1  6  0  0  0
 18 19  2  0  0  0  0
 18 23  1  0  0  0  0
 19 20  1  0  0  0  0
 20 21  2  0  0  0  0
 21 22  1  0  0  0  0
 21 27  1  0  0  0  0
 22 23  2  0  0  0  0
 22 25  1  0  0  0  0
 23 24  1  0  0  0  0
 25 26  2  0  0  0  0
 26 27  1  0  0  0  0
M  END
>  <CHROM.1>
130.02889049,-70.35765127,-169.65212613,-71.44854442,-148.74261048,172.89614288
113.71451481,48.41183000,-28.19562936,-102.55075620,1.02781206,-0.25532007
-0.54034988

>  <Name>
ligand

>  <RI>
0

>  <Rbt.Current_Directory>
/home/itssahil/PROJECTS/Mol_Feturizer/Test_systems_manuscript/rnas/4l81

>  <Rbt.Executable>
rbdock ($Id: //depot/dev/client3/rdock/2013.1/src/exe/rbdock.cxx#4 $)

>  <Rbt.Library>
libRbt.so (2013.1, Build901 2013/11/27)

>  <Rbt.Parameter_File>
/export/apps/rDock/src/rDock_2013.1_src/data/scripts/dock_solv.prm

>  <Rbt.Receptor>
prm/pocket_docking_7.prm

>  <SCORE>
-18.9458

>  <SCORE.INTER>
-17.3804

>  <SCORE.INTER.CONST>
1

>  <SCORE.INTER.POLAR>
0

>  <SCORE.INTER.ROT>
7

>  <SCORE.INTER.SOLV>
18.6118

>  <SCORE.INTER.VDW>
-26.0576

>  <SCORE.INTER.norm>
-0.64372

>  <SCORE.INTRA>
-1.56532

>  <SCORE.INTRA.DIHEDRAL>
-0.932763

>  <SCORE.INTRA.DIHEDRAL.0>
8.34559

>  <SCORE.INTRA.POLAR>
0

>  <SCORE.INTRA.POLAR.0>
0

>  <SCORE.INTRA.REPUL>
0

>  <SCORE.INTRA.REPUL.0>
0

>  <SCORE.INTRA.SOLV>
-0.446949

>  <SCORE.INTRA.SOLV.lig_0>
-48.829

>  <SCORE.INTRA.VDW>
-0.875467

>  <SCORE.INTRA.VDW.0>
-1.77092

>  <SCORE.INTRA.norm>
-0.0579749

>  <SCORE.RESTR>
0

>  <SCORE.RESTR.CAVITY>
0

>  <SCORE.RESTR.norm>
0

>  <SCORE.SYSTEM>
0

>  <SCORE.SYSTEM.CONST>
0

>  <SCORE.SYSTEM.DIHEDRAL>
0

>  <SCORE.SYSTEM.SOLV>
0

>  <SCORE.SYSTEM.norm>
0

>  <SCORE.heavy>
27

>  <SCORE.norm>
-0.701695

>  <RMSD>
3.577

$$$$
ligand
 OpenBabel02271912153D
libRbt.so/2013.1/901 2013/11/27
 27 29  0  0  0  0  0  0  0  0999 V2000
   49.1002  -22.7904 -104.5426 N   0  0  0  0  0  0  0  0  0  0  0  0
   50.5326  -23.1056 -104.5827 C   0  0  2  0  0  0  0  0  0  0  0  0
   51.2407  -22.1240 -105.4925 C   0  0  0  0  0  0  0  0  0  0  0  0
   51.0710  -22.1743 -106.7014 O   0  0  0  0  0  0  0  0  0  0  0  0
   50.7775  -24.5288 -105.1022 C   0  0  0  0  0  0  0  0  0  0  0  0
   50.1616  -25.5598 -104.1670 C   0  0  0  0  0  0  0  0  0  0  0  0
   50.2218  -27.2686 -104.8303 S   0  0  2  0  0  0  0  0  0  0  0  0
   49.2093  -27.1883 -106.3430 C   0  0  0  0  0  0  0  0  0  0  0  0
   48.9978  -27.9382 -103.7069 C   0  0  0  0  0  0  0  0  0  0  0  0
   49.5563  -28.3262 -102.3636 C   0  0  1  0  0  0  0  0  0  0  0  0
   48.5248  -28.1262 -101.3824 O   0  0  0  0  0  0  0  0  0  0  0  0
   49.7332  -29.7854 -102.4948 C   0  0  1  0  0  0  0  0  0  0  0  0
   51.0897  -30.0756 -102.8279 O   0  0  0  0  0  0  0  0  0  0  0  0
   49.4309  -30.2730 -101.1117 C   0  0  1  0  0  0  0  0  0  0  0  0
   50.6221  -30.2458 -100.2984 O   0  0  0  0  0  0  0  0  0  0  0  0
   48.3713  -29.2894 -100.5305 C   0  0  2  0  0  0  0  0  0  0  0  0
   51.9579  -21.2567 -105.0252 O   0  0  0  0  0  0  0  0  0  0  0  0
   44.5550  -32.1027 -102.9220 N   0  0  0  0  0  0  0  0  0  0  0  0
   45.8698  -32.0472 -103.2477 C   0  0  0  0  0  0  0  0  0  0  0  0
   46.7495  -31.3203 -102.5276 N   0  0  0  0  0  0  0  0  0  0  0  0
   46.3309  -30.5517 -101.5090 C   0  0  0  0  0  0  0  0  0  0  0  0
   44.9324  -30.5482 -101.1531 C   0  0  0  0  0  0  0  0  0  0  0  0
   44.0458  -31.3742 -101.9061 C   0  0  0  0  0  0  0  0  0  0  0  0
   42.6981  -31.4262 -101.6133 N   0  0  0  0  0  0  0  0  0  0  0  0
   44.7852  -29.7064 -100.1234 N   0  0  0  0  0  0  0  0  0  0  0  0
   45.9432  -29.1959  -99.8267 C   0  0  0  0  0  0  0  0  0  0  0  0
   46.9369  -29.6849 -100.6421 N   0  0  0  0  0  0  0  0  0  0  0  0
  2  1  1  6  0  0  0
  2  3  1  0  0  0  0
  2  5  1  0  0  0  0
  3  4  1  0  0  0  0
  3 17  1  0  0  0  0
  5  6  1  0  0  0  0
  7  6  1  1  0  0  0
  7  8  1  0  0  0  0
  7  9  1  0  0  0  0
 10  9  1  6  0  0  0
 10 11  1  0  0  0  0
 10 12  1  0  0  0  0
 11 16  1  0  0  0  0
 12 13  1  1  0  0  0
 12 14  1  0  0  0  0
 14 15  1  1  0  0  0
 14 16  1  0  0  0  0
 16 27  1  6  0  0  0
 18 19  2  0  0  0  0
 18 23  1  0  0  0  0
 19 20  1  0  0  0  0
 20 21  2  0  0  0  0
 21 22  1  0  0  0  0
 21 27  1  0  0  0  0
 22 23  2  0  0  0  0
 22 25  1  0  0  0  0
 23 24  1  0  0  0  0
 25 26  2  0  0  0  0
 26 27  1  0  0  0  0
M  END
>  <CHROM.1>
-70.83263783,-62.95389364,172.48447257,-62.58404835,-83.05108912,148.49569728
90.72493612,48.47109148,-27.95245803,-102.99029987,1.02207158,-0.06744619
-0.51250654

>  <Name>
ligand

>  <RI>
0

>  <Rbt.Current_Directory>
/home/itssahil/PROJECTS/Mol_Feturizer/Test_systems_manuscript/rnas/4l81

>  <Rbt.Executable>
rbdock ($Id: //depot/dev/client3/rdock/2013.1/src/exe/rbdock.cxx#4 $)

>  <Rbt.Library>
libRbt.so (2013.1, Build901 2013/11/27)

>  <Rbt.Parameter_File>
/export/apps/rDock/src/rDock_2013.1_src/data/scripts/dock_solv.prm

>  <Rbt.Receptor>
prm/pocket_docking_7.prm

>  <SCORE>
-17.8283

>  <SCORE.INTER>
-15.9893

>  <SCORE.INTER.CONST>
1

>  <SCORE.INTER.POLAR>
0

>  <SCORE.INTER.ROT>
7

>  <SCORE.INTER.SOLV>
17.1234

>  <SCORE.INTER.VDW>
-24.634

>  <SCORE.INTER.norm>
-0.592196

>  <SCORE.INTRA>
-1.83898

>  <SCORE.INTRA.DIHEDRAL>
-1.39167

>  <SCORE.INTRA.DIHEDRAL.0>
8.34559

>  <SCORE.INTRA.POLAR>
0

>  <SCORE.INTRA.POLAR.0>
0

>  <SCORE.INTRA.REPUL>
0

>  <SCORE.INTRA.REPUL.0>
0

>  <SCORE.INTRA.SOLV>
-0.540681

>  <SCORE.INTRA.SOLV.lig_0>
-48.829

>  <SCORE.INTRA.VDW>
-0.872806

>  <SCORE.INTRA.VDW.0>
-1.77092

>  <SCORE.INTRA.norm>
-0.0681104

>  <SCORE.RESTR>
0

>  <SCORE.RESTR.CAVITY>
0

>  <SCORE.RESTR.norm>
0

>  <SCORE.SYSTEM>
0

>  <SCORE.SYSTEM.CONST>
0

>  <SCORE.SYSTEM.DIHEDRAL>
0

>  <SCORE.SYSTEM.SOLV>
0

>  <SCORE.SYSTEM.norm>
0

>  <SCORE.heavy>
27

>  <SCORE.norm>
-0.660307

>  <RMSD>
3.599

$$$$
ligand
 OpenBabel02271912153D
libRbt.so/2013.1/901 2013/11/27
 27 29  0  0  0  0  0  0  0  0999 V2000
   45.8600  -25.0210 -107.0005 N   0  0  0  0  0  0  0  0  0  0  0  0
   46.0735  -26.1276 -106.0611 C   0  0  2  0  0  0  0  0  0  0  0  0
   44.7348  -26.6667 -105.6028 C   0  0  0  0  0  0  0  0  0  0  0  0
   44.6117  -27.8498 -105.3238 O   0  0  0  0  0  0  0  0  0  0  0  0
   46.8716  -25.6715 -104.8321 C   0  0  0  0  0  0  0  0  0  0  0  0
   47.1716  -26.8482 -103.9143 C   0  0  0  0  0  0  0  0  0  0  0  0
   48.1664  -26.3866 -102.4444 S   0  0  2  0  0  0  0  0  0  0  0  0
   49.8677  -26.2674 -103.0853 C   0  0  0  0  0  0  0  0  0  0  0  0
   48.2400  -28.0380 -101.7543 C   0  0  0  0  0  0  0  0  0  0  0  0
   46.8964  -28.5889 -101.3565 C   0  0  1  0  0  0  0  0  0  0  0  0
   46.3299  -29.2424 -102.5049 O   0  0  0  0  0  0  0  0  0  0  0  0
   47.2528  -29.6550 -100.4005 C   0  0  1  0  0  0  0  0  0  0  0  0
   47.1313  -29.1630  -99.0669 O   0  0  0  0  0  0  0  0  0  0  0  0
   46.2011  -30.6882 -100.6621 C   0  0  1  0  0  0  0  0  0  0  0  0
   45.0288  -30.4243  -99.8636 O   0  0  0  0  0  0  0  0  0  0  0  0
   45.8479  -30.5694 -102.1751 C   0  0  2  0  0  0  0  0  0  0  0  0
   43.7798  -25.9203 -105.4768 O   0  0  0  0  0  0  0  0  0  0  0  0
   46.5070  -32.4978 -107.0787 N   0  0  0  0  0  0  0  0  0  0  0  0
   45.6096  -31.5681 -106.6687 C   0  0  0  0  0  0  0  0  0  0  0  0
   45.5734  -31.1305 -105.3927 N   0  0  0  0  0  0  0  0  0  0  0  0
   46.3742  -31.6717 -104.4603 C   0  0  0  0  0  0  0  0  0  0  0  0
   47.3172  -32.6943 -104.8443 C   0  0  0  0  0  0  0  0  0  0  0  0
   47.3601  -33.0879 -106.2149 C   0  0  0  0  0  0  0  0  0  0  0  0
   48.2443  -34.0530 -106.6524 N   0  0  0  0  0  0  0  0  0  0  0  0
   47.9787  -33.0613 -103.7403 N   0  0  0  0  0  0  0  0  0  0  0  0
   47.5292  -32.3759 -102.7315 C   0  0  0  0  0  0  0  0  0  0  0  0
   46.5434  -31.4966 -103.1147 N   0  0  0  0  0  0  0  0  0  0  0  0
  2  1  1  6  0  0  0
  2  3  1  0  0  0  0
  2  5  1  0  0  0  0
  3  4  1  0  0  0  0
  3 17  1  0  0  0  0
  5  6  1  0  0  0  0
  7  6  1  6  0  0  0
  7  8  1  0  0  0  0
  7  9  1  0  0  0  0
 10  9  1  6  0  0  0
 10 11  1  0  0  0  0
 10 12  1  0  0  0  0
 11 16  1  0  0  0  0
 12 13  1  1  0  0  0
 12 14  1  0  0  0  0
 14 15  1  1  0  0  0
 14 16  1  0  0  0  0
 16 27  1  6  0  0  0
 18 19  2  0  0  0  0
 18 23  1  0  0  0  0
 19 20  1  0  0  0  0
 20 21  2  0  0  0  0
 21 22  1  0  0  0  0
 21 27  1  0  0  0  0
 22 23  2  0  0  0  0
 22 25  1  0  0  0  0
 23 24  1  0  0  0  0
 25 26  2  0  0  0  0
 26 27  1  0  0  0  0
M  END
>  <CHROM.1>
148.41757125,-175.96071410,178.35648542,-78.74659009,-63.66133509,88.13918523
-71.10986244,46.68760388,-29.27976852,-103.67615070,1.80326069,-1.35564924
0.33012745

>  <Name>
ligand

>  <RI>
0

>  <Rbt.Current_Directory>
/home/itssahil/PROJECTS/Mol_Feturizer/Test_systems_manuscript/rnas/4l81

>  <Rbt.Executable>
rbdock ($Id: //depot/dev/client3/rdock/2013.1/src/exe/rbdock.cxx#4 $)

>  <Rbt.Library>
libRbt.so (2013.1, Build901 2013/11/27)

>  <Rbt.Parameter_File>
/export/apps/rDock/src/rDock_2013.1_src/data/scripts/dock_solv.prm

>  <Rbt.Receptor>
prm/pocket_docking_7.prm

>  <SCORE>
-15.1997

>  <SCORE.INTER>
-12.8717

>  <SCORE.INTER.CONST>
1

>  <SCORE.INTER.POLAR>
0

>  <SCORE.INTER.ROT>
7

>  <SCORE.INTER.SOLV>
13.6682

>  <SCORE.INTER.VDW>
-21.4038

>  <SCORE.INTER.norm>
-0.476729

>  <SCORE.INTRA>
-2.32796

>  <SCORE.INTRA.DIHEDRAL>
-2.49621

>  <SCORE.INTRA.DIHEDRAL.0>
8.34559

>  <SCORE.INTRA.POLAR>
0

>  <SCORE.INTRA.POLAR.0>
0

>  <SCORE.INTRA.REPUL>
0

>  <SCORE.INTRA.REPUL.0>
0

>  <SCORE.INTRA.SOLV>
-1.25368

>  <SCORE.INTRA.SOLV.lig_0>
-48.829

>  <SCORE.INTRA.VDW>
-0.453019

>  <SCORE.INTRA.VDW.0>
-1.77092

>  <SCORE.INTRA.norm>
-0.0862209

>  <SCORE.RESTR>
0

>  <SCORE.RESTR.CAVITY>
0

>  <SCORE.RESTR.norm>
0

>  <SCORE.SYSTEM>
0

>  <SCORE.SYSTEM.CONST>
0

>  <SCORE.SYSTEM.DIHEDRAL>
0

>  <SCORE.SYSTEM.SOLV>
0

>  <SCORE.SYSTEM.norm>
0

>  <SCORE.heavy>
27

>  <SCORE.norm>
-0.56295

>  <RMSD>
3.880

$$$$
ligand
 OpenBabel02271912153D
libRbt.so/2013.1/901 2013/11/27
 27 29  0  0  0  0  0  0  0  0999 V2000
   43.9404  -26.6171 -104.6616 N   0  0  0  0  0  0  0  0  0  0  0  0
   45.0162  -25.9322 -105.3871 C   0  0  2  0  0  0  0  0  0  0  0  0
   45.5833  -26.8584 -106.4423 C   0  0  0  0  0  0  0  0  0  0  0  0
   46.0112  -26.4042 -107.4927 O   0  0  0  0  0  0  0  0  0  0  0  0
   46.1471  -25.5080 -104.4401 C   0  0  0  0  0  0  0  0  0  0  0  0
   46.6800  -26.7038 -103.6636 C   0  0  0  0  0  0  0  0  0  0  0  0
   47.9480  -26.2531 -102.4176 S   0  0  2  0  0  0  0  0  0  0  0  0
   49.4796  -26.0864 -103.3901 C   0  0  0  0  0  0  0  0  0  0  0  0
   48.1869  -27.9168 -101.7980 C   0  0  0  0  0  0  0  0  0  0  0  0
   46.9198  -28.5716 -101.3160 C   0  0  1  0  0  0  0  0  0  0  0  0
   46.4471  -29.4398 -102.3598 O   0  0  0  0  0  0  0  0  0  0  0  0
   47.3997  -29.4460 -100.2284 C   0  0  1  0  0  0  0  0  0  0  0  0
   47.2085  -28.7972  -98.9722 O   0  0  0  0  0  0  0  0  0  0  0  0
   46.4867  -30.6278 -100.3375 C   0  0  1  0  0  0  0  0  0  0  0  0
   45.2852  -30.4064  -99.5703 O   0  0  0  0  0  0  0  0  0  0  0  0
   46.1319  -30.7596 -101.8491 C   0  0  2  0  0  0  0  0  0  0  0  0
   45.6479  -28.0582 -106.2396 O   0  0  0  0  0  0  0  0  0  0  0  0
   50.8420  -32.8593 -103.1159 N   0  0  0  0  0  0  0  0  0  0  0  0
   50.5897  -31.8711 -102.2228 C   0  0  0  0  0  0  0  0  0  0  0  0
   49.3331  -31.4547 -101.9609 N   0  0  0  0  0  0  0  0  0  0  0  0
   48.2906  -31.9496 -102.6479 C   0  0  0  0  0  0  0  0  0  0  0  0
   48.5178  -32.9746 -103.6380 C   0  0  0  0  0  0  0  0  0  0  0  0
   49.8558  -33.4249 -103.8436 C   0  0  0  0  0  0  0  0  0  0  0  0
   50.1429  -34.4090 -104.7676 N   0  0  0  0  0  0  0  0  0  0  0  0
   47.3300  -33.2839 -104.1713 N   0  0  0  0  0  0  0  0  0  0  0  0
   46.4134  -32.5491 -103.6150 C   0  0  0  0  0  0  0  0  0  0  0  0
   46.9441  -31.7115 -102.6618 N   0  0  0  0  0  0  0  0  0  0  0  0
  2  1  1  1  0  0  0
  2  3  1  0  0  0  0
  2  5  1  0  0  0  0
  3  4  1  0  0  0  0
  3 17  1  0  0  0  0
  5  6  1  0  0  0  0
  7  6  1  6  0  0  0
  7  8  1  0  0  0  0
  7  9  1  0  0  0  0
 10  9  1  6  0  0  0
 10 11  1  0  0  0  0
 10 12  1  0  0  0  0
 11 16  1  0  0  0  0
 12 13  1  1  0  0  0
 12 14  1  0  0  0  0
 14 15  1  1  0  0  0
 14 16  1  0  0  0  0
 16 27  1  6  0  0  0
 18 19  2  0  0  0  0
 18 23  1  0  0  0  0
 19 20  1  0  0  0  0
 20 21  2  0  0  0  0
 21 22  1  0  0  0  0
 21 27  1  0  0  0  0
 22 23  2  0  0  0  0
 22 25  1  0  0  0  0
 23 24  1  0  0  0  0
 25 26  2  0  0  0  0
 26 27  1  0  0  0  0
M  END
>  <CHROM.1>
147.55604918,55.60506548,-175.60882667,-80.62592794,-55.87319002,99.40292419
72.21999434,47.34941459,-29.41586506,-103.04393763,-2.95894504,-1.17517391
1.47199450

>  <Name>
ligand

>  <RI>
0

>  <Rbt.Current_Directory>
/home/itssahil/PROJECTS/Mol_Feturizer/Test_systems_manuscript/rnas/4l81

>  <Rbt.Executable>
rbdock ($Id: //depot/dev/client3/rdock/2013.1/src/exe/rbdock.cxx#4 $)

>  <Rbt.Library>
libRbt.so (2013.1, Build901 2013/11/27)

>  <Rbt.Parameter_File>
/export/apps/rDock/src/rDock_2013.1_src/data/scripts/dock_solv.prm

>  <Rbt.Receptor>
prm/pocket_docking_5.prm

>  <SCORE>
-15.1448

>  <SCORE.INTER>
-14.0036

>  <SCORE.INTER.CONST>
1

>  <SCORE.INTER.POLAR>
0

>  <SCORE.INTER.ROT>
7

>  <SCORE.INTER.SOLV>
18.2995

>  <SCORE.INTER.VDW>
-23.7023

>  <SCORE.INTER.norm>
-0.518653

>  <SCORE.INTRA>
-1.14113

>  <SCORE.INTRA.DIHEDRAL>
-0.547796

>  <SCORE.INTRA.DIHEDRAL.0>
8.34559

>  <SCORE.INTRA.POLAR>
0

>  <SCORE.INTRA.POLAR.0>
0

>  <SCORE.INTRA.REPUL>
0

>  <SCORE.INTRA.REPUL.0>
0

>  <SCORE.INTRA.SOLV>
-0.516635

>  <SCORE.INTRA.SOLV.lig_0>
-48.829

>  <SCORE.INTRA.VDW>
-0.608911

>  <SCORE.INTRA.VDW.0>
-1.77092

>  <SCORE.INTRA.norm>
-0.0422639

>  <SCORE.RESTR>
0

>  <SCORE.RESTR.CAVITY>
0

>  <SCORE.RESTR.norm>
0

>  <SCORE.SYSTEM>
0

>  <SCORE.SYSTEM.CONST>
0

>  <SCORE.SYSTEM.DIHEDRAL>
0

>  <SCORE.SYSTEM.SOLV>
0

>  <SCORE.SYSTEM.norm>
0

>  <SCORE.heavy>
27

>  <SCORE.norm>
-0.560917

>  <RMSD>
4.125

$$$$
ligand
 OpenBabel02271912153D
libRbt.so/2013.1/901 2013/11/27
 27 29  0  0  0  0  0  0  0  0999 V2000
   44.9488  -28.3976 -105.1195 N   0  0  0  0  0  0  0  0  0  0  0  0
   44.7365  -26.9844 -104.7870 C   0  0  2  0  0  0  0  0  0  0  0  0
   45.1343  -26.1226 -105.9667 C   0  0  0  0  0  0  0  0  0  0  0  0
   45.7082  -26.6188 -106.9244 O   0  0  0  0  0  0  0  0  0  0  0  0
   45.5664  -26.5668 -103.5655 C   0  0  0  0  0  0  0  0  0  0  0  0
   47.0532  -26.7559 -103.8309 C   0  0  0  0  0  0  0  0  0  0  0  0
   48.1110  -26.2679 -102.4144 S   0  0  2  0  0  0  0  0  0  0  0  0
   49.7693  -26.0861 -103.1468 C   0  0  0  0  0  0  0  0  0  0  0  0
   48.2794  -27.9195 -101.7416 C   0  0  0  0  0  0  0  0  0  0  0  0
   46.9710  -28.5455 -101.3376 C   0  0  1  0  0  0  0  0  0  0  0  0
   46.5427  -29.4030 -102.4091 O   0  0  0  0  0  0  0  0  0  0  0  0
   47.3646  -29.4302 -100.2241 C   0  0  1  0  0  0  0  0  0  0  0  0
   47.1127  -28.7770  -98.9810 O   0  0  0  0  0  0  0  0  0  0  0  0
   46.4334  -30.5912 -100.3894 C   0  0  1  0  0  0  0  0  0  0  0  0
   45.1932  -30.3424  -99.6957 O   0  0  0  0  0  0  0  0  0  0  0  0
   46.1676  -30.7153 -101.9197 C   0  0  2  0  0  0  0  0  0  0  0  0
   44.8567  -24.9362 -105.9852 O   0  0  0  0  0  0  0  0  0  0  0  0
   50.9191  -32.8266 -102.9983 N   0  0  0  0  0  0  0  0  0  0  0  0
   50.6384  -31.8152 -102.1403 C   0  0  0  0  0  0  0  0  0  0  0  0
   49.3734  -31.3977 -101.9247 N   0  0  0  0  0  0  0  0  0  0  0  0
   48.3522  -31.9166 -102.6257 C   0  0  0  0  0  0  0  0  0  0  0  0
   48.6106  -32.9676 -103.5802 C   0  0  0  0  0  0  0  0  0  0  0  0
   49.9555  -33.4170 -103.7366 C   0  0  0  0  0  0  0  0  0  0  0  0
   50.2719  -34.4250 -104.6246 N   0  0  0  0  0  0  0  0  0  0  0  0
   47.4392  -33.2973 -104.1369 N   0  0  0  0  0  0  0  0  0  0  0  0
   46.5047  -32.5518 -103.6266 C   0  0  0  0  0  0  0  0  0  0  0  0
   47.0056  -31.6855 -102.6831 N   0  0  0  0  0  0  0  0  0  0  0  0
  2  1  1  6  0  0  0
  2  3  1  0  0  0  0
  2  5  1  0  0  0  0
  3  4  1  0  0  0  0
  3 17  1  0  0  0  0
  5  6  1  0  0  0  0
  7  6  1  6  0  0  0
  7  8  1  0  0  0  0
  7  9  1  0  0  0  0
 10  9  1  6  0  0  0
 10 11  1  0  0  0  0
 10 12  1  0  0  0  0
 11 16  1  0  0  0  0
 12 13  1  1  0  0  0
 12 14  1  0  0  0  0
 14 15  1  1  0  0  0
 14 16  1  0  0  0  0
 16 27  1  6  0  0  0
 18 19  2  0  0  0  0
 18 23  1  0  0  0  0
 19 20  1  0  0  0  0
 20 21  2  0  0  0  0
 21 22  1  0  0  0  0
 21 27  1  0  0  0  0
 22 23  2  0  0  0  0
 22 25  1  0  0  0  0
 23 24  1  0  0  0  0
 25 26  2  0  0  0  0
 26 27  1  0  0  0  0
M  END
>  <CHROM.1>
-9.07011392,60.39422644,179.70484133,-162.79030699,-60.80210059,97.81907599
69.28878379,47.36126848,-29.39898243,-102.94806408,3.14014659,-1.15060542
1.30734138

>  <Name>
ligand

>  <RI>
0

>  <Rbt.Current_Directory>
/home/itssahil/PROJECTS/Mol_Feturizer/Test_systems_manuscript/rnas/4l81

>  <Rbt.Executable>
rbdock ($Id: //depot/dev/client3/rdock/2013.1/src/exe/rbdock.cxx#4 $)

>  <Rbt.Library>
libRbt.so (2013.1, Build901 2013/11/27)

>  <Rbt.Parameter_File>
/export/apps/rDock/src/rDock_2013.1_src/data/scripts/dock_solv.prm

>  <Rbt.Receptor>
prm/pocket_docking_5.prm

>  <SCORE>
-16.8967

>  <SCORE.INTER>
-16.519

>  <SCORE.INTER.CONST>
1

>  <SCORE.INTER.POLAR>
0

>  <SCORE.INTER.ROT>
7

>  <SCORE.INTER.SOLV>
13.9375

>  <SCORE.INTER.VDW>
-23.9251

>  <SCORE.INTER.norm>
-0.611813

>  <SCORE.INTRA>
-0.377712

>  <SCORE.INTRA.DIHEDRAL>
0.368816

>  <SCORE.INTRA.DIHEDRAL.0>
8.34559

>  <SCORE.INTRA.POLAR>
0

>  <SCORE.INTRA.POLAR.0>
0

>  <SCORE.INTRA.REPUL>
0

>  <SCORE.INTRA.REPUL.0>
0

>  <SCORE.INTRA.SOLV>
0.854873

>  <SCORE.INTRA.SOLV.lig_0>
-48.829

>  <SCORE.INTRA.VDW>
-0.989557

>  <SCORE.INTRA.VDW.0>
-1.77092

>  <SCORE.INTRA.norm>
-0.0139893

>  <SCORE.RESTR>
0

>  <SCORE.RESTR.CAVITY>
0

>  <SCORE.RESTR.norm>
0

>  <SCORE.SYSTEM>
0

>  <SCORE.SYSTEM.CONST>
0

>  <SCORE.SYSTEM.DIHEDRAL>
0

>  <SCORE.SYSTEM.SOLV>
0

>  <SCORE.SYSTEM.norm>
0

>  <SCORE.heavy>
27

>  <SCORE.norm>
-0.625803

>  <RMSD>
4.164

$$$$
ligand
 OpenBabel02271912153D
libRbt.so/2013.1/901 2013/11/27
 27 29  0  0  0  0  0  0  0  0999 V2000
   46.0181  -24.9829 -107.0208 N   0  0  0  0  0  0  0  0  0  0  0  0
   46.1625  -26.0648 -106.0403 C   0  0  2  0  0  0  0  0  0  0  0  0
   44.7929  -26.5793 -105.6503 C   0  0  0  0  0  0  0  0  0  0  0  0
   43.8514  -25.8069 -105.5517 O   0  0  0  0  0  0  0  0  0  0  0  0
   46.8887  -25.5815 -104.7776 C   0  0  0  0  0  0  0  0  0  0  0  0
   47.1587  -26.7423 -103.8307 C   0  0  0  0  0  0  0  0  0  0  0  0
   48.1746  -26.2724 -102.3780 S   0  0  2  0  0  0  0  0  0  0  0  0
   49.8566  -26.0979 -103.0563 C   0  0  0  0  0  0  0  0  0  0  0  0
   48.3095  -27.9299 -101.7123 C   0  0  0  0  0  0  0  0  0  0  0  0
   46.9860  -28.5415 -101.3368 C   0  0  1  0  0  0  0  0  0  0  0  0
   46.5607  -29.3768 -102.4269 O   0  0  0  0  0  0  0  0  0  0  0  0
   47.3496  -29.4483 -100.2308 C   0  0  1  0  0  0  0  0  0  0  0  0
   47.0891  -28.8094  -98.9820 O   0  0  0  0  0  0  0  0  0  0  0  0
   46.4035  -30.5923 -100.4269 C   0  0  1  0  0  0  0  0  0  0  0  0
   45.1570  -30.3348  -99.7478 O   0  0  0  0  0  0  0  0  0  0  0  0
   46.1586  -30.6901 -101.9626 C   0  0  2  0  0  0  0  0  0  0  0  0
   44.6112  -27.7699 -105.4645 O   0  0  0  0  0  0  0  0  0  0  0  0
   50.8989  -32.8330 -103.0281 N   0  0  0  0  0  0  0  0  0  0  0  0
   50.6214  -31.8254 -102.1646 C   0  0  0  0  0  0  0  0  0  0  0  0
   49.3587  -31.3990 -101.9534 N   0  0  0  0  0  0  0  0  0  0  0  0
   48.3374  -31.9045 -102.6641 C   0  0  0  0  0  0  0  0  0  0  0  0
   48.5928  -32.9508 -103.6246 C   0  0  0  0  0  0  0  0  0  0  0  0
   49.9350  -33.4102 -103.7762 C   0  0  0  0  0  0  0  0  0  0  0  0
   50.2483  -34.4146 -104.6694 N   0  0  0  0  0  0  0  0  0  0  0  0
   47.4221  -33.2669 -104.1905 N   0  0  0  0  0  0  0  0  0  0  0  0
   46.4907  -32.5173 -103.6804 C   0  0  0  0  0  0  0  0  0  0  0  0
   46.9931  -31.6618 -102.7278 N   0  0  0  0  0  0  0  0  0  0  0  0
  2  1  1  6  0  0  0
  2  3  1  0  0  0  0
  2  5  1  0  0  0  0
  3  4  1  0  0  0  0
  3 17  1  0  0  0  0
  5  6  1  0  0  0  0
  7  6  1  6  0  0  0
  7  8  1  0  0  0  0
  7  9  1  0  0  0  0
 10  9  1  6  0  0  0
 10 11  1  0  0  0  0
 10 12  1  0  0  0  0
 11 16  1  0  0  0  0
 12 13  1  1  0  0  0
 12 14  1  0  0  0  0
 14 15  1  1  0  0  0
 14 16  1  0  0  0  0
 16 27  1  6  0  0  0
 18 19  2  0  0  0  0
 18 23  1  0  0  0  0
 19 20  1  0  0  0  0
 20 21  2  0  0  0  0
 21 22  1  0  0  0  0
 21 27  1  0  0  0  0
 22 23  2  0  0  0  0
 22 25  1  0  0  0  0
 23 24  1  0  0  0  0
 25 26  2  0  0  0  0
 26 27  1  0  0  0  0
M  END
>  <CHROM.1>
-36.39039669,-174.20054537,174.11885169,-74.62884926,-61.59524295,97.25211111
68.51116578,47.40275571,-29.30373575,-103.02594776,-3.02543904,-1.18170199
1.39114876

>  <Name>
ligand

>  <RI>
0

>  <Rbt.Current_Directory>
/home/itssahil/PROJECTS/Mol_Feturizer/Test_systems_manuscript/rnas/4l81

>  <Rbt.Executable>
rbdock ($Id: //depot/dev/client3/rdock/2013.1/src/exe/rbdock.cxx#4 $)

>  <Rbt.Library>
libRbt.so (2013.1, Build901 2013/11/27)

>  <Rbt.Parameter_File>
/export/apps/rDock/src/rDock_2013.1_src/data/scripts/dock_solv.prm

>  <Rbt.Receptor>
prm/pocket_docking_8.prm

>  <SCORE>
-16.681

>  <SCORE.INTER>
-14.4227

>  <SCORE.INTER.CONST>
1

>  <SCORE.INTER.POLAR>
0

>  <SCORE.INTER.ROT>
7

>  <SCORE.INTER.SOLV>
14.5504

>  <SCORE.INTER.VDW>
-22.732

>  <SCORE.INTER.norm>
-0.534176

>  <SCORE.INTRA>
-2.25822

>  <SCORE.INTRA.DIHEDRAL>
-1.11944

>  <SCORE.INTRA.DIHEDRAL.0>
8.34559

>  <SCORE.INTRA.POLAR>
0

>  <SCORE.INTRA.POLAR.0>
0

>  <SCORE.INTRA.REPUL>
0

>  <SCORE.INTRA.REPUL.0>
0

>  <SCORE.INTRA.SOLV>
-1.23793

>  <SCORE.INTRA.SOLV.lig_0>
-48.829

>  <SCORE.INTRA.VDW>
-1.07953

>  <SCORE.INTRA.VDW.0>
-1.77092

>  <SCORE.INTRA.norm>
-0.0836377

>  <SCORE.RESTR>
0

>  <SCORE.RESTR.CAVITY>
0

>  <SCORE.RESTR.norm>
0

>  <SCORE.SYSTEM>
0

>  <SCORE.SYSTEM.CONST>
0

>  <SCORE.SYSTEM.DIHEDRAL>
0

>  <SCORE.SYSTEM.SOLV>
0

>  <SCORE.SYSTEM.norm>
0

>  <SCORE.heavy>
27

>  <SCORE.norm>
-0.617813

>  <RMSD>
4.198

$$$$
ligand
 OpenBabel02271912153D
libRbt.so/2013.1/901 2013/11/27
 27 29  0  0  0  0  0  0  0  0999 V2000
   46.0169  -25.2158 -107.1096 N   0  0  0  0  0  0  0  0  0  0  0  0
   46.1567  -26.2524 -106.0806 C   0  0  2  0  0  0  0  0  0  0  0  0
   44.7840  -26.6901 -105.6148 C   0  0  0  0  0  0  0  0  0  0  0  0
   44.5760  -27.8598 -105.3297 O   0  0  0  0  0  0  0  0  0  0  0  0
   46.9496  -25.7369 -104.8719 C   0  0  0  0  0  0  0  0  0  0  0  0
   47.2200  -26.8614 -103.8824 C   0  0  0  0  0  0  0  0  0  0  0  0
   48.1689  -26.3194 -102.4096 S   0  0  2  0  0  0  0  0  0  0  0  0
   49.8700  -26.1218 -103.0315 C   0  0  0  0  0  0  0  0  0  0  0  0
   48.3208  -27.9511 -101.6862 C   0  0  0  0  0  0  0  0  0  0  0  0
   47.0022  -28.5705 -101.3061 C   0  0  1  0  0  0  0  0  0  0  0  0
   46.5772  -29.4067 -102.3955 O   0  0  0  0  0  0  0  0  0  0  0  0
   47.3752  -29.4766 -100.2027 C   0  0  1  0  0  0  0  0  0  0  0  0
   47.1163  -28.8406  -98.9521 O   0  0  0  0  0  0  0  0  0  0  0  0
   46.4347  -30.6255 -100.3963 C   0  0  1  0  0  0  0  0  0  0  0  0
   45.1895  -30.3756  -99.7119 O   0  0  0  0  0  0  0  0  0  0  0  0
   46.1842  -30.7228 -101.9312 C   0  0  2  0  0  0  0  0  0  0  0  0
   43.8866  -25.8754 -105.4889 O   0  0  0  0  0  0  0  0  0  0  0  0
   50.9319  -32.8384 -103.0183 N   0  0  0  0  0  0  0  0  0  0  0  0
   50.6523  -31.8333 -102.1524 C   0  0  0  0  0  0  0  0  0  0  0  0
   49.3881  -31.4141 -101.9357 N   0  0  0  0  0  0  0  0  0  0  0  0
   48.3668  -31.9243 -102.6430 C   0  0  0  0  0  0  0  0  0  0  0  0
   48.6241  -32.9680 -103.6057 C   0  0  0  0  0  0  0  0  0  0  0  0
   49.9681  -33.4199 -103.7633 C   0  0  0  0  0  0  0  0  0  0  0  0
   50.2833  -34.4214 -104.6590 N   0  0  0  0  0  0  0  0  0  0  0  0
   47.4528  -33.2898 -104.1673 N   0  0  0  0  0  0  0  0  0  0  0  0
   46.5194  -32.5460 -103.6526 C   0  0  0  0  0  0  0  0  0  0  0  0
   47.0209  -31.6889 -102.7010 N   0  0  0  0  0  0  0  0  0  0  0  0
  2  1  1  6  0  0  0
  2  3  1  0  0  0  0
  2  5  1  0  0  0  0
  3  4  1  0  0  0  0
  3 17  1  0  0  0  0
  5  6  1  0  0  0  0
  7  6  1  6  0  0  0
  7  8  1  0  0  0  0
  7  9  1  0  0  0  0
 10  9  1  6  0  0  0
 10 11  1  0  0  0  0
 10 12  1  0  0  0  0
 11 16  1  0  0  0  0
 12 13  1  1  0  0  0
 12 14  1  0  0  0  0
 14 15  1  1  0  0  0
 14 16  1  0  0  0  0
 16 27  1  6  0  0  0
 18 19  2  0  0  0  0
 18 23  1  0  0  0  0
 19 20  1  0  0  0  0
 20 21  2  0  0  0  0
 21 22  1  0  0  0  0
 21 27  1  0  0  0  0
 22 23  2  0  0  0  0
 22 25  1  0  0  0  0
 23 24  1  0  0  0  0
 25 26  2  0  0  0  0
 26 27  1  0  0  0  0
M  END
>  <CHROM.1>
143.62011986,-173.74180950,179.88740455,-74.94607813,-63.12115235,94.95085492
68.51372834,47.42380346,-29.35728717,-103.01320331,-2.98101198,-1.17087124
1.43165542

>  <Name>
ligand

>  <RI>
0

>  <Rbt.Current_Directory>
/home/itssahil/PROJECTS/Mol_Feturizer/Test_systems_manuscript/rnas/4l81

>  <Rbt.Executable>
rbdock ($Id: //depot/dev/client3/rdock/2013.1/src/exe/rbdock.cxx#4 $)

>  <Rbt.Library>
libRbt.so (2013.1, Build901 2013/11/27)

>  <Rbt.Parameter_File>
/export/apps/rDock/src/rDock_2013.1_src/data/scripts/dock_solv.prm

>  <Rbt.Receptor>
prm/pocket_docking_6.prm

>  <SCORE>
-16.7338

>  <SCORE.INTER>
-14.1274

>  <SCORE.INTER.CONST>
1

>  <SCORE.INTER.POLAR>
0

>  <SCORE.INTER.ROT>
7

>  <SCORE.INTER.SOLV>
14.6491

>  <SCORE.INTER.VDW>
-22.568

>  <SCORE.INTER.norm>
-0.523236

>  <SCORE.INTRA>
-2.60639

>  <SCORE.INTRA.DIHEDRAL>
-1.67437

>  <SCORE.INTRA.DIHEDRAL.0>
8.34559

>  <SCORE.INTRA.POLAR>
0

>  <SCORE.INTRA.POLAR.0>
0

>  <SCORE.INTRA.REPUL>
0

>  <SCORE.INTRA.REPUL.0>
0

>  <SCORE.INTRA.SOLV>
-1.24932

>  <SCORE.INTRA.SOLV.lig_0>
-48.829

>  <SCORE.INTRA.VDW>
-1.14455

>  <SCORE.INTRA.VDW.0>
-1.77092

>  <SCORE.INTRA.norm>
-0.0965329

>  <SCORE.RESTR>
0

>  <SCORE.RESTR.CAVITY>
0

>  <SCORE.RESTR.norm>
0

>  <SCORE.SYSTEM>
0

>  <SCORE.SYSTEM.CONST>
0

>  <SCORE.SYSTEM.DIHEDRAL>
0

>  <SCORE.SYSTEM.SOLV>
0

>  <SCORE.SYSTEM.norm>
0

>  <SCORE.heavy>
27

>  <SCORE.norm>
-0.619769

>  <RMSD>
4.201

$$$$
ligand
 OpenBabel02271912153D
libRbt.so/2013.1/901 2013/11/27
 27 29  0  0  0  0  0  0  0  0999 V2000
   46.0555  -25.1120 -107.1300 N   0  0  0  0  0  0  0  0  0  0  0  0
   46.2013  -26.1693 -106.1232 C   0  0  2  0  0  0  0  0  0  0  0  0
   44.8321  -26.6006 -105.6415 C   0  0  0  0  0  0  0  0  0  0  0  0
   43.9537  -25.7702 -105.4634 O   0  0  0  0  0  0  0  0  0  0  0  0
   47.0209  -25.6855 -104.9193 C   0  0  0  0  0  0  0  0  0  0  0  0
   47.2201  -26.8100 -103.9130 C   0  0  0  0  0  0  0  0  0  0  0  0
   48.1414  -26.2888 -102.4154 S   0  0  2  0  0  0  0  0  0  0  0  0
   49.8587  -26.1083 -102.9968 C   0  0  0  0  0  0  0  0  0  0  0  0
   48.2569  -27.9266 -101.6991 C   0  0  0  0  0  0  0  0  0  0  0  0
   46.9222  -28.5341 -101.3579 C   0  0  1  0  0  0  0  0  0  0  0  0
   46.5313  -29.3826 -102.4506 O   0  0  0  0  0  0  0  0  0  0  0  0
   47.2509  -29.4273 -100.2301 C   0  0  1  0  0  0  0  0  0  0  0  0
   46.9515  -28.7733  -98.9980 O   0  0  0  0  0  0  0  0  0  0  0  0
   46.3114  -30.5738 -100.4418 C   0  0  1  0  0  0  0  0  0  0  0  0
   45.0442  -30.3085  -99.8053 O   0  0  0  0  0  0  0  0  0  0  0  0
   46.1147  -30.6903 -101.9832 C   0  0  2  0  0  0  0  0  0  0  0  0
   44.5855  -27.7800 -105.4598 O   0  0  0  0  0  0  0  0  0  0  0  0
   50.9114  -32.7300 -102.9981 N   0  0  0  0  0  0  0  0  0  0  0  0
   50.6099  -31.6909 -102.1812 C   0  0  0  0  0  0  0  0  0  0  0  0
   49.3361  -31.2953 -101.9765 N   0  0  0  0  0  0  0  0  0  0  0  0
   48.3248  -31.8671 -102.6501 C   0  0  0  0  0  0  0  0  0  0  0  0
   48.6045  -32.9503 -103.5617 C   0  0  0  0  0  0  0  0  0  0  0  0
   49.9593  -33.3734 -103.7063 C   0  0  0  0  0  0  0  0  0  0  0  0
   50.2962  -34.4096 -104.5534 N   0  0  0  0  0  0  0  0  0  0  0  0
   47.4391  -33.3309 -104.0981 N   0  0  0  0  0  0  0  0  0  0  0  0
   46.4890  -32.5875 -103.6143 C   0  0  0  0  0  0  0  0  0  0  0  0
   46.9728  -31.6710 -102.7100 N   0  0  0  0  0  0  0  0  0  0  0  0
  2  1  1  6  0  0  0
  2  3  1  0  0  0  0
  2  5  1  0  0  0  0
  3  4  1  0  0  0  0
  3 17  1  0  0  0  0
  5  6  1  0  0  0  0
  7  6  1  6  0  0  0
  7  8  1  0  0  0  0
  7  9  1  0  0  0  0
 10  9  1  6  0  0  0
 10 11  1  0  0  0  0
 10 12  1  0  0  0  0
 11 16  1  0  0  0  0
 12 13  1  1  0  0  0
 12 14  1  0  0  0  0
 14 15  1  1  0  0  0
 14 16  1  0  0  0  0
 16 27  1  6  0  0  0
 18 19  2  0  0  0  0
 18 23  1  0  0  0  0
 19 20  1  0  0  0  0
 20 21  2  0  0  0  0
 21 22  1  0  0  0  0
 21 27  1  0  0  0  0
 22 23  2  0  0  0  0
 22 25  1  0  0  0  0
 23 24  1  0  0  0  0
 25 26  2  0  0  0  0
 26 27  1  0  0  0  0
M  END
>  <CHROM.1>
-39.47532201,-177.34475122,-177.91675114,-73.29681595,-62.91667357,96.24067783
64.83118208,47.39228922,-29.30609222,-103.02833422,-2.84211592,-1.16964111
1.58054392

>  <Name>
ligand

>  <RI>
0

>  <Rbt.Current_Directory>
/home/itssahil/PROJECTS/Mol_Feturizer/Test_systems_manuscript/rnas/4l81

>  <Rbt.Executable>
rbdock ($Id: //depot/dev/client3/rdock/2013.1/src/exe/rbdock.cxx#4 $)

>  <Rbt.Library>
libRbt.so (2013.1, Build901 2013/11/27)

>  <Rbt.Parameter_File>
/export/apps/rDock/src/rDock_2013.1_src/data/scripts/dock_solv.prm

>  <Rbt.Receptor>
prm/pocket_docking_7.prm

>  <SCORE>
-16.4723

>  <SCORE.INTER>
-13.975

>  <SCORE.INTER.CONST>
1

>  <SCORE.INTER.POLAR>
0

>  <SCORE.INTER.ROT>
7

>  <SCORE.INTER.SOLV>
14.6757

>  <SCORE.INTER.VDW>
-22.4752

>  <SCORE.INTER.norm>
-0.517594

>  <SCORE.INTRA>
-2.49724

>  <SCORE.INTRA.DIHEDRAL>
-1.54003

>  <SCORE.INTRA.DIHEDRAL.0>
8.34559

>  <SCORE.INTRA.POLAR>
0

>  <SCORE.INTRA.POLAR.0>
0

>  <SCORE.INTRA.REPUL>
0

>  <SCORE.INTRA.REPUL.0>
0

>  <SCORE.INTRA.SOLV>
-1.2422

>  <SCORE.INTRA.SOLV.lig_0>
-48.829

>  <SCORE.INTRA.VDW>
-1.10612

>  <SCORE.INTRA.VDW.0>
-1.77092

>  <SCORE.INTRA.norm>
-0.0924904

>  <SCORE.RESTR>
0

>  <SCORE.RESTR.CAVITY>
0

>  <SCORE.RESTR.norm>
0

>  <SCORE.SYSTEM>
0

>  <SCORE.SYSTEM.CONST>
0

>  <SCORE.SYSTEM.DIHEDRAL>
0

>  <SCORE.SYSTEM.SOLV>
0

>  <SCORE.SYSTEM.norm>
0

>  <SCORE.heavy>
27

>  <SCORE.norm>
-0.610084

>  <RMSD>
4.217

$$$$
ligand
 OpenBabel02271912153D
libRbt.so/2013.1/901 2013/11/27
 27 29  0  0  0  0  0  0  0  0999 V2000
   46.7310  -25.7668 -107.4645 N   0  0  0  0  0  0  0  0  0  0  0  0
   46.5281  -26.5499 -106.2405 C   0  0  2  0  0  0  0  0  0  0  0  0
   45.0944  -26.4004 -105.7769 C   0  0  0  0  0  0  0  0  0  0  0  0
   44.4886  -25.3589 -105.9793 O   0  0  0  0  0  0  0  0  0  0  0  0
   47.4638  -26.0834 -105.1169 C   0  0  0  0  0  0  0  0  0  0  0  0
   47.4449  -27.0654 -103.9541 C   0  0  0  0  0  0  0  0  0  0  0  0
   48.3269  -26.4486 -102.4692 S   0  0  2  0  0  0  0  0  0  0  0  0
   50.0675  -26.3553 -102.9994 C   0  0  0  0  0  0  0  0  0  0  0  0
   48.3741  -28.0266 -101.6227 C   0  0  0  0  0  0  0  0  0  0  0  0
   47.0123  -28.5899 -101.3148 C   0  0  1  0  0  0  0  0  0  0  0  0
   46.6080  -29.4019 -102.4302 O   0  0  0  0  0  0  0  0  0  0  0  0
   47.2887  -29.5165 -100.2000 C   0  0  1  0  0  0  0  0  0  0  0  0
   46.9936  -28.8757  -98.9599 O   0  0  0  0  0  0  0  0  0  0  0  0
   46.3107  -30.6226 -100.4493 C   0  0  1  0  0  0  0  0  0  0  0  0
   45.0440  -30.3221  -99.8277 O   0  0  0  0  0  0  0  0  0  0  0  0
   46.1353  -30.7018 -101.9956 C   0  0  2  0  0  0  0  0  0  0  0  0
   44.5236  -27.3272 -105.2290 O   0  0  0  0  0  0  0  0  0  0  0  0
   50.8873  -32.8117 -103.0747 N   0  0  0  0  0  0  0  0  0  0  0  0
   50.6133  -31.7616 -102.2623 C   0  0  0  0  0  0  0  0  0  0  0  0
   49.3484  -31.3479 -102.0391 N   0  0  0  0  0  0  0  0  0  0  0  0
   48.3183  -31.9127 -102.6899 C   0  0  0  0  0  0  0  0  0  0  0  0
   48.5684  -33.0075 -103.5962 C   0  0  0  0  0  0  0  0  0  0  0  0
   49.9150  -33.4492 -103.7604 C   0  0  0  0  0  0  0  0  0  0  0  0
   50.2239  -34.4971 -104.6038 N   0  0  0  0  0  0  0  0  0  0  0  0
   47.3891  -33.3778 -104.1090 N   0  0  0  0  0  0  0  0  0  0  0  0
   46.4570  -32.6180 -103.6156 C   0  0  0  0  0  0  0  0  0  0  0  0
   46.9681  -31.6998 -102.7282 N   0  0  0  0  0  0  0  0  0  0  0  0
  2  1  1  6  0  0  0
  2  3  1  0  0  0  0
  2  5  1  0  0  0  0
  3  4  1  0  0  0  0
  3 17  1  0  0  0  0
  5  6  1  0  0  0  0
  7  6  1  6  0  0  0
  7  8  1  0  0  0  0
  7  9  1  0  0  0  0
 10  9  1  6  0  0  0
 10 11  1  0  0  0  0
 10 12  1  0  0  0  0
 11 16  1  0  0  0  0
 12 13  1  1  0  0  0
 12 14  1  0  0  0  0
 14 15  1  1  0  0  0
 14 16  1  0  0  0  0
 16 27  1  6  0  0  0
 18 19  2  0  0  0  0
 18 23  1  0  0  0  0
 19 20  1  0  0  0  0
 20 21  2  0  0  0  0
 21 22  1  0  0  0  0
 21 27  1  0  0  0  0
 22 23  2  0  0  0  0
 22 25  1  0  0  0  0
 23 24  1  0  0  0  0
 25 26  2  0  0  0  0
 26 27  1  0  0  0  0
M  END
>  <CHROM.1>
-31.80735696,-168.80733331,-170.86422937,-65.99611655,-61.47223027,89.99862855
61.93350265,47.50760920,-29.38210671,-103.08153444,-2.56339070,-1.16088922
1.84119234

>  <Name>
ligand

>  <RI>
0

>  <Rbt.Current_Directory>
/home/itssahil/PROJECTS/Mol_Feturizer/Test_systems_manuscript/rnas/4l81

>  <Rbt.Executable>
rbdock ($Id: //depot/dev/client3/rdock/2013.1/src/exe/rbdock.cxx#4 $)

>  <Rbt.Library>
libRbt.so (2013.1, Build901 2013/11/27)

>  <Rbt.Parameter_File>
/export/apps/rDock/src/rDock_2013.1_src/data/scripts/dock_solv.prm

>  <Rbt.Receptor>
prm/pocket_docking_8.prm

>  <SCORE>
-15.6961

>  <SCORE.INTER>
-13.2597

>  <SCORE.INTER.CONST>
1

>  <SCORE.INTER.POLAR>
0

>  <SCORE.INTER.ROT>
7

>  <SCORE.INTER.SOLV>
14.1472

>  <SCORE.INTER.VDW>
-21.8222

>  <SCORE.INTER.norm>
-0.491101

>  <SCORE.INTRA>
-2.43637

>  <SCORE.INTRA.DIHEDRAL>
-1.53318

>  <SCORE.INTRA.DIHEDRAL.0>
8.34559

>  <SCORE.INTRA.POLAR>
0

>  <SCORE.INTRA.POLAR.0>
0

>  <SCORE.INTRA.REPUL>
0

>  <SCORE.INTRA.REPUL.0>
0

>  <SCORE.INTRA.SOLV>
-1.21705

>  <SCORE.INTRA.SOLV.lig_0>
-48.829

>  <SCORE.INTRA.VDW>
-1.06125

>  <SCORE.INTRA.VDW.0>
-1.77092

>  <SCORE.INTRA.norm>
-0.0902358

>  <SCORE.RESTR>
0

>  <SCORE.RESTR.CAVITY>
0

>  <SCORE.RESTR.norm>
0

>  <SCORE.SYSTEM>
0

>  <SCORE.SYSTEM.CONST>
0

>  <SCORE.SYSTEM.DIHEDRAL>
0

>  <SCORE.SYSTEM.SOLV>
0

>  <SCORE.SYSTEM.norm>
0

>  <SCORE.heavy>
27

>  <SCORE.norm>
-0.581337

>  <RMSD>
4.224

$$$$
ligand
 OpenBabel02271912153D
libRbt.so/2013.1/901 2013/11/27
 27 29  0  0  0  0  0  0  0  0999 V2000
   50.8544  -28.2252 -102.8203 N   0  0  0  0  0  0  0  0  0  0  0  0
   50.4112  -26.9265 -103.3397 C   0  0  2  0  0  0  0  0  0  0  0  0
   49.2064  -26.4527 -102.5544 C   0  0  0  0  0  0  0  0  0  0  0  0
   48.5315  -27.2518 -101.9230 O   0  0  0  0  0  0  0  0  0  0  0  0
   50.0311  -27.0182 -104.8238 C   0  0  0  0  0  0  0  0  0  0  0  0
   49.0061  -28.1200 -105.0529 C   0  0  0  0  0  0  0  0  0  0  0  0
   48.4331  -28.2277 -106.7917 S   0  0  2  0  0  0  0  0  0  0  0  0
   47.3932  -26.7468 -107.0039 C   0  0  0  0  0  0  0  0  0  0  0  0
   47.1460  -29.4338 -106.4799 C   0  0  0  0  0  0  0  0  0  0  0  0
   47.6516  -30.8488 -106.3855 C   0  0  1  0  0  0  0  0  0  0  0  0
   48.4716  -30.9469 -105.2087 O   0  0  0  0  0  0  0  0  0  0  0  0
   46.4220  -31.6150 -106.1050 C   0  0  1  0  0  0  0  0  0  0  0  0
   45.9189  -32.1744 -107.3172 O   0  0  0  0  0  0  0  0  0  0  0  0
   46.9185  -32.7050 -105.2064 C   0  0  1  0  0  0  0  0  0  0  0  0
   47.3859  -33.8248 -105.9867 O   0  0  0  0  0  0  0  0  0  0  0  0
   48.1023  -32.0920 -104.3996 C   0  0  2  0  0  0  0  0  0  0  0  0
   48.9201  -25.2688 -102.5187 O   0  0  0  0  0  0  0  0  0  0  0  0
   44.5544  -30.6041 -100.7395 N   0  0  0  0  0  0  0  0  0  0  0  0
   44.3092  -31.0616 -101.9918 C   0  0  0  0  0  0  0  0  0  0  0  0
   45.3067  -31.4488 -102.8141 N   0  0  0  0  0  0  0  0  0  0  0  0
   46.5906  -31.3087 -102.4463 C   0  0  0  0  0  0  0  0  0  0  0  0
   46.8989  -30.7869 -101.1366 C   0  0  0  0  0  0  0  0  0  0  0  0
   45.8127  -30.4418 -100.2785 C   0  0  0  0  0  0  0  0  0  0  0  0
   46.0357  -29.9466  -99.0097 N   0  0  0  0  0  0  0  0  0  0  0  0
   48.2320  -30.7454 -101.0277 N   0  0  0  0  0  0  0  0  0  0  0  0
   48.7595  -31.1778 -102.1342 C   0  0  0  0  0  0  0  0  0  0  0  0
   47.7970  -31.5471 -103.0445 N   0  0  0  0  0  0  0  0  0  0  0  0
  2  1  1  1  0  0  0
  2  3  1  0  0  0  0
  2  5  1  0  0  0  0
  3  4  1  0  0  0  0
  3 17  1  0  0  0  0
  5  6  1  0  0  0  0
  7  6  1  1  0  0  0
  7  8  1  0  0  0  0
  7  9  1  0  0  0  0
 10  9  1  1  0  0  0
 10 11  1  0  0  0  0
 10 12  1  0  0  0  0
 11 16  1  0  0  0  0
 12 13  1  6  0  0  0
 12 14  1  0  0  0  0
 14 15  1  6  0  0  0
 14 16  1  0  0  0  0
 16 27  1  1  0  0  0
 18 19  2  0  0  0  0
 18 23  1  0  0  0  0
 19 20  1  0  0  0  0
 20 21  2  0  0  0  0
 21 22  1  0  0  0  0
 21 27  1  0  0  0  0
 22 23  2  0  0  0  0
 22 25  1  0  0  0  0
 23 24  1  0  0  0  0
 25 26  2  0  0  0  0
 26 27  1  0  0  0  0
M  END
>  <CHROM.1>
-20.57400438,53.84626939,176.79335222,-71.56871445,-80.58828266,66.68151584
102.31692095,47.65762224,-29.78005144,-103.86795405,-0.00519884,1.02624942
1.26278606

>  <Name>
ligand

>  <RI>
0

>  <Rbt.Current_Directory>
/home/itssahil/PROJECTS/Mol_Feturizer/Test_systems_manuscript/rnas/4l81

>  <Rbt.Executable>
rbdock ($Id: //depot/dev/client3/rdock/2013.1/src/exe/rbdock.cxx#4 $)

>  <Rbt.Library>
libRbt.so (2013.1, Build901 2013/11/27)

>  <Rbt.Parameter_File>
/export/apps/rDock/src/rDock_2013.1_src/data/scripts/dock_solv.prm

>  <Rbt.Receptor>
prm/pocket_docking_5.prm

>  <SCORE>
-10.6083

>  <SCORE.INTER>
-7.20645

>  <SCORE.INTER.CONST>
1

>  <SCORE.INTER.POLAR>
0

>  <SCORE.INTER.ROT>
7

>  <SCORE.INTER.SOLV>
21.1717

>  <SCORE.INTER.VDW>
-20.1282

>  <SCORE.INTER.norm>
-0.266905

>  <SCORE.INTRA>
-3.40189

>  <SCORE.INTRA.DIHEDRAL>
-4.14375

>  <SCORE.INTRA.DIHEDRAL.0>
8.34559

>  <SCORE.INTRA.POLAR>
0

>  <SCORE.INTRA.POLAR.0>
0

>  <SCORE.INTRA.REPUL>
0

>  <SCORE.INTRA.REPUL.0>
0

>  <SCORE.INTRA.SOLV>
-0.289391

>  <SCORE.INTRA.SOLV.lig_0>
-48.829

>  <SCORE.INTRA.VDW>
-1.18532

>  <SCORE.INTRA.VDW.0>
-1.77092

>  <SCORE.INTRA.norm>
-0.125996

>  <SCORE.RESTR>
0

>  <SCORE.RESTR.CAVITY>
0

>  <SCORE.RESTR.norm>
0

>  <SCORE.SYSTEM>
0

>  <SCORE.SYSTEM.CONST>
0

>  <SCORE.SYSTEM.DIHEDRAL>
0

>  <SCORE.SYSTEM.SOLV>
0

>  <SCORE.SYSTEM.norm>
0

>  <SCORE.heavy>
27

>  <SCORE.norm>
-0.392901

>  <RMSD>
4.234

$$$$
ligand
 OpenBabel02271912153D
libRbt.so/2013.1/901 2013/11/27
 27 29  0  0  0  0  0  0  0  0999 V2000
   50.9979  -27.2049 -102.8008 N   0  0  0  0  0  0  0  0  0  0  0  0
   49.8778  -26.8282 -103.6704 C   0  0  2  0  0  0  0  0  0  0  0  0
   48.5798  -26.9383 -102.8987 C   0  0  0  0  0  0  0  0  0  0  0  0
   47.5969  -26.3068 -103.2562 O   0  0  0  0  0  0  0  0  0  0  0  0
   49.7991  -27.7360 -104.9054 C   0  0  0  0  0  0  0  0  0  0  0  0
   48.9253  -27.1096 -105.9829 C   0  0  0  0  0  0  0  0  0  0  0  0
   48.6778  -28.1965 -107.4391 S   0  0  2  0  0  0  0  0  0  0  0  0
   47.6148  -27.2135 -108.5452 C   0  0  0  0  0  0  0  0  0  0  0  0
   47.4218  -29.2248 -106.6814 C   0  0  0  0  0  0  0  0  0  0  0  0
   47.7990  -30.6801 -106.5990 C   0  0  1  0  0  0  0  0  0  0  0  0
   48.6647  -30.8479 -105.4635 O   0  0  0  0  0  0  0  0  0  0  0  0
   46.5196  -31.3277 -106.2503 C   0  0  1  0  0  0  0  0  0  0  0  0
   45.9067  -31.8440 -107.4306 O   0  0  0  0  0  0  0  0  0  0  0  0
   46.9582  -32.4546 -105.3673 C   0  0  1  0  0  0  0  0  0  0  0  0
   47.2804  -33.6167 -106.1592 O   0  0  0  0  0  0  0  0  0  0  0  0
   48.2327  -31.9500 -104.6262 C   0  0  2  0  0  0  0  0  0  0  0  0
   48.4954  -27.6814 -101.9366 O   0  0  0  0  0  0  0  0  0  0  0  0
   45.0349  -30.5686 -100.6182 N   0  0  0  0  0  0  0  0  0  0  0  0
   44.6803  -31.0939 -101.8166 C   0  0  0  0  0  0  0  0  0  0  0  0
   45.6011  -31.4427 -102.7393 N   0  0  0  0  0  0  0  0  0  0  0  0
   46.9050  -31.1963 -102.5326 C   0  0  0  0  0  0  0  0  0  0  0  0
   47.3239  -30.6001 -101.2870 C   0  0  0  0  0  0  0  0  0  0  0  0
   46.3226  -30.2981 -100.3167 C   0  0  0  0  0  0  0  0  0  0  0  0
   46.6544  -29.7361  -99.1007 N   0  0  0  0  0  0  0  0  0  0  0  0
   48.6536  -30.4591 -101.3399 N   0  0  0  0  0  0  0  0  0  0  0  0
   49.0793  -30.8982 -102.4869 C   0  0  0  0  0  0  0  0  0  0  0  0
   48.0476  -31.3726 -103.2629 N   0  0  0  0  0  0  0  0  0  0  0  0
  2  1  1  1  0  0  0
  2  3  1  0  0  0  0
  2  5  1  0  0  0  0
  3  4  1  0  0  0  0
  3 17  1  0  0  0  0
  5  6  1  0  0  0  0
  7  6  1  1  0  0  0
  7  8  1  0  0  0  0
  7  9  1  0  0  0  0
 10  9  1  1  0  0  0
 10 11  1  0  0  0  0
 10 12  1  0  0  0  0
 11 16  1  0  0  0  0
 12 13  1  6  0  0  0
 12 14  1  0  0  0  0
 14 15  1  6  0  0  0
 14 16  1  0  0  0  0
 16 27  1  1  0  0  0
 18 19  2  0  0  0  0
 18 23  1  0  0  0  0
 19 20  1  0  0  0  0
 20 21  2  0  0  0  0
 21 22  1  0  0  0  0
 21 27  1  0  0  0  0
 22 23  2  0  0  0  0
 22 25  1  0  0  0  0
 23 24  1  0  0  0  0
 25 26  2  0  0  0  0
 26 27  1  0  0  0  0
M  END
>  <CHROM.1>
157.44887790,-163.35024900,-175.51748393,179.95129027,-120.01899655,80.44552866
112.76465545,47.74803736,-29.71142231,-104.15201360,-1.07546329,1.07186457
1.37652330

>  <Name>
ligand

>  <RI>
0

>  <Rbt.Current_Directory>
/home/itssahil/PROJECTS/Mol_Feturizer/Test_systems_manuscript/rnas/4l81

>  <Rbt.Executable>
rbdock ($Id: //depot/dev/client3/rdock/2013.1/src/exe/rbdock.cxx#4 $)

>  <Rbt.Library>
libRbt.so (2013.1, Build901 2013/11/27)

>  <Rbt.Parameter_File>
/export/apps/rDock/src/rDock_2013.1_src/data/scripts/dock_solv.prm

>  <Rbt.Receptor>
prm/pocket_docking_5.prm

>  <SCORE>
-7.91073

>  <SCORE.INTER>
-5.66588

>  <SCORE.INTER.CONST>
1

>  <SCORE.INTER.POLAR>
0

>  <SCORE.INTER.ROT>
7

>  <SCORE.INTER.SOLV>
20.9234

>  <SCORE.INTER.VDW>
-19.0184

>  <SCORE.INTER.norm>
-0.209847

>  <SCORE.INTRA>
-2.24485

>  <SCORE.INTRA.DIHEDRAL>
1.84204

>  <SCORE.INTRA.DIHEDRAL.0>
8.34559

>  <SCORE.INTRA.POLAR>
0

>  <SCORE.INTRA.POLAR.0>
0

>  <SCORE.INTRA.REPUL>
0

>  <SCORE.INTRA.REPUL.0>
0

>  <SCORE.INTRA.SOLV>
-1.19795

>  <SCORE.INTRA.SOLV.lig_0>
-48.829

>  <SCORE.INTRA.VDW>
-2.56689

>  <SCORE.INTRA.VDW.0>
-1.77092

>  <SCORE.INTRA.norm>
-0.0831425

>  <SCORE.RESTR>
0

>  <SCORE.RESTR.CAVITY>
0

>  <SCORE.RESTR.norm>
0

>  <SCORE.SYSTEM>
0

>  <SCORE.SYSTEM.CONST>
0

>  <SCORE.SYSTEM.DIHEDRAL>
0

>  <SCORE.SYSTEM.SOLV>
0

>  <SCORE.SYSTEM.norm>
0

>  <SCORE.heavy>
27

>  <SCORE.norm>
-0.29299

>  <RMSD>
4.240

$$$$
ligand
 OpenBabel02271912153D
libRbt.so/2013.1/901 2013/11/27
 27 29  0  0  0  0  0  0  0  0999 V2000
   46.1031  -26.7697 -107.1788 N   0  0  0  0  0  0  0  0  0  0  0  0
   45.3035  -27.4419 -106.1485 C   0  0  2  0  0  0  0  0  0  0  0  0
   44.5971  -26.4051 -105.3007 C   0  0  0  0  0  0  0  0  0  0  0  0
   44.8538  -25.2188 -105.4402 O   0  0  0  0  0  0  0  0  0  0  0  0
   46.1815  -28.3119 -105.2387 C   0  0  0  0  0  0  0  0  0  0  0  0
   47.3460  -27.5068 -104.6797 C   0  0  0  0  0  0  0  0  0  0  0  0
   46.8845  -26.4653 -103.2424 S   0  0  2  0  0  0  0  0  0  0  0  0
   48.3032  -25.3399 -103.0420 C   0  0  0  0  0  0  0  0  0  0  0  0
   47.3110  -27.6812 -101.9980 C   0  0  0  0  0  0  0  0  0  0  0  0
   46.1491  -28.5322 -101.5592 C   0  0  1  0  0  0  0  0  0  0  0  0
   45.9115  -29.5153 -102.5810 O   0  0  0  0  0  0  0  0  0  0  0  0
   46.6989  -29.2585 -100.3982 C   0  0  1  0  0  0  0  0  0  0  0  0
   46.3088  -28.6015  -99.1934 O   0  0  0  0  0  0  0  0  0  0  0  0
   46.0192  -30.5890 -100.4981 C   0  0  1  0  0  0  0  0  0  0  0  0
   44.7469  -30.5548  -99.8189 O   0  0  0  0  0  0  0  0  0  0  0  0
   45.7998  -30.8472 -102.0191 C   0  0  2  0  0  0  0  0  0  0  0  0
   43.7448  -26.7418 -104.4975 O   0  0  0  0  0  0  0  0  0  0  0  0
   50.8352  -32.4395 -102.5739 N   0  0  0  0  0  0  0  0  0  0  0  0
   50.3458  -31.5349 -101.6906 C   0  0  0  0  0  0  0  0  0  0  0  0
   49.0288  -31.2483 -101.6243 N   0  0  0  0  0  0  0  0  0  0  0  0
   48.1653  -31.7898 -102.4988 C   0  0  0  0  0  0  0  0  0  0  0  0
   48.6494  -32.7271 -103.4834 C   0  0  0  0  0  0  0  0  0  0  0  0
   50.0404  -33.0437 -103.4824 C   0  0  0  0  0  0  0  0  0  0  0  0
   50.5686  -33.9393 -104.3900 N   0  0  0  0  0  0  0  0  0  0  0  0
   47.6001  -33.1064 -104.2223 N   0  0  0  0  0  0  0  0  0  0  0  0
   46.5380  -32.4915 -103.7942 C   0  0  0  0  0  0  0  0  0  0  0  0
   46.8223  -31.6712 -102.7274 N   0  0  0  0  0  0  0  0  0  0  0  0
  2  1  1  6  0  0  0
  2  3  1  0  0  0  0
  2  5  1  0  0  0  0
  3  4  1  0  0  0  0
  3 17  1  0  0  0  0
  5  6  1  0  0  0  0
  7  6  1  6  0  0  0
  7  8  1  0  0  0  0
  7  9  1  0  0  0  0
 10  9  1  6  0  0  0
 10 11  1  0  0  0  0
 10 12  1  0  0  0  0
 11 16  1  0  0  0  0
 12 13  1  1  0  0  0
 12 14  1  0  0  0  0
 14 15  1  1  0  0  0
 14 16  1  0  0  0  0
 16 27  1  6  0  0  0
 18 19  2  0  0  0  0
 18 23  1  0  0  0  0
 19 20  1  0  0  0  0
 20 21  2  0  0  0  0
 21 22  1  0  0  0  0
 21 27  1  0  0  0  0
 22 23  2  0  0  0  0
 22 25  1  0  0  0  0
 23 24  1  0  0  0  0
 25 26  2  0  0  0  0
 26 27  1  0  0  0  0
M  END
>  <CHROM.1>
-7.73994325,52.41898387,80.47405381,-166.72285170,-93.88938932,77.23895454
81.84552672,46.99685839,-29.37670894,-103.07664455,-2.52353469,-0.97731185
1.96610089

>  <Name>
ligand

>  <RI>
0

>  <Rbt.Current_Directory>
/home/itssahil/PROJECTS/Mol_Feturizer/Test_systems_manuscript/rnas/4l81

>  <Rbt.Executable>
rbdock ($Id: //depot/dev/client3/rdock/2013.1/src/exe/rbdock.cxx#4 $)

>  <Rbt.Library>
libRbt.so (2013.1, Build901 2013/11/27)

>  <Rbt.Parameter_File>
/export/apps/rDock/src/rDock_2013.1_src/data/scripts/dock_solv.prm

>  <Rbt.Receptor>
prm/pocket_docking_7.prm

>  <SCORE>
-15.5512

>  <SCORE.INTER>
-13.9549

>  <SCORE.INTER.CONST>
1

>  <SCORE.INTER.POLAR>
0

>  <SCORE.INTER.ROT>
7

>  <SCORE.INTER.SOLV>
14.8835

>  <SCORE.INTER.VDW>
-22.5311

>  <SCORE.INTER.norm>
-0.51685

>  <SCORE.INTRA>
-1.59629

>  <SCORE.INTRA.DIHEDRAL>
0.751855

>  <SCORE.INTRA.DIHEDRAL.0>
8.34559

>  <SCORE.INTRA.POLAR>
0

>  <SCORE.INTRA.POLAR.0>
0

>  <SCORE.INTRA.REPUL>
0

>  <SCORE.INTRA.REPUL.0>
0

>  <SCORE.INTRA.SOLV>
0.193648

>  <SCORE.INTRA.SOLV.lig_0>
-48.829

>  <SCORE.INTRA.VDW>
-2.06904

>  <SCORE.INTRA.VDW.0>
-1.77092

>  <SCORE.INTRA.norm>
-0.0591219

>  <SCORE.RESTR>
0

>  <SCORE.RESTR.CAVITY>
0

>  <SCORE.RESTR.norm>
0

>  <SCORE.SYSTEM>
0

>  <SCORE.SYSTEM.CONST>
0

>  <SCORE.SYSTEM.DIHEDRAL>
0

>  <SCORE.SYSTEM.SOLV>
0

>  <SCORE.SYSTEM.norm>
0

>  <SCORE.heavy>
27

>  <SCORE.norm>
-0.575972

>  <RMSD>
4.357

$$$$
ligand
 OpenBabel02271912153D
libRbt.so/2013.1/901 2013/11/27
 27 29  0  0  0  0  0  0  0  0999 V2000
   45.0263  -26.5875 -103.1718 N   0  0  0  0  0  0  0  0  0  0  0  0
   45.7661  -25.6030 -103.9694 C   0  0  2  0  0  0  0  0  0  0  0  0
   45.1653  -25.5227 -105.3570 C   0  0  0  0  0  0  0  0  0  0  0  0
   44.1911  -26.2015 -105.6450 O   0  0  0  0  0  0  0  0  0  0  0  0
   47.2480  -25.9828 -104.0919 C   0  0  0  0  0  0  0  0  0  0  0  0
   47.9402  -25.9060 -102.7384 C   0  0  0  0  0  0  0  0  0  0  0  0
   49.6141  -26.6552 -102.7359 S   0  0  2  0  0  0  0  0  0  0  0  0
   50.3986  -25.9822 -104.2362 C   0  0  0  0  0  0  0  0  0  0  0  0
   49.0974  -28.2460 -103.3771 C   0  0  0  0  0  0  0  0  0  0  0  0
   48.2063  -29.0166 -102.4397 C   0  0  1  0  0  0  0  0  0  0  0  0
   47.5436  -30.0397 -103.2021 O   0  0  0  0  0  0  0  0  0  0  0  0
   49.1742  -29.7061 -101.5649 C   0  0  1  0  0  0  0  0  0  0  0  0
   49.3357  -28.9688 -100.3542 O   0  0  0  0  0  0  0  0  0  0  0  0
   48.4865  -31.0062 -101.2839 C   0  0  1  0  0  0  0  0  0  0  0  0
   47.6140  -30.8760 -100.1424 O   0  0  0  0  0  0  0  0  0  0  0  0
   47.6479  -31.3333 -102.5558 C   0  0  2  0  0  0  0  0  0  0  0  0
   45.6269  -24.7577 -106.1856 O   0  0  0  0  0  0  0  0  0  0  0  0
   51.9200  -33.8168 -104.4999 N   0  0  0  0  0  0  0  0  0  0  0  0
   51.8663  -32.9625 -103.4486 C   0  0  0  0  0  0  0  0  0  0  0  0
   50.7012  -32.4280 -103.0270 N   0  0  0  0  0  0  0  0  0  0  0  0
   49.5601  -32.6585 -103.6966 C   0  0  0  0  0  0  0  0  0  0  0  0
   49.5780  -33.5295 -104.8470 C   0  0  0  0  0  0  0  0  0  0  0  0
   50.8218  -34.1173 -105.2250 C   0  0  0  0  0  0  0  0  0  0  0  0
   50.9087  -34.9673 -106.3088 N   0  0  0  0  0  0  0  0  0  0  0  0
   48.3294  -33.5839 -105.3253 N   0  0  0  0  0  0  0  0  0  0  0  0
   47.5634  -32.8324 -104.5919 C   0  0  0  0  0  0  0  0  0  0  0  0
   48.2643  -32.2411 -103.5668 N   0  0  0  0  0  0  0  0  0  0  0  0
  2  1  1  1  0  0  0
  2  3  1  0  0  0  0
  2  5  1  0  0  0  0
  3  4  1  0  0  0  0
  3 17  1  0  0  0  0
  5  6  1  0  0  0  0
  7  6  1  6  0  0  0
  7  8  1  0  0  0  0
  7  9  1  0  0  0  0
 10  9  1  6  0  0  0
 10 11  1  0  0  0  0
 10 12  1  0  0  0  0
 11 16  1  0  0  0  0
 12 13  1  1  0  0  0
 12 14  1  0  0  0  0
 14 15  1  1  0  0  0
 14 16  1  0  0  0  0
 16 27  1  6  0  0  0
 18 19  2  0  0  0  0
 18 23  1  0  0  0  0
 19 20  1  0  0  0  0
 20 21  2  0  0  0  0
 21 22  1  0  0  0  0
 21 27  1  0  0  0  0
 22 23  2  0  0  0  0
 22 25  1  0  0  0  0
 23 24  1  0  0  0  0
 25 26  2  0  0  0  0
 26 27  1  0  0  0  0
M  END
>  <CHROM.1>
1.52647676,-66.30453772,168.67128683,46.53078975,-66.02378165,162.55564804
99.71413753,48.43628755,-29.57605461,-103.55019758,2.28378882,-0.84784316
0.57549654

>  <Name>
ligand

>  <RI>
0

>  <Rbt.Current_Directory>
/home/itssahil/PROJECTS/Mol_Feturizer/Test_systems_manuscript/rnas/4l81

>  <Rbt.Executable>
rbdock ($Id: //depot/dev/client3/rdock/2013.1/src/exe/rbdock.cxx#4 $)

>  <Rbt.Library>
libRbt.so (2013.1, Build901 2013/11/27)

>  <Rbt.Parameter_File>
/export/apps/rDock/src/rDock_2013.1_src/data/scripts/dock_solv.prm

>  <Rbt.Receptor>
prm/pocket_docking_6.prm

>  <SCORE>
-12.7025

>  <SCORE.INTER>
-11.6664

>  <SCORE.INTER.CONST>
1

>  <SCORE.INTER.POLAR>
0

>  <SCORE.INTER.ROT>
7

>  <SCORE.INTER.SOLV>
13.0459

>  <SCORE.INTER.VDW>
-20.3929

>  <SCORE.INTER.norm>
-0.432089

>  <SCORE.INTRA>
-1.05426

>  <SCORE.INTRA.DIHEDRAL>
-3.47015

>  <SCORE.INTRA.DIHEDRAL.0>
8.34559

>  <SCORE.INTRA.POLAR>
0

>  <SCORE.INTRA.POLAR.0>
0

>  <SCORE.INTRA.REPUL>
0

>  <SCORE.INTRA.REPUL.0>
0

>  <SCORE.INTRA.SOLV>
0.193502

>  <SCORE.INTRA.SOLV.lig_0>
-48.829

>  <SCORE.INTRA.VDW>
0.584065

>  <SCORE.INTRA.VDW.0>
-1.77092

>  <SCORE.INTRA.norm>
-0.0390466

>  <SCORE.RESTR>
0.0182033

>  <SCORE.RESTR.CAVITY>
0.0182033

>  <SCORE.RESTR.norm>
0.000674195

>  <SCORE.SYSTEM>
0

>  <SCORE.SYSTEM.CONST>
0

>  <SCORE.SYSTEM.DIHEDRAL>
0

>  <SCORE.SYSTEM.SOLV>
0

>  <SCORE.SYSTEM.norm>
0

>  <SCORE.heavy>
27

>  <SCORE.norm>
-0.470462

>  <RMSD>
4.361

$$$$
ligand
 OpenBabel02271912153D
libRbt.so/2013.1/901 2013/11/27
 27 29  0  0  0  0  0  0  0  0999 V2000
   48.7814  -28.0493 -104.7675 N   0  0  0  0  0  0  0  0  0  0  0  0
   49.1498  -28.0389 -103.3473 C   0  0  2  0  0  0  0  0  0  0  0  0
   49.0213  -26.6321 -102.8023 C   0  0  0  0  0  0  0  0  0  0  0  0
   48.2190  -26.3883 -101.9137 O   0  0  0  0  0  0  0  0  0  0  0  0
   50.5921  -28.5211 -103.1404 C   0  0  0  0  0  0  0  0  0  0  0  0
   50.7105  -30.0118 -103.4245 C   0  0  0  0  0  0  0  0  0  0  0  0
   49.7548  -31.0515 -102.2545 S   0  0  2  0  0  0  0  0  0  0  0  0
   50.6421  -30.8634 -100.6743 C   0  0  0  0  0  0  0  0  0  0  0  0
   50.4571  -32.6106 -102.7884 C   0  0  0  0  0  0  0  0  0  0  0  0
   49.5754  -33.3792 -103.7364 C   0  0  1  0  0  0  0  0  0  0  0  0
   48.2136  -33.2105 -103.3074 O   0  0  0  0  0  0  0  0  0  0  0  0
   49.7152  -32.6224 -104.9955 C   0  0  1  0  0  0  0  0  0  0  0  0
   50.6843  -33.2553 -105.8297 O   0  0  0  0  0  0  0  0  0  0  0  0
   48.3533  -32.7534 -105.6040 C   0  0  1  0  0  0  0  0  0  0  0  0
   48.2686  -33.9603 -106.3898 O   0  0  0  0  0  0  0  0  0  0  0  0
   47.3541  -32.8282 -104.4107 C   0  0  2  0  0  0  0  0  0  0  0  0
   49.7385  -25.7404 -103.2213 O   0  0  0  0  0  0  0  0  0  0  0  0
   46.0423  -29.3851 -100.5867 N   0  0  0  0  0  0  0  0  0  0  0  0
   46.6980  -30.5637 -100.4498 C   0  0  0  0  0  0  0  0  0  0  0  0
   47.0090  -31.3311 -101.5154 N   0  0  0  0  0  0  0  0  0  0  0  0
   46.5972  -30.9910 -102.7476 C   0  0  0  0  0  0  0  0  0  0  0  0
   45.8600  -29.7645 -102.9342 C   0  0  0  0  0  0  0  0  0  0  0  0
   45.6009  -28.9557 -101.7879 C   0  0  0  0  0  0  0  0  0  0  0  0
   44.9101  -27.7658 -101.8961 N   0  0  0  0  0  0  0  0  0  0  0  0
   45.5701  -29.6680 -104.2371 N   0  0  0  0  0  0  0  0  0  0  0  0
   46.0457  -30.7088 -104.8535 C   0  0  0  0  0  0  0  0  0  0  0  0
   46.6965  -31.5571 -103.9884 N   0  0  0  0  0  0  0  0  0  0  0  0
  2  1  1  6  0  0  0
  2  3  1  0  0  0  0
  2  5  1  0  0  0  0
  3  4  1  0  0  0  0
  3 17  1  0  0  0  0
  5  6  1  0  0  0  0
  7  6  1  6  0  0  0
  7  8  1  0  0  0  0
  7  9  1  0  0  0  0
 10  9  1  1  0  0  0
 10 11  1  0  0  0  0
 10 12  1  0  0  0  0
 11 16  1  0  0  0  0
 12 13  1  6  0  0  0
 12 14  1  0  0  0  0
 14 15  1  1  0  0  0
 14 16  1  0  0  0  0
 16 27  1  1  0  0  0
 18 19  2  0  0  0  0
 18 23  1  0  0  0  0
 19 20  1  0  0  0  0
 20 21  2  0  0  0  0
 21 22  1  0  0  0  0
 21 27  1  0  0  0  0
 22 23  2  0  0  0  0
 22 25  1  0  0  0  0
 23 24  1  0  0  0  0
 25 26  2  0  0  0  0
 26 27  1  0  0  0  0
M  END
>  <CHROM.1>
117.22350075,-70.00875172,-64.74052838,-68.92966272,-99.67089945,-38.07562983
-15.47259473,48.29885670,-30.43244386,-103.21973613,-1.81681299,-0.16477557
-2.76580673

>  <Name>
ligand

>  <RI>
0

>  <Rbt.Current_Directory>
/home/itssahil/PROJECTS/Mol_Feturizer/Test_systems_manuscript/rnas/4l81

>  <Rbt.Executable>
rbdock ($Id: //depot/dev/client3/rdock/2013.1/src/exe/rbdock.cxx#4 $)

>  <Rbt.Library>
libRbt.so (2013.1, Build901 2013/11/27)

>  <Rbt.Parameter_File>
/export/apps/rDock/src/rDock_2013.1_src/data/scripts/dock_solv.prm

>  <Rbt.Receptor>
prm/pocket_docking_8.prm

>  <SCORE>
-12.3011

>  <SCORE.INTER>
-9.19626

>  <SCORE.INTER.CONST>
1

>  <SCORE.INTER.POLAR>
0

>  <SCORE.INTER.ROT>
7

>  <SCORE.INTER.SOLV>
14.5125

>  <SCORE.INTER.VDW>
-19.235

>  <SCORE.INTER.norm>
-0.340602

>  <SCORE.INTRA>
-3.10485

>  <SCORE.INTRA.DIHEDRAL>
-0.590902

>  <SCORE.INTRA.DIHEDRAL.0>
8.34559

>  <SCORE.INTRA.POLAR>
0

>  <SCORE.INTRA.POLAR.0>
0

>  <SCORE.INTRA.REPUL>
0

>  <SCORE.INTRA.REPUL.0>
0

>  <SCORE.INTRA.SOLV>
1.1244

>  <SCORE.INTRA.SOLV.lig_0>
-48.829

>  <SCORE.INTRA.VDW>
-3.3716

>  <SCORE.INTRA.VDW.0>
-1.77092

>  <SCORE.INTRA.norm>
-0.114994

>  <SCORE.RESTR>
0

>  <SCORE.RESTR.CAVITY>
0

>  <SCORE.RESTR.norm>
0

>  <SCORE.SYSTEM>
0

>  <SCORE.SYSTEM.CONST>
0

>  <SCORE.SYSTEM.DIHEDRAL>
0

>  <SCORE.SYSTEM.SOLV>
0

>  <SCORE.SYSTEM.norm>
0

>  <SCORE.heavy>
27

>  <SCORE.norm>
-0.455597

>  <RMSD>
4.369

$$$$
ligand
 OpenBabel02271912153D
libRbt.so/2013.1/901 2013/11/27
 27 29  0  0  0  0  0  0  0  0999 V2000
   46.4834  -26.3809 -107.8048 N   0  0  0  0  0  0  0  0  0  0  0  0
   46.4458  -26.8250 -106.4069 C   0  0  2  0  0  0  0  0  0  0  0  0
   45.7572  -25.7745 -105.5613 C   0  0  0  0  0  0  0  0  0  0  0  0
   44.8126  -26.0809 -104.8495 O   0  0  0  0  0  0  0  0  0  0  0  0
   47.8593  -27.0567 -105.8558 C   0  0  0  0  0  0  0  0  0  0  0  0
   47.8043  -27.7054 -104.4799 C   0  0  0  0  0  0  0  0  0  0  0  0
   47.4595  -26.5137 -103.1292 S   0  0  2  0  0  0  0  0  0  0  0  0
   48.9984  -25.5479 -102.9923 C   0  0  0  0  0  0  0  0  0  0  0  0
   47.7356  -27.6749 -101.7935 C   0  0  0  0  0  0  0  0  0  0  0  0
   46.5209  -28.4912 -101.4395 C   0  0  1  0  0  0  0  0  0  0  0  0
   46.3458  -29.4875 -102.4611 O   0  0  0  0  0  0  0  0  0  0  0  0
   46.9542  -29.2079 -100.2245 C   0  0  1  0  0  0  0  0  0  0  0  0
   46.4807  -28.5198  -99.0679 O   0  0  0  0  0  0  0  0  0  0  0  0
   46.2533  -30.5243 -100.3589 C   0  0  1  0  0  0  0  0  0  0  0  0
   44.9299  -30.4487  -99.7895 O   0  0  0  0  0  0  0  0  0  0  0  0
   46.1555  -30.8058 -101.8883 C   0  0  2  0  0  0  0  0  0  0  0  0
   46.1593  -24.6242 -105.5585 O   0  0  0  0  0  0  0  0  0  0  0  0
   51.2770  -32.1093 -102.4074 N   0  0  0  0  0  0  0  0  0  0  0  0
   50.7502  -31.1019 -101.6687 C   0  0  0  0  0  0  0  0  0  0  0  0
   49.4180  -30.9022 -101.5884 N   0  0  0  0  0  0  0  0  0  0  0  0
   48.5689  -31.6473 -102.3146 C   0  0  0  0  0  0  0  0  0  0  0  0
   49.0894  -32.7048 -103.1471 C   0  0  0  0  0  0  0  0  0  0  0  0
   50.5001  -32.9171 -103.1597 C   0  0  0  0  0  0  0  0  0  0  0  0
   51.0640  -33.9170 -103.9257 N   0  0  0  0  0  0  0  0  0  0  0  0
   48.0473  -33.2802 -103.7586 N   0  0  0  0  0  0  0  0  0  0  0  0
   46.9563  -32.6772 -103.3905 C   0  0  0  0  0  0  0  0  0  0  0  0
   47.2134  -31.6658 -102.4945 N   0  0  0  0  0  0  0  0  0  0  0  0
  2  1  1  6  0  0  0
  2  3  1  0  0  0  0
  2  5  1  0  0  0  0
  3  4  1  0  0  0  0
  3 17  1  0  0  0  0
  5  6  1  0  0  0  0
  7  6  1  6  0  0  0
  7  8  1  0  0  0  0
  7  9  1  0  0  0  0
 10  9  1  6  0  0  0
 10 11  1  0  0  0  0
 10 12  1  0  0  0  0
 11 16  1  0  0  0  0
 12 13  1  1  0  0  0
 12 14  1  0  0  0  0
 14 15  1  6  0  0  0
 14 16  1  0  0  0  0
 16 27  1  6  0  0  0
 18 19  2  0  0  0  0
 18 23  1  0  0  0  0
 19 20  1  0  0  0  0
 20 21  2  0  0  0  0
 21 22  1  0  0  0  0
 21 27  1  0  0  0  0
 22 23  2  0  0  0  0
 22 25  1  0  0  0  0
 23 24  1  0  0  0  0
 25 26  2  0  0  0  0
 26 27  1  0  0  0  0
M  END
>  <CHROM.1>
126.35592530,-171.83308074,-80.10374400,-71.43146085,-85.76403187,75.17950835
69.05769052,47.56359276,-29.19409976,-103.01343725,-2.16362065,-0.91906035
2.23179900

>  <Name>
ligand

>  <RI>
0

>  <Rbt.Current_Directory>
/home/itssahil/PROJECTS/Mol_Feturizer/Test_systems_manuscript/rnas/4l81

>  <Rbt.Executable>
rbdock ($Id: //depot/dev/client3/rdock/2013.1/src/exe/rbdock.cxx#4 $)

>  <Rbt.Library>
libRbt.so (2013.1, Build901 2013/11/27)

>  <Rbt.Parameter_File>
/export/apps/rDock/src/rDock_2013.1_src/data/scripts/dock_solv.prm

>  <Rbt.Receptor>
prm/pocket_docking_4.prm

>  <SCORE>
-15.6295

>  <SCORE.INTER>
-12.0075

>  <SCORE.INTER.CONST>
1

>  <SCORE.INTER.POLAR>
0

>  <SCORE.INTER.ROT>
7

>  <SCORE.INTER.SOLV>
14.8535

>  <SCORE.INTER.VDW>
-21.2228

>  <SCORE.INTER.norm>
-0.444722

>  <SCORE.INTRA>
-3.62201

>  <SCORE.INTRA.DIHEDRAL>
-1.70916

>  <SCORE.INTRA.DIHEDRAL.0>
8.34559

>  <SCORE.INTRA.POLAR>
0

>  <SCORE.INTRA.POLAR.0>
0

>  <SCORE.INTRA.REPUL>
0

>  <SCORE.INTRA.REPUL.0>
0

>  <SCORE.INTRA.SOLV>
-1.12037

>  <SCORE.INTRA.SOLV.lig_0>
-48.829

>  <SCORE.INTRA.VDW>
-2.20724

>  <SCORE.INTRA.VDW.0>
-1.77092

>  <SCORE.INTRA.norm>
-0.134148

>  <SCORE.RESTR>
0

>  <SCORE.RESTR.CAVITY>
0

>  <SCORE.RESTR.norm>
0

>  <SCORE.SYSTEM>
0

>  <SCORE.SYSTEM.CONST>
0

>  <SCORE.SYSTEM.DIHEDRAL>
0

>  <SCORE.SYSTEM.SOLV>
0

>  <SCORE.SYSTEM.norm>
0

>  <SCORE.heavy>
27

>  <SCORE.norm>
-0.578871

>  <RMSD>
4.433

$$$$
ligand
 OpenBabel02271912153D
libRbt.so/2013.1/901 2013/11/27
 27 29  0  0  0  0  0  0  0  0999 V2000
   48.0549  -30.1418 -106.3213 N   0  0  0  0  0  0  0  0  0  0  0  0
   47.3793  -28.9008 -105.9261 C   0  0  2  0  0  0  0  0  0  0  0  0
   47.4174  -27.9165 -107.0761 C   0  0  0  0  0  0  0  0  0  0  0  0
   48.3735  -27.8966 -107.8365 O   0  0  0  0  0  0  0  0  0  0  0  0
   48.0532  -28.2622 -104.7041 C   0  0  0  0  0  0  0  0  0  0  0  0
   47.1997  -27.1334 -104.1435 C   0  0  0  0  0  0  0  0  0  0  0  0
   47.9141  -26.3607 -102.6415 S   0  0  2  0  0  0  0  0  0  0  0  0
   49.6498  -26.0423 -103.0948 C   0  0  0  0  0  0  0  0  0  0  0  0
   48.1344  -27.8935 -101.7411 C   0  0  0  0  0  0  0  0  0  0  0  0
   46.8412  -28.5485 -101.3344 C   0  0  1  0  0  0  0  0  0  0  0  0
   46.4299  -29.4155 -102.4049 O   0  0  0  0  0  0  0  0  0  0  0  0
   47.2567  -29.4241 -100.2216 C   0  0  1  0  0  0  0  0  0  0  0  0
   46.9928  -28.7764  -98.9781 O   0  0  0  0  0  0  0  0  0  0  0  0
   46.3513  -30.6055 -100.3849 C   0  0  1  0  0  0  0  0  0  0  0  0
   45.1072  -30.3845  -99.6887 O   0  0  0  0  0  0  0  0  0  0  0  0
   46.0852  -30.7357 -101.9147 C   0  0  2  0  0  0  0  0  0  0  0  0
   46.4820  -27.1605 -107.2720 O   0  0  0  0  0  0  0  0  0  0  0  0
   50.8772  -32.7581 -102.9848 N   0  0  0  0  0  0  0  0  0  0  0  0
   50.5754  -31.7563 -102.1226 C   0  0  0  0  0  0  0  0  0  0  0  0
   49.3024  -31.3621 -101.9100 N   0  0  0  0  0  0  0  0  0  0  0  0
   48.2933  -31.8950 -102.6180 C   0  0  0  0  0  0  0  0  0  0  0  0
   48.5738  -32.9362 -103.5769 C   0  0  0  0  0  0  0  0  0  0  0  0
   49.9271  -33.3612 -103.7301 C   0  0  0  0  0  0  0  0  0  0  0  0
   50.2646  -34.3588 -104.6221 N   0  0  0  0  0  0  0  0  0  0  0  0
   47.4106  -33.2833 -104.1402 N   0  0  0  0  0  0  0  0  0  0  0  0
   46.4612  -32.5569 -103.6298 C   0  0  0  0  0  0  0  0  0  0  0  0
   46.9431  -31.6871 -102.6797 N   0  0  0  0  0  0  0  0  0  0  0  0
  2  1  1  6  0  0  0
  2  3  1  0  0  0  0
  2  5  1  0  0  0  0
  3  4  1  0  0  0  0
  3 17  1  0  0  0  0
  5  6  1  0  0  0  0
  7  6  1  6  0  0  0
  7  8  1  0  0  0  0
  7  9  1  0  0  0  0
 10  9  1  6  0  0  0
 10 11  1  0  0  0  0
 10 12  1  0  0  0  0
 11 16  1  0  0  0  0
 12 13  1  1  0  0  0
 12 14  1  0  0  0  0
 14 15  1  1  0  0  0
 14 16  1  0  0  0  0
 16 27  1  6  0  0  0
 18 19  2  0  0  0  0
 18 23  1  0  0  0  0
 19 20  1  0  0  0  0
 20 21  2  0  0  0  0
 21 22  1  0  0  0  0
 21 27  1  0  0  0  0
 22 23  2  0  0  0  0
 22 25  1  0  0  0  0
 23 24  1  0  0  0  0
 25 26  2  0  0  0  0
 26 27  1  0  0  0  0
M  END
>  <CHROM.1>
-33.16480759,-169.23637988,177.91572375,48.41526240,-68.32122658,88.88910571
69.83338671,47.83444667,-29.79540802,-103.21903806,-1.94268227,-1.23417436
2.30327862

>  <Name>
ligand

>  <RI>
0

>  <Rbt.Current_Directory>
/home/itssahil/PROJECTS/Mol_Feturizer/Test_systems_manuscript/rnas/4l81

>  <Rbt.Executable>
rbdock ($Id: //depot/dev/client3/rdock/2013.1/src/exe/rbdock.cxx#4 $)

>  <Rbt.Library>
libRbt.so (2013.1, Build901 2013/11/27)

>  <Rbt.Parameter_File>
/export/apps/rDock/src/rDock_2013.1_src/data/scripts/dock_solv.prm

>  <Rbt.Receptor>
prm/pocket_docking_5.prm

>  <SCORE>
-13.9854

>  <SCORE.INTER>
-11.7495

>  <SCORE.INTER.CONST>
1

>  <SCORE.INTER.POLAR>
0

>  <SCORE.INTER.ROT>
7

>  <SCORE.INTER.SOLV>
11.9971

>  <SCORE.INTER.VDW>
-20.0987

>  <SCORE.INTER.norm>
-0.435165

>  <SCORE.INTRA>
-2.2359

>  <SCORE.INTRA.DIHEDRAL>
-2.1392

>  <SCORE.INTRA.DIHEDRAL.0>
8.34559

>  <SCORE.INTRA.POLAR>
0

>  <SCORE.INTRA.POLAR.0>
0

>  <SCORE.INTRA.REPUL>
0

>  <SCORE.INTRA.REPUL.0>
0

>  <SCORE.INTRA.SOLV>
-0.894117

>  <SCORE.INTRA.SOLV.lig_0>
-48.829

>  <SCORE.INTRA.VDW>
-0.719245

>  <SCORE.INTRA.VDW.0>
-1.77092

>  <SCORE.INTRA.norm>
-0.0828112

>  <SCORE.RESTR>
0

>  <SCORE.RESTR.CAVITY>
0

>  <SCORE.RESTR.norm>
0

>  <SCORE.SYSTEM>
0

>  <SCORE.SYSTEM.CONST>
0

>  <SCORE.SYSTEM.DIHEDRAL>
0

>  <SCORE.SYSTEM.SOLV>
0

>  <SCORE.SYSTEM.norm>
0

>  <SCORE.heavy>
27

>  <SCORE.norm>
-0.517976

>  <RMSD>
4.471

$$$$
ligand
 OpenBabel02271912153D
libRbt.so/2013.1/901 2013/11/27
 27 29  0  0  0  0  0  0  0  0999 V2000
   46.4861  -26.3053 -107.8678 N   0  0  0  0  0  0  0  0  0  0  0  0
   46.3271  -26.7516 -106.4791 C   0  0  2  0  0  0  0  0  0  0  0  0
   45.5940  -25.6890 -105.6878 C   0  0  0  0  0  0  0  0  0  0  0  0
   44.6817  -26.0014 -104.9376 O   0  0  0  0  0  0  0  0  0  0  0  0
   47.6866  -27.0135 -105.8171 C   0  0  0  0  0  0  0  0  0  0  0  0
   47.5107  -27.7210 -104.4809 C   0  0  0  0  0  0  0  0  0  0  0  0
   47.0027  -26.5953 -103.1251 S   0  0  2  0  0  0  0  0  0  0  0  0
   48.4921  -25.5967 -102.8023 C   0  0  0  0  0  0  0  0  0  0  0  0
   47.1834  -27.8031 -101.8146 C   0  0  0  0  0  0  0  0  0  0  0  0
   45.9583  -28.6513 -101.5993 C   0  0  1  0  0  0  0  0  0  0  0  0
   45.8637  -29.5764 -102.6957 O   0  0  0  0  0  0  0  0  0  0  0  0
   46.3189  -29.4464 -100.4096 C   0  0  1  0  0  0  0  0  0  0  0  0
   45.7613  -28.8432  -99.2431 O   0  0  0  0  0  0  0  0  0  0  0  0
   45.6450  -30.7559 -100.6799 C   0  0  1  0  0  0  0  0  0  0  0  0
   44.2859  -30.7301 -100.1966 O   0  0  0  0  0  0  0  0  0  0  0  0
   45.6523  -30.9324 -102.2281 C   0  0  2  0  0  0  0  0  0  0  0  0
   45.9290  -24.5200 -105.7671 O   0  0  0  0  0  0  0  0  0  0  0  0
   50.7784  -32.3138 -102.3398 N   0  0  0  0  0  0  0  0  0  0  0  0
   50.1868  -31.3927 -101.5402 C   0  0  0  0  0  0  0  0  0  0  0  0
   48.8575  -31.1646 -101.5830 N   0  0  0  0  0  0  0  0  0  0  0  0
   48.0850  -31.7857 -102.4890 C   0  0  0  0  0  0  0  0  0  0  0  0
   48.6802  -32.7446 -103.3884 C   0  0  0  0  0  0  0  0  0  0  0  0
   50.0797  -32.9960 -103.2716 C   0  0  0  0  0  0  0  0  0  0  0  0
   50.7114  -33.9075 -104.0931 N   0  0  0  0  0  0  0  0  0  0  0  0
   47.7056  -33.2062 -104.1808 N   0  0  0  0  0  0  0  0  0  0  0  0
   46.5894  -32.6219 -103.8612 C   0  0  0  0  0  0  0  0  0  0  0  0
   46.7587  -31.7403 -102.8192 N   0  0  0  0  0  0  0  0  0  0  0  0
  2  1  1  6  0  0  0
  2  3  1  0  0  0  0
  2  5  1  0  0  0  0
  3  4  1  0  0  0  0
  3 17  1  0  0  0  0
  5  6  1  0  0  0  0
  7  6  1  6  0  0  0
  7  8  1  0  0  0  0
  7  9  1  0  0  0  0
 10  9  1  6  0  0  0
 10 11  1  0  0  0  0
 10 12  1  0  0  0  0
 11 16  1  0  0  0  0
 12 13  1  1  0  0  0
 12 14  1  0  0  0  0
 14 15  1  6  0  0  0
 14 16  1  0  0  0  0
 16 27  1  1  0  0  0
 18 19  2  0  0  0  0
 18 23  1  0  0  0  0
 19 20  1  0  0  0  0
 20 21  2  0  0  0  0
 21 22  1  0  0  0  0
 21 27  1  0  0  0  0
 22 23  2  0  0  0  0
 22 25  1  0  0  0  0
 23 24  1  0  0  0  0
 25 26  2  0  0  0  0
 26 27  1  0  0  0  0
M  END
>  <CHROM.1>
134.58851261,-169.25972833,-78.44852896,-71.07718980,-86.56993108,73.03686794
73.79845618,47.14537458,-29.27621792,-103.14986486,-2.07289335,-0.88655424
2.34140692

>  <Name>
ligand

>  <RI>
0

>  <Rbt.Current_Directory>
/home/itssahil/PROJECTS/Mol_Feturizer/Test_systems_manuscript/rnas/4l81

>  <Rbt.Executable>
rbdock ($Id: //depot/dev/client3/rdock/2013.1/src/exe/rbdock.cxx#4 $)

>  <Rbt.Library>
libRbt.so (2013.1, Build901 2013/11/27)

>  <Rbt.Parameter_File>
/export/apps/rDock/src/rDock_2013.1_src/data/scripts/dock_solv.prm

>  <Rbt.Receptor>
prm/pocket_docking_4.prm

>  <SCORE>
-15.6652

>  <SCORE.INTER>
-12.0928

>  <SCORE.INTER.CONST>
1

>  <SCORE.INTER.POLAR>
0

>  <SCORE.INTER.ROT>
7

>  <SCORE.INTER.SOLV>
14.8568

>  <SCORE.INTER.VDW>
-21.2808

>  <SCORE.INTER.norm>
-0.447882

>  <SCORE.INTRA>
-3.58934

>  <SCORE.INTRA.DIHEDRAL>
-1.86859

>  <SCORE.INTRA.DIHEDRAL.0>
8.34559

>  <SCORE.INTRA.POLAR>
0

>  <SCORE.INTRA.POLAR.0>
0

>  <SCORE.INTRA.REPUL>
0

>  <SCORE.INTRA.REPUL.0>
0

>  <SCORE.INTRA.SOLV>
-1.10873

>  <SCORE.INTRA.SOLV.lig_0>
-48.829

>  <SCORE.INTRA.VDW>
-2.10068

>  <SCORE.INTRA.VDW.0>
-1.77092

>  <SCORE.INTRA.norm>
-0.132939

>  <SCORE.RESTR>
0.0169401

>  <SCORE.RESTR.CAVITY>
0.0169401

>  <SCORE.RESTR.norm>
0.000627412

>  <SCORE.SYSTEM>
0

>  <SCORE.SYSTEM.CONST>
0

>  <SCORE.SYSTEM.DIHEDRAL>
0

>  <SCORE.SYSTEM.SOLV>
0

>  <SCORE.SYSTEM.norm>
0

>  <SCORE.heavy>
27

>  <SCORE.norm>
-0.580193

>  <RMSD>
4.504

$$$$
ligand
 OpenBabel02271912153D
libRbt.so/2013.1/901 2013/11/27
 27 29  0  0  0  0  0  0  0  0999 V2000
   45.8585  -26.3768 -107.1361 N   0  0  0  0  0  0  0  0  0  0  0  0
   45.9887  -25.4133 -106.0373 C   0  0  2  0  0  0  0  0  0  0  0  0
   46.1362  -24.0171 -106.6044 C   0  0  0  0  0  0  0  0  0  0  0  0
   45.6597  -23.0601 -106.0129 O   0  0  0  0  0  0  0  0  0  0  0  0
   47.2106  -25.7249 -105.1625 C   0  0  0  0  0  0  0  0  0  0  0  0
   47.1690  -27.1636 -104.6672 C   0  0  0  0  0  0  0  0  0  0  0  0
   48.6933  -27.6708 -103.7826 S   0  0  2  0  0  0  0  0  0  0  0  0
   50.0064  -27.4931 -105.0331 C   0  0  0  0  0  0  0  0  0  0  0  0
   48.4038  -29.4327 -103.9262 C   0  0  0  0  0  0  0  0  0  0  0  0
   49.1552  -30.2548 -102.9131 C   0  0  1  0  0  0  0  0  0  0  0  0
   48.6844  -31.6099 -103.0076 O   0  0  0  0  0  0  0  0  0  0  0  0
   50.5307  -30.2505 -103.4474 C   0  0  1  0  0  0  0  0  0  0  0  0
   51.2988  -29.2468 -102.7854 O   0  0  0  0  0  0  0  0  0  0  0  0
   51.0294  -31.6100 -103.0665 C   0  0  1  0  0  0  0  0  0  0  0  0
   51.5920  -31.5843 -101.7383 O   0  0  0  0  0  0  0  0  0  0  0  0
   49.7858  -32.5485 -103.0959 C   0  0  2  0  0  0  0  0  0  0  0  0
   46.7584  -23.8329 -107.6358 O   0  0  0  0  0  0  0  0  0  0  0  0
   46.9133  -33.4713 -107.4656 N   0  0  0  0  0  0  0  0  0  0  0  0
   46.6762  -32.5515 -106.4983 C   0  0  0  0  0  0  0  0  0  0  0  0
   47.5134  -32.3893 -105.4525 N   0  0  0  0  0  0  0  0  0  0  0  0
   48.5705  -33.2013 -105.2893 C   0  0  0  0  0  0  0  0  0  0  0  0
   48.8378  -34.2220 -106.2738 C   0  0  0  0  0  0  0  0  0  0  0  0
   47.9584  -34.3225 -107.3927 C   0  0  0  0  0  0  0  0  0  0  0  0
   48.1610  -35.2693 -108.3761 N   0  0  0  0  0  0  0  0  0  0  0  0
   49.9296  -34.8848 -105.8745 N   0  0  0  0  0  0  0  0  0  0  0  0
   50.3433  -34.3787 -104.7510 C   0  0  0  0  0  0  0  0  0  0  0  0
   49.5495  -33.3320 -104.3435 N   0  0  0  0  0  0  0  0  0  0  0  0
  2  1  1  6  0  0  0
  2  3  1  0  0  0  0
  2  5  1  0  0  0  0
  3  4  1  0  0  0  0
  3 17  1  0  0  0  0
  5  6  1  0  0  0  0
  7  6  1  6  0  0  0
  7  8  1  0  0  0  0
  7  9  1  0  0  0  0
 10  9  1  6  0  0  0
 10 11  1  0  0  0  0
 10 12  1  0  0  0  0
 11 16  1  0  0  0  0
 12 13  1  1  0  0  0
 12 14  1  0  0  0  0
 14 15  1  1  0  0  0
 14 16  1  0  0  0  0
 16 27  1  6  0  0  0
 18 19  2  0  0  0  0
 18 23  1  0  0  0  0
 19 20  1  0  0  0  0
 20 21  2  0  0  0  0
 21 22  1  0  0  0  0
 21 27  1  0  0  0  0
 22 23  2  0  0  0  0
 22 25  1  0  0  0  0
 23 24  1  0  0  0  0
 25 26  2  0  0  0  0
 26 27  1  0  0  0  0
M  END
>  <CHROM.1>
145.87740444,-54.22027737,173.09626531,-61.11162268,-159.01851376,171.53918742
3.40219292,48.48398829,-29.95637315,-105.00508090,2.02085385,-0.87319904
0.26819847

>  <Name>
ligand

>  <RI>
0

>  <Rbt.Current_Directory>
/home/itssahil/PROJECTS/Mol_Feturizer/Test_systems_manuscript/rnas/4l81

>  <Rbt.Executable>
rbdock ($Id: //depot/dev/client3/rdock/2013.1/src/exe/rbdock.cxx#4 $)

>  <Rbt.Library>
libRbt.so (2013.1, Build901 2013/11/27)

>  <Rbt.Parameter_File>
/export/apps/rDock/src/rDock_2013.1_src/data/scripts/dock_solv.prm

>  <Rbt.Receptor>
prm/pocket_docking_8.prm

>  <SCORE>
-7.02995

>  <SCORE.INTER>
-5.37841

>  <SCORE.INTER.CONST>
1

>  <SCORE.INTER.POLAR>
0

>  <SCORE.INTER.ROT>
7

>  <SCORE.INTER.SOLV>
9.58211

>  <SCORE.INTER.VDW>
-15.0463

>  <SCORE.INTER.norm>
-0.1992

>  <SCORE.INTRA>
-1.65154

>  <SCORE.INTRA.DIHEDRAL>
-2.37764

>  <SCORE.INTRA.DIHEDRAL.0>
8.34559

>  <SCORE.INTRA.POLAR>
0

>  <SCORE.INTRA.POLAR.0>
0

>  <SCORE.INTRA.REPUL>
0

>  <SCORE.INTRA.REPUL.0>
0

>  <SCORE.INTRA.SOLV>
-0.196208

>  <SCORE.INTRA.SOLV.lig_0>
-48.829

>  <SCORE.INTRA.VDW>
-0.364615

>  <SCORE.INTRA.VDW.0>
-1.77092

>  <SCORE.INTRA.norm>
-0.061168

>  <SCORE.RESTR>
0

>  <SCORE.RESTR.CAVITY>
0

>  <SCORE.RESTR.norm>
0

>  <SCORE.SYSTEM>
0

>  <SCORE.SYSTEM.CONST>
0

>  <SCORE.SYSTEM.DIHEDRAL>
0

>  <SCORE.SYSTEM.SOLV>
0

>  <SCORE.SYSTEM.norm>
0

>  <SCORE.heavy>
27

>  <SCORE.norm>
-0.260368

>  <RMSD>
4.586

$$$$
ligand
 OpenBabel02271912153D
libRbt.so/2013.1/901 2013/11/27
 27 29  0  0  0  0  0  0  0  0999 V2000
   46.9235  -27.9884 -106.6294 N   0  0  0  0  0  0  0  0  0  0  0  0
   48.1204  -27.1794 -106.3733 C   0  0  2  0  0  0  0  0  0  0  0  0
   48.6858  -26.6835 -107.6875 C   0  0  0  0  0  0  0  0  0  0  0  0
   48.6518  -27.3965 -108.6791 O   0  0  0  0  0  0  0  0  0  0  0  0
   49.1991  -27.9923 -105.6446 C   0  0  0  0  0  0  0  0  0  0  0  0
   48.7146  -28.4225 -104.2672 C   0  0  0  0  0  0  0  0  0  0  0  0
   48.5660  -27.0302 -103.0828 S   0  0  2  0  0  0  0  0  0  0  0  0
   50.2654  -26.3882 -102.9444 C   0  0  0  0  0  0  0  0  0  0  0  0
   48.5298  -28.0519 -101.6118 C   0  0  0  0  0  0  0  0  0  0  0  0
   47.1663  -28.6038 -101.2909 C   0  0  1  0  0  0  0  0  0  0  0  0
   46.7391  -29.4017 -102.4079 O   0  0  0  0  0  0  0  0  0  0  0  0
   47.4476  -29.5430 -100.1879 C   0  0  1  0  0  0  0  0  0  0  0  0
   47.1755  -28.9102  -98.9386 O   0  0  0  0  0  0  0  0  0  0  0  0
   46.4550  -30.6367 -100.4340 C   0  0  1  0  0  0  0  0  0  0  0  0
   45.1997  -30.3287  -99.7932 O   0  0  0  0  0  0  0  0  0  0  0  0
   46.2586  -30.7004 -101.9784 C   0  0  2  0  0  0  0  0  0  0  0  0
   49.1481  -25.5595 -107.7751 O   0  0  0  0  0  0  0  0  0  0  0  0
   50.9716  -32.8623 -103.1240 N   0  0  0  0  0  0  0  0  0  0  0  0
   50.7189  -31.8189 -102.2961 C   0  0  0  0  0  0  0  0  0  0  0  0
   49.4618  -31.3906 -102.0571 N   0  0  0  0  0  0  0  0  0  0  0  0
   48.4187  -31.9326 -102.7064 C   0  0  0  0  0  0  0  0  0  0  0  0
   48.6459  -33.0191 -103.6286 C   0  0  0  0  0  0  0  0  0  0  0  0
   49.9848  -33.4773 -103.8096 C   0  0  0  0  0  0  0  0  0  0  0  0
   50.2721  -34.5185 -104.6687 N   0  0  0  0  0  0  0  0  0  0  0  0
   47.4574  -33.3664 -104.1360 N   0  0  0  0  0  0  0  0  0  0  0  0
   46.5401  -32.6000 -103.6252 C   0  0  0  0  0  0  0  0  0  0  0  0
   47.0712  -31.7005 -102.7306 N   0  0  0  0  0  0  0  0  0  0  0  0
  2  1  1  6  0  0  0
  2  3  1  0  0  0  0
  2  5  1  0  0  0  0
  3  4  1  0  0  0  0
  3 17  1  0  0  0  0
  5  6  1  0  0  0  0
  7  6  1  6  0  0  0
  7  8  1  0  0  0  0
  7  9  1  0  0  0  0
 10  9  1  6  0  0  0
 10 11  1  0  0  0  0
 10 12  1  0  0  0  0
 11 16  1  0  0  0  0
 12 13  1  1  0  0  0
 12 14  1  0  0  0  0
 14 15  1  1  0  0  0
 14 16  1  0  0  0  0
 16 27  1  6  0  0  0
 18 19  2  0  0  0  0
 18 23  1  0  0  0  0
 19 20  1  0  0  0  0
 20 21  2  0  0  0  0
 21 22  1  0  0  0  0
 21 27  1  0  0  0  0
 22 23  2  0  0  0  0
 22 25  1  0  0  0  0
 23 24  1  0  0  0  0
 25 26  2  0  0  0  0
 26 27  1  0  0  0  0
M  END
>  <CHROM.1>
-36.62385359,-63.59451131,-70.03692887,-61.65756669,-83.24960096,59.74145875
62.34675703,48.24608077,-29.68008534,-103.41254672,-1.21468292,-1.18740971
2.68321181

>  <Name>
ligand

>  <RI>
0

>  <Rbt.Current_Directory>
/home/itssahil/PROJECTS/Mol_Feturizer/Test_systems_manuscript/rnas/4l81

>  <Rbt.Executable>
rbdock ($Id: //depot/dev/client3/rdock/2013.1/src/exe/rbdock.cxx#4 $)

>  <Rbt.Library>
libRbt.so (2013.1, Build901 2013/11/27)

>  <Rbt.Parameter_File>
/export/apps/rDock/src/rDock_2013.1_src/data/scripts/dock_solv.prm

>  <Rbt.Receptor>
prm/pocket_docking_6.prm

>  <SCORE>
-16.1297

>  <SCORE.INTER>
-12.2196

>  <SCORE.INTER.CONST>
1

>  <SCORE.INTER.POLAR>
0

>  <SCORE.INTER.ROT>
7

>  <SCORE.INTER.SOLV>
11.9193

>  <SCORE.INTER.VDW>
-20.3862

>  <SCORE.INTER.norm>
-0.452578

>  <SCORE.INTRA>
-3.9101

>  <SCORE.INTRA.DIHEDRAL>
-3.6964

>  <SCORE.INTRA.DIHEDRAL.0>
8.34559

>  <SCORE.INTRA.POLAR>
0

>  <SCORE.INTRA.POLAR.0>
0

>  <SCORE.INTRA.REPUL>
0

>  <SCORE.INTRA.REPUL.0>
0

>  <SCORE.INTRA.SOLV>
-0.0245631

>  <SCORE.INTRA.SOLV.lig_0>
-48.829

>  <SCORE.INTRA.VDW>
-2.04962

>  <SCORE.INTRA.VDW.0>
-1.77092

>  <SCORE.INTRA.norm>
-0.144819

>  <SCORE.RESTR>
0

>  <SCORE.RESTR.CAVITY>
0

>  <SCORE.RESTR.norm>
0

>  <SCORE.SYSTEM>
0

>  <SCORE.SYSTEM.CONST>
0

>  <SCORE.SYSTEM.DIHEDRAL>
0

>  <SCORE.SYSTEM.SOLV>
0

>  <SCORE.SYSTEM.norm>
0

>  <SCORE.heavy>
27

>  <SCORE.norm>
-0.597396

>  <RMSD>
4.611

$$$$
ligand
 OpenBabel02271912153D
libRbt.so/2013.1/901 2013/11/27
 27 29  0  0  0  0  0  0  0  0999 V2000
   46.3841  -27.2044 -106.1944 N   0  0  0  0  0  0  0  0  0  0  0  0
   47.4249  -28.1582 -106.5940 C   0  0  2  0  0  0  0  0  0  0  0  0
   46.8710  -29.5661 -106.5313 C   0  0  0  0  0  0  0  0  0  0  0  0
   45.9473  -29.8299 -105.7764 O   0  0  0  0  0  0  0  0  0  0  0  0
   48.6503  -28.0661 -105.6746 C   0  0  0  0  0  0  0  0  0  0  0  0
   48.2734  -28.3906 -104.2361 C   0  0  0  0  0  0  0  0  0  0  0  0
   47.4500  -26.9993 -103.3702 S   0  0  2  0  0  0  0  0  0  0  0  0
   48.8128  -25.8523 -102.9872 C   0  0  0  0  0  0  0  0  0  0  0  0
   47.3236  -27.8261 -101.7862 C   0  0  0  0  0  0  0  0  0  0  0  0
   46.0578  -28.6240 -101.6185 C   0  0  1  0  0  0  0  0  0  0  0  0
   45.9530  -29.5248 -102.7341 O   0  0  0  0  0  0  0  0  0  0  0  0
   46.3522  -29.4547 -100.4349 C   0  0  1  0  0  0  0  0  0  0  0  0
   45.7900  -28.8485  -99.2722 O   0  0  0  0  0  0  0  0  0  0  0  0
   45.6301  -30.7288 -100.7470 C   0  0  1  0  0  0  0  0  0  0  0  0
   44.2610  -30.6526 -100.2987 O   0  0  0  0  0  0  0  0  0  0  0  0
   45.6712  -30.8783 -102.2975 C   0  0  2  0  0  0  0  0  0  0  0  0
   47.3186  -30.4378 -107.2557 O   0  0  0  0  0  0  0  0  0  0  0  0
   50.7503  -32.4268 -102.3481 N   0  0  0  0  0  0  0  0  0  0  0  0
   50.1800  -31.4854 -101.5567 C   0  0  0  0  0  0  0  0  0  0  0  0
   48.8594  -31.2140 -101.6151 N   0  0  0  0  0  0  0  0  0  0  0  0
   48.0775  -31.8112 -102.5292 C   0  0  0  0  0  0  0  0  0  0  0  0
   48.6513  -32.7905 -103.4203 C   0  0  0  0  0  0  0  0  0  0  0  0
   50.0404  -33.0874 -103.2871 C   0  0  0  0  0  0  0  0  0  0  0  0
   50.6513  -34.0205 -104.0999 N   0  0  0  0  0  0  0  0  0  0  0  0
   47.6713  -33.2214 -104.2233 N   0  0  0  0  0  0  0  0  0  0  0  0
   46.5713  -32.6004 -103.9174 C   0  0  0  0  0  0  0  0  0  0  0  0
   46.7573  -31.7230 -102.8747 N   0  0  0  0  0  0  0  0  0  0  0  0
  2  1  1  1  0  0  0
  2  3  1  0  0  0  0
  2  5  1  0  0  0  0
  3  4  1  0  0  0  0
  3 17  1  0  0  0  0
  5  6  1  0  0  0  0
  7  6  1  6  0  0  0
  7  8  1  0  0  0  0
  7  9  1  0  0  0  0
 10  9  1  6  0  0  0
 10 11  1  0  0  0  0
 10 12  1  0  0  0  0
 11 16  1  0  0  0  0
 12 13  1  1  0  0  0
 12 14  1  0  0  0  0
 14 15  1  6  0  0  0
 14 16  1  0  0  0  0
 16 27  1  1  0  0  0
 18 19  2  0  0  0  0
 18 23  1  0  0  0  0
 19 20  1  0  0  0  0
 20 21  2  0  0  0  0
 21 22  1  0  0  0  0
 21 27  1  0  0  0  0
 22 23  2  0  0  0  0
 22 25  1  0  0  0  0
 23 24  1  0  0  0  0
 25 26  2  0  0  0  0
 26 27  1  0  0  0  0
M  END
>  <CHROM.1>
-26.05590606,60.85033930,-78.51994837,-75.96859667,-89.25669057,53.73791408
72.26673122,47.44350007,-29.98846068,-103.25043749,-2.31433065,-1.06003064
2.25328897

>  <Name>
ligand

>  <RI>
0

>  <Rbt.Current_Directory>
/home/itssahil/PROJECTS/Mol_Feturizer/Test_systems_manuscript/rnas/4l81

>  <Rbt.Executable>
rbdock ($Id: //depot/dev/client3/rdock/2013.1/src/exe/rbdock.cxx#4 $)

>  <Rbt.Library>
libRbt.so (2013.1, Build901 2013/11/27)

>  <Rbt.Parameter_File>
/export/apps/rDock/src/rDock_2013.1_src/data/scripts/dock_solv.prm

>  <Rbt.Receptor>
prm/pocket_docking_5.prm

>  <SCORE>
-13.7049

>  <SCORE.INTER>
-10.3331

>  <SCORE.INTER.CONST>
1

>  <SCORE.INTER.POLAR>
0

>  <SCORE.INTER.ROT>
7

>  <SCORE.INTER.SOLV>
11.9389

>  <SCORE.INTER.VDW>
-19.135

>  <SCORE.INTER.norm>
-0.382707

>  <SCORE.INTRA>
-3.37545

>  <SCORE.INTRA.DIHEDRAL>
-2.2809

>  <SCORE.INTRA.DIHEDRAL.0>
8.34559

>  <SCORE.INTRA.POLAR>
0

>  <SCORE.INTRA.POLAR.0>
0

>  <SCORE.INTRA.REPUL>
0

>  <SCORE.INTRA.REPUL.0>
0

>  <SCORE.INTRA.SOLV>
1.34137

>  <SCORE.INTRA.SOLV.lig_0>
-48.829

>  <SCORE.INTRA.VDW>
-2.90569

>  <SCORE.INTRA.VDW.0>
-1.77092

>  <SCORE.INTRA.norm>
-0.125017

>  <SCORE.RESTR>
0.00367433

>  <SCORE.RESTR.CAVITY>
0.00367433

>  <SCORE.RESTR.norm>
0.000136086

>  <SCORE.SYSTEM>
0

>  <SCORE.SYSTEM.CONST>
0

>  <SCORE.SYSTEM.DIHEDRAL>
0

>  <SCORE.SYSTEM.SOLV>
0

>  <SCORE.SYSTEM.norm>
0

>  <SCORE.heavy>
27

>  <SCORE.norm>
-0.507587

>  <RMSD>
4.617

$$$$
ligand
 OpenBabel02271912153D
libRbt.so/2013.1/901 2013/11/27
 27 29  0  0  0  0  0  0  0  0999 V2000
   47.8212  -26.2186 -107.9404 N   0  0  0  0  0  0  0  0  0  0  0  0
   47.6182  -25.4623 -106.6996 C   0  0  2  0  0  0  0  0  0  0  0  0
   48.4726  -24.2124 -106.7242 C   0  0  0  0  0  0  0  0  0  0  0  0
   49.6048  -24.2510 -107.1816 O   0  0  0  0  0  0  0  0  0  0  0  0
   47.9956  -26.2968 -105.4682 C   0  0  0  0  0  0  0  0  0  0  0  0
   47.5514  -25.6039 -104.1878 C   0  0  0  0  0  0  0  0  0  0  0  0
   48.1381  -26.4442 -102.6669 S   0  0  2  0  0  0  0  0  0  0  0  0
   49.9077  -26.7401 -102.9835 C   0  0  0  0  0  0  0  0  0  0  0  0
   47.4998  -28.0609 -103.1000 C   0  0  0  0  0  0  0  0  0  0  0  0
   47.2129  -28.9377 -101.9102 C   0  0  1  0  0  0  0  0  0  0  0  0
   46.5743  -30.1340 -102.3874 O   0  0  0  0  0  0  0  0  0  0  0  0
   48.5633  -29.3323 -101.4646 C   0  0  1  0  0  0  0  0  0  0  0  0
   48.9779  -28.4912 -100.3894 O   0  0  0  0  0  0  0  0  0  0  0  0
   48.3443  -30.7275 -100.9670 C   0  0  1  0  0  0  0  0  0  0  0  0
   47.9403  -30.7088  -99.5822 O   0  0  0  0  0  0  0  0  0  0  0  0
   47.2013  -31.3226 -101.8431 C   0  0  2  0  0  0  0  0  0  0  0  0
   48.0272  -23.1528 -106.3194 O   0  0  0  0  0  0  0  0  0  0  0  0
   50.9695  -33.7758 -104.6681 N   0  0  0  0  0  0  0  0  0  0  0  0
   51.1280  -33.0370 -103.5425 C   0  0  0  0  0  0  0  0  0  0  0  0
   50.0751  -32.4982 -102.8929 N   0  0  0  0  0  0  0  0  0  0  0  0
   48.8339  -32.6039 -103.3945 C   0  0  0  0  0  0  0  0  0  0  0  0
   48.6241  -33.3472 -104.6136 C   0  0  0  0  0  0  0  0  0  0  0  0
   49.7579  -33.9471 -105.2379 C   0  0  0  0  0  0  0  0  0  0  0  0
   49.6274  -34.6797 -106.4003 N   0  0  0  0  0  0  0  0  0  0  0  0
   47.3165  -33.2935 -104.8930 N   0  0  0  0  0  0  0  0  0  0  0  0
   46.7178  -32.5905 -103.9782 C   0  0  0  0  0  0  0  0  0  0  0  0
   47.6008  -32.1444 -103.0227 N   0  0  0  0  0  0  0  0  0  0  0  0
  2  1  1  6  0  0  0
  2  3  1  0  0  0  0
  2  5  1  0  0  0  0
  3  4  1  0  0  0  0
  3 17  1  0  0  0  0
  5  6  1  0  0  0  0
  7  6  1  6  0  0  0
  7  8  1  0  0  0  0
  7  9  1  0  0  0  0
 10  9  1  6  0  0  0
 10 11  1  0  0  0  0
 10 12  1  0  0  0  0
 11 16  1  0  0  0  0
 12 13  1  1  0  0  0
 12 14  1  0  0  0  0
 14 15  1  1  0  0  0
 14 16  1  0  0  0  0
 16 27  1  6  0  0  0
 18 19  2  0  0  0  0
 18 23  1  0  0  0  0
 19 20  1  0  0  0  0
 20 21  2  0  0  0  0
 21 22  1  0  0  0  0
 21 27  1  0  0  0  0
 22 23  2  0  0  0  0
 22 25  1  0  0  0  0
 23 24  1  0  0  0  0
 25 26  2  0  0  0  0
 26 27  1  0  0  0  0
M  END
>  <CHROM.1>
-39.47457593,-169.87743033,-173.31684435,47.78225305,-154.38008412,173.74240863
121.86024299,48.42570626,-29.28959084,-103.78769400,-1.94484869,-1.36161684
2.51825843

>  <Name>
ligand

>  <RI>
0

>  <Rbt.Current_Directory>
/home/itssahil/PROJECTS/Mol_Feturizer/Test_systems_manuscript/rnas/4l81

>  <Rbt.Executable>
rbdock ($Id: //depot/dev/client3/rdock/2013.1/src/exe/rbdock.cxx#4 $)

>  <Rbt.Library>
libRbt.so (2013.1, Build901 2013/11/27)

>  <Rbt.Parameter_File>
/export/apps/rDock/src/rDock_2013.1_src/data/scripts/dock_solv.prm

>  <Rbt.Receptor>
prm/pocket_docking_8.prm

>  <SCORE>
-9.72801

>  <SCORE.INTER>
-9.12994

>  <SCORE.INTER.CONST>
1

>  <SCORE.INTER.POLAR>
0

>  <SCORE.INTER.ROT>
7

>  <SCORE.INTER.SOLV>
7.7297

>  <SCORE.INTER.VDW>
-16.9299

>  <SCORE.INTER.norm>
-0.338146

>  <SCORE.INTRA>
-0.610293

>  <SCORE.INTRA.DIHEDRAL>
-1.74635

>  <SCORE.INTRA.DIHEDRAL.0>
8.34559

>  <SCORE.INTRA.POLAR>
0

>  <SCORE.INTRA.POLAR.0>
0

>  <SCORE.INTRA.REPUL>
0

>  <SCORE.INTRA.REPUL.0>
0

>  <SCORE.INTRA.SOLV>
-0.999302

>  <SCORE.INTRA.SOLV.lig_0>
-48.829

>  <SCORE.INTRA.VDW>
0.762532

>  <SCORE.INTRA.VDW.0>
-1.77092

>  <SCORE.INTRA.norm>
-0.0226035

>  <SCORE.RESTR>
0.0122258

>  <SCORE.RESTR.CAVITY>
0.0122258

>  <SCORE.RESTR.norm>
0.000452806

>  <SCORE.SYSTEM>
0

>  <SCORE.SYSTEM.CONST>
0

>  <SCORE.SYSTEM.DIHEDRAL>
0

>  <SCORE.SYSTEM.SOLV>
0

>  <SCORE.SYSTEM.norm>
0

>  <SCORE.heavy>
27

>  <SCORE.norm>
-0.360297

>  <RMSD>
4.618

$$$$
ligand
 OpenBabel02271912153D
libRbt.so/2013.1/901 2013/11/27
 27 29  0  0  0  0  0  0  0  0999 V2000
   50.3415  -25.2560 -103.5599 N   0  0  0  0  0  0  0  0  0  0  0  0
   48.8845  -25.1413 -103.4303 C   0  0  2  0  0  0  0  0  0  0  0  0
   48.5169  -23.7077 -103.1105 C   0  0  0  0  0  0  0  0  0  0  0  0
   49.0751  -23.1195 -102.1966 O   0  0  0  0  0  0  0  0  0  0  0  0
   48.3491  -26.0509 -102.3161 C   0  0  0  0  0  0  0  0  0  0  0  0
   48.6425  -27.5127 -102.6229 C   0  0  0  0  0  0  0  0  0  0  0  0
   47.3967  -28.2873 -103.7235 S   0  0  2  0  0  0  0  0  0  0  0  0
   47.3096  -27.1585 -105.1510 C   0  0  0  0  0  0  0  0  0  0  0  0
   45.9685  -27.7025 -102.8140 C   0  0  0  0  0  0  0  0  0  0  0  0
   45.3924  -28.7234 -101.8691 C   0  0  1  0  0  0  0  0  0  0  0  0
   45.1495  -29.9279 -102.6155 O   0  0  0  0  0  0  0  0  0  0  0  0
   46.5264  -29.0091 -100.9691 C   0  0  1  0  0  0  0  0  0  0  0  0
   46.3942  -28.2421  -99.7735 O   0  0  0  0  0  0  0  0  0  0  0  0
   46.3399  -30.4637 -100.6666 C   0  0  1  0  0  0  0  0  0  0  0  0
   45.4579  -30.6324  -99.5374 O   0  0  0  0  0  0  0  0  0  0  0  0
   45.6945  -31.0890 -101.9396 C   0  0  2  0  0  0  0  0  0  0  0  0
   47.6872  -23.1193 -103.7815 O   0  0  0  0  0  0  0  0  0  0  0  0
   46.8272  -32.4738 -106.9393 N   0  0  0  0  0  0  0  0  0  0  0  0
   45.7132  -31.8481 -106.4860 C   0  0  0  0  0  0  0  0  0  0  0  0
   45.5662  -31.5128 -105.1872 N   0  0  0  0  0  0  0  0  0  0  0  0
   46.4886  -31.8704 -104.2790 C   0  0  0  0  0  0  0  0  0  0  0  0
   47.6718  -32.5745 -104.7112 C   0  0  0  0  0  0  0  0  0  0  0  0
   47.8128  -32.8602 -106.1019 C   0  0  0  0  0  0  0  0  0  0  0  0
   48.9235  -33.5218 -106.5849 N   0  0  0  0  0  0  0  0  0  0  0  0
   48.4136  -32.8128 -103.6233 N   0  0  0  0  0  0  0  0  0  0  0  0
   47.8002  -32.3356 -102.5814 C   0  0  0  0  0  0  0  0  0  0  0  0
   46.6108  -31.7357 -102.9237 N   0  0  0  0  0  0  0  0  0  0  0  0
  2  1  1  1  0  0  0
  2  3  1  0  0  0  0
  2  5  1  0  0  0  0
  3  4  1  0  0  0  0
  3 17  1  0  0  0  0
  5  6  1  0  0  0  0
  7  6  1  1  0  0  0
  7  8  1  0  0  0  0
  7  9  1  0  0  0  0
 10  9  1  6  0  0  0
 10 11  1  0  0  0  0
 10 12  1  0  0  0  0
 11 16  1  0  0  0  0
 12 13  1  1  0  0  0
 12 14  1  0  0  0  0
 14 15  1  1  0  0  0
 14 16  1  0  0  0  0
 16 27  1  6  0  0  0
 18 19  2  0  0  0  0
 18 23  1  0  0  0  0
 19 20  1  0  0  0  0
 20 21  2  0  0  0  0
 21 22  1  0  0  0  0
 21 27  1  0  0  0  0
 22 23  2  0  0  0  0
 22 25  1  0  0  0  0
 23 24  1  0  0  0  0
 25 26  2  0  0  0  0
 26 27  1  0  0  0  0
M  END
>  <CHROM.1>
-50.54731374,-61.62057114,-84.04099871,52.57873243,-98.19384177,-52.87430789
-36.93520163,47.22182400,-29.05938071,-103.27574579,-1.17614768,-1.09911289
-2.55345906

>  <Name>
ligand

>  <RI>
0

>  <Rbt.Current_Directory>
/home/itssahil/PROJECTS/Mol_Feturizer/Test_systems_manuscript/rnas/4l81

>  <Rbt.Executable>
rbdock ($Id: //depot/dev/client3/rdock/2013.1/src/exe/rbdock.cxx#4 $)

>  <Rbt.Library>
libRbt.so (2013.1, Build901 2013/11/27)

>  <Rbt.Parameter_File>
/export/apps/rDock/src/rDock_2013.1_src/data/scripts/dock_solv.prm

>  <Rbt.Receptor>
prm/pocket_docking_6.prm

>  <SCORE>
-9.20649

>  <SCORE.INTER>
-10.0947

>  <SCORE.INTER.CONST>
1

>  <SCORE.INTER.POLAR>
0

>  <SCORE.INTER.ROT>
7

>  <SCORE.INTER.SOLV>
10.02

>  <SCORE.INTER.VDW>
-18.3365

>  <SCORE.INTER.norm>
-0.373878

>  <SCORE.INTRA>
0.888218

>  <SCORE.INTRA.DIHEDRAL>
-0.619561

>  <SCORE.INTRA.DIHEDRAL.0>
8.34559

>  <SCORE.INTRA.POLAR>
0

>  <SCORE.INTRA.POLAR.0>
0

>  <SCORE.INTRA.REPUL>
0

>  <SCORE.INTRA.REPUL.0>
0

>  <SCORE.INTRA.SOLV>
0.888476

>  <SCORE.INTRA.SOLV.lig_0>
-48.829

>  <SCORE.INTRA.VDW>
0.753761

>  <SCORE.INTRA.VDW.0>
-1.77092

>  <SCORE.INTRA.norm>
0.032897

>  <SCORE.RESTR>
0

>  <SCORE.RESTR.CAVITY>
0

>  <SCORE.RESTR.norm>
0

>  <SCORE.SYSTEM>
0

>  <SCORE.SYSTEM.CONST>
0

>  <SCORE.SYSTEM.DIHEDRAL>
0

>  <SCORE.SYSTEM.SOLV>
0

>  <SCORE.SYSTEM.norm>
0

>  <SCORE.heavy>
27

>  <SCORE.norm>
-0.340981

>  <RMSD>
4.629

$$$$
ligand
 OpenBabel02271912153D
libRbt.so/2013.1/901 2013/11/27
 27 29  0  0  0  0  0  0  0  0999 V2000
   46.4222  -24.7280 -106.3066 N   0  0  0  0  0  0  0  0  0  0  0  0
   45.8294  -26.0701 -106.2986 C   0  0  2  0  0  0  0  0  0  0  0  0
   44.8715  -26.1924 -105.1324 C   0  0  0  0  0  0  0  0  0  0  0  0
   45.2568  -25.9692 -103.9947 O   0  0  0  0  0  0  0  0  0  0  0  0
   46.9064  -27.1561 -106.1718 C   0  0  0  0  0  0  0  0  0  0  0  0
   46.2858  -28.5443 -106.2395 C   0  0  0  0  0  0  0  0  0  0  0  0
   46.7986  -29.6365 -104.8584 S   0  0  2  0  0  0  0  0  0  0  0  0
   45.9468  -31.2098 -105.2031 C   0  0  0  0  0  0  0  0  0  0  0  0
   45.6562  -28.9542 -103.6592 C   0  0  0  0  0  0  0  0  0  0  0  0
   46.0642  -29.1929 -102.2297 C   0  0  1  0  0  0  0  0  0  0  0  0
   46.2153  -30.6106 -102.0448 O   0  0  0  0  0  0  0  0  0  0  0  0
   47.4216  -28.6163 -102.1789 C   0  0  1  0  0  0  0  0  0  0  0  0
   47.3611  -27.2946 -101.6451 O   0  0  0  0  0  0  0  0  0  0  0  0
   48.1226  -29.5246 -101.2167 C   0  0  1  0  0  0  0  0  0  0  0  0
   47.9257  -29.0690  -99.8621 O   0  0  0  0  0  0  0  0  0  0  0  0
   47.4748  -30.9298 -101.4014 C   0  0  2  0  0  0  0  0  0  0  0  0
   43.7029  -26.4814 -105.3218 O   0  0  0  0  0  0  0  0  0  0  0  0
   51.9322  -32.7106 -103.6724 N   0  0  0  0  0  0  0  0  0  0  0  0
   51.7965  -31.6576 -102.8294 C   0  0  0  0  0  0  0  0  0  0  0  0
   50.6052  -31.3332 -102.2848 N   0  0  0  0  0  0  0  0  0  0  0  0
   49.4900  -31.9953 -102.6332 C   0  0  0  0  0  0  0  0  0  0  0  0
   49.5817  -33.0977 -103.5600 C   0  0  0  0  0  0  0  0  0  0  0  0
   50.8692  -33.4419 -104.0689 C   0  0  0  0  0  0  0  0  0  0  0  0
   51.0302  -34.4910 -104.9510 N   0  0  0  0  0  0  0  0  0  0  0  0
   48.3433  -33.5726 -103.7381 N   0  0  0  0  0  0  0  0  0  0  0  0
   47.5148  -32.8692 -103.0252 C   0  0  0  0  0  0  0  0  0  0  0  0
   48.1644  -31.8860 -102.3158 N   0  0  0  0  0  0  0  0  0  0  0  0
  2  1  1  1  0  0  0
  2  3  1  0  0  0  0
  2  5  1  0  0  0  0
  3  4  1  0  0  0  0
  3 17  1  0  0  0  0
  5  6  1  0  0  0  0
  7  6  1  6  0  0  0
  7  8  1  0  0  0  0
  7  9  1  0  0  0  0
 10  9  1  6  0  0  0
 10 11  1  0  0  0  0
 10 12  1  0  0  0  0
 11 16  1  0  0  0  0
 12 13  1  1  0  0  0
 12 14  1  0  0  0  0
 14 15  1  1  0  0  0
 14 16  1  0  0  0  0
 16 27  1  6  0  0  0
 18 19  2  0  0  0  0
 18 23  1  0  0  0  0
 19 20  1  0  0  0  0
 20 21  2  0  0  0  0
 21 22  1  0  0  0  0
 21 27  1  0  0  0  0
 22 23  2  0  0  0  0
 22 25  1  0  0  0  0
 23 24  1  0  0  0  0
 25 26  2  0  0  0  0
 26 27  1  0  0  0  0
M  END
>  <CHROM.1>
-55.85354582,-176.97524358,-128.91114810,-179.03079040,-158.12622883,-56.56271579
142.14371462,47.56986944,-29.79992346,-103.63732689,-2.99268171,-0.94480568
1.46418776

>  <Name>
ligand

>  <RI>
0

>  <Rbt.Current_Directory>
/home/itssahil/PROJECTS/Mol_Feturizer/Test_systems_manuscript/rnas/4l81

>  <Rbt.Executable>
rbdock ($Id: //depot/dev/client3/rdock/2013.1/src/exe/rbdock.cxx#4 $)

>  <Rbt.Library>
libRbt.so (2013.1, Build901 2013/11/27)

>  <Rbt.Parameter_File>
/export/apps/rDock/src/rDock_2013.1_src/data/scripts/dock_solv.prm

>  <Rbt.Receptor>
prm/pocket_docking_6.prm

>  <SCORE>
-10.8086

>  <SCORE.INTER>
-10.1882

>  <SCORE.INTER.CONST>
1

>  <SCORE.INTER.POLAR>
0

>  <SCORE.INTER.ROT>
7

>  <SCORE.INTER.SOLV>
10.7342

>  <SCORE.INTER.VDW>
-18.6369

>  <SCORE.INTER.norm>
-0.377342

>  <SCORE.INTRA>
-0.62035

>  <SCORE.INTRA.DIHEDRAL>
2.692

>  <SCORE.INTRA.DIHEDRAL.0>
8.34559

>  <SCORE.INTRA.POLAR>
0

>  <SCORE.INTRA.POLAR.0>
0

>  <SCORE.INTRA.REPUL>
0

>  <SCORE.INTRA.REPUL.0>
0

>  <SCORE.INTRA.SOLV>
-0.894546

>  <SCORE.INTRA.SOLV.lig_0>
-48.829

>  <SCORE.INTRA.VDW>
-1.51908

>  <SCORE.INTRA.VDW.0>
-1.77092

>  <SCORE.INTRA.norm>
-0.0229759

>  <SCORE.RESTR>
0

>  <SCORE.RESTR.CAVITY>
0

>  <SCORE.RESTR.norm>
0

>  <SCORE.SYSTEM>
0

>  <SCORE.SYSTEM.CONST>
0

>  <SCORE.SYSTEM.DIHEDRAL>
0

>  <SCORE.SYSTEM.SOLV>
0

>  <SCORE.SYSTEM.norm>
0

>  <SCORE.heavy>
27

>  <SCORE.norm>
-0.400318

>  <RMSD>
4.672

$$$$
ligand
 OpenBabel02271912153D
libRbt.so/2013.1/901 2013/11/27
 27 29  0  0  0  0  0  0  0  0999 V2000
   49.2204  -26.0284 -106.0256 N   0  0  0  0  0  0  0  0  0  0  0  0
   49.2309  -27.4224 -106.4830 C   0  0  2  0  0  0  0  0  0  0  0  0
   48.9396  -27.4690 -107.9682 C   0  0  0  0  0  0  0  0  0  0  0  0
   49.0500  -28.5188 -108.5834 O   0  0  0  0  0  0  0  0  0  0  0  0
   48.1788  -28.2610 -105.7447 C   0  0  0  0  0  0  0  0  0  0  0  0
   48.6061  -28.5223 -104.3074 C   0  0  0  0  0  0  0  0  0  0  0  0
   48.4259  -27.0573 -103.2190 S   0  0  2  0  0  0  0  0  0  0  0  0
   50.1137  -26.3793 -103.1122 C   0  0  0  0  0  0  0  0  0  0  0  0
   48.3948  -27.9796 -101.6837 C   0  0  0  0  0  0  0  0  0  0  0  0
   47.0444  -28.5559 -101.3504 C   0  0  1  0  0  0  0  0  0  0  0  0
   46.6308  -29.3783 -102.4547 O   0  0  0  0  0  0  0  0  0  0  0  0
   47.3491  -29.4732 -100.2353 C   0  0  1  0  0  0  0  0  0  0  0  0
   47.0674  -28.8288  -98.9940 O   0  0  0  0  0  0  0  0  0  0  0  0
   46.3792  -30.5912 -100.4626 C   0  0  1  0  0  0  0  0  0  0  0  0
   45.1196  -30.3009  -99.8219 O   0  0  0  0  0  0  0  0  0  0  0  0
   46.1794  -30.6808 -102.0053 C   0  0  2  0  0  0  0  0  0  0  0  0
   48.5615  -26.4697 -108.5542 O   0  0  0  0  0  0  0  0  0  0  0  0
   50.9110  -32.8726 -103.0083 N   0  0  0  0  0  0  0  0  0  0  0  0
   50.6365  -31.8445 -102.1684 C   0  0  0  0  0  0  0  0  0  0  0  0
   49.3755  -31.4067 -101.9706 N   0  0  0  0  0  0  0  0  0  0  0  0
   48.3535  -31.9223 -102.6730 C   0  0  0  0  0  0  0  0  0  0  0  0
   48.6060  -32.9911 -103.6091 C   0  0  0  0  0  0  0  0  0  0  0  0
   49.9460  -33.4611 -103.7464 C   0  0  0  0  0  0  0  0  0  0  0  0
   50.2565  -34.4868 -104.6160 N   0  0  0  0  0  0  0  0  0  0  0  0
   47.4352  -33.3134 -104.1714 N   0  0  0  0  0  0  0  0  0  0  0  0
   46.5065  -32.5476 -103.6810 C   0  0  0  0  0  0  0  0  0  0  0  0
   47.0108  -31.6738 -102.7462 N   0  0  0  0  0  0  0  0  0  0  0  0
  2  1  1  1  0  0  0
  2  3  1  0  0  0  0
  2  5  1  0  0  0  0
  3  4  1  0  0  0  0
  3 17  1  0  0  0  0
  5  6  1  0  0  0  0
  7  6  1  6  0  0  0
  7  8  1  0  0  0  0
  7  9  1  0  0  0  0
 10  9  1  6  0  0  0
 10 11  1  0  0  0  0
 10 12  1  0  0  0  0
 11 16  1  0  0  0  0
 12 13  1  1  0  0  0
 12 14  1  0  0  0  0
 14 15  1  1  0  0  0
 14 16  1  0  0  0  0
 16 27  1  6  0  0  0
 18 19  2  0  0  0  0
 18 23  1  0  0  0  0
 19 20  1  0  0  0  0
 20 21  2  0  0  0  0
 21 22  1  0  0  0  0
 21 27  1  0  0  0  0
 22 23  2  0  0  0  0
 22 25  1  0  0  0  0
 23 24  1  0  0  0  0
 25 26  2  0  0  0  0
 26 27  1  0  0  0  0
M  END
>  <CHROM.1>
171.68270703,-72.70576254,74.85146907,-100.09109298,-82.04584809,56.39027508
66.08186078,48.26139909,-29.72077938,-103.45413486,1.02883958,1.17020532
-0.38419859

>  <Name>
ligand

>  <RI>
0

>  <Rbt.Current_Directory>
/home/itssahil/PROJECTS/Mol_Feturizer/Test_systems_manuscript/rnas/4l81

>  <Rbt.Executable>
rbdock ($Id: //depot/dev/client3/rdock/2013.1/src/exe/rbdock.cxx#4 $)

>  <Rbt.Library>
libRbt.so (2013.1, Build901 2013/11/27)

>  <Rbt.Parameter_File>
/export/apps/rDock/src/rDock_2013.1_src/data/scripts/dock_solv.prm

>  <Rbt.Receptor>
prm/pocket_docking_6.prm

>  <SCORE>
-14.7475

>  <SCORE.INTER>
-13.2502

>  <SCORE.INTER.CONST>
1

>  <SCORE.INTER.POLAR>
0

>  <SCORE.INTER.ROT>
7

>  <SCORE.INTER.SOLV>
12.0651

>  <SCORE.INTER.VDW>
-21.1218

>  <SCORE.INTER.norm>
-0.490747

>  <SCORE.INTRA>
-1.49737

>  <SCORE.INTRA.DIHEDRAL>
-0.877629

>  <SCORE.INTRA.DIHEDRAL.0>
8.34559

>  <SCORE.INTRA.POLAR>
0

>  <SCORE.INTRA.POLAR.0>
0

>  <SCORE.INTRA.REPUL>
0

>  <SCORE.INTRA.REPUL.0>
0

>  <SCORE.INTRA.SOLV>
1.84187

>  <SCORE.INTRA.SOLV.lig_0>
-48.829

>  <SCORE.INTRA.VDW>
-1.97949

>  <SCORE.INTRA.VDW.0>
-1.77092

>  <SCORE.INTRA.norm>
-0.0554582

>  <SCORE.RESTR>
0

>  <SCORE.RESTR.CAVITY>
0

>  <SCORE.RESTR.norm>
0

>  <SCORE.SYSTEM>
0

>  <SCORE.SYSTEM.CONST>
0

>  <SCORE.SYSTEM.DIHEDRAL>
0

>  <SCORE.SYSTEM.SOLV>
0

>  <SCORE.SYSTEM.norm>
0

>  <SCORE.heavy>
27

>  <SCORE.norm>
-0.546205

>  <RMSD>
4.691

$$$$
ligand
 OpenBabel02271912153D
libRbt.so/2013.1/901 2013/11/27
 27 29  0  0  0  0  0  0  0  0999 V2000
   44.5592  -29.8332 -105.7338 N   0  0  0  0  0  0  0  0  0  0  0  0
   44.4974  -29.4321 -104.3238 C   0  0  2  0  0  0  0  0  0  0  0  0
   44.9232  -27.9851 -104.1911 C   0  0  0  0  0  0  0  0  0  0  0  0
   45.8529  -27.5545 -104.8568 O   0  0  0  0  0  0  0  0  0  0  0  0
   45.4165  -30.3012 -103.4546 C   0  0  0  0  0  0  0  0  0  0  0  0
   45.2619  -29.9479 -101.9822 C   0  0  0  0  0  0  0  0  0  0  0  0
   46.8612  -29.6477 -101.1363 S   0  0  2  0  0  0  0  0  0  0  0  0
   46.3814  -28.9298  -99.5319 C   0  0  0  0  0  0  0  0  0  0  0  0
   47.2470  -28.1366 -102.0174 C   0  0  0  0  0  0  0  0  0  0  0  0
   48.6727  -27.6834 -101.8476 C   0  0  1  0  0  0  0  0  0  0  0  0
   49.4916  -28.8540 -101.6867 O   0  0  0  0  0  0  0  0  0  0  0  0
   48.9959  -27.1246 -103.1746 C   0  0  1  0  0  0  0  0  0  0  0  0
   48.8388  -25.7068 -103.1487 O   0  0  0  0  0  0  0  0  0  0  0  0
   50.4433  -27.4758 -103.3290 C   0  0  1  0  0  0  0  0  0  0  0  0
   51.2736  -26.4513 -102.7438 O   0  0  0  0  0  0  0  0  0  0  0  0
   50.6442  -28.8192 -102.5655 C   0  0  2  0  0  0  0  0  0  0  0  0
   44.3225  -27.2313 -103.4456 O   0  0  0  0  0  0  0  0  0  0  0  0
   48.4243  -31.6874 -106.4441 N   0  0  0  0  0  0  0  0  0  0  0  0
   48.0633  -30.4521 -106.0179 C   0  0  0  0  0  0  0  0  0  0  0  0
   48.7418  -29.8110 -105.0434 N   0  0  0  0  0  0  0  0  0  0  0  0
   49.7512  -30.4182 -104.3985 C   0  0  0  0  0  0  0  0  0  0  0  0
   50.1430  -31.7502 -104.7919 C   0  0  0  0  0  0  0  0  0  0  0  0
   49.4344  -32.3695 -105.8640 C   0  0  0  0  0  0  0  0  0  0  0  0
   49.7633  -33.6378 -106.2976 N   0  0  0  0  0  0  0  0  0  0  0  0
   51.1547  -32.1190 -103.9974 N   0  0  0  0  0  0  0  0  0  0  0  0
   51.4082  -31.1559 -103.1622 C   0  0  0  0  0  0  0  0  0  0  0  0
   50.5799  -30.0769 -103.3656 N   0  0  0  0  0  0  0  0  0  0  0  0
  2  1  1  6  0  0  0
  2  3  1  0  0  0  0
  2  5  1  0  0  0  0
  3  4  1  0  0  0  0
  3 17  1  0  0  0  0
  5  6  1  0  0  0  0
  7  6  1  6  0  0  0
  7  8  1  0  0  0  0
  7  9  1  0  0  0  0
 10  9  1  6  0  0  0
 10 11  1  0  0  0  0
 10 12  1  0  0  0  0
 11 16  1  0  0  0  0
 12 13  1  1  0  0  0
 12 14  1  0  0  0  0
 14 15  1  1  0  0  0
 14 16  1  0  0  0  0
 16 27  1  6  0  0  0
 18 19  2  0  0  0  0
 18 23  1  0  0  0  0
 19 20  1  0  0  0  0
 20 21  2  0  0  0  0
 21 22  1  0  0  0  0
 21 27  1  0  0  0  0
 22 23  2  0  0  0  0
 22 25  1  0  0  0  0
 23 24  1  0  0  0  0
 25 26  2  0  0  0  0
 26 27  1  0  0  0  0
M  END
>  <CHROM.1>
-39.67426899,-175.57240961,-129.85038395,168.90732261,-166.88502891,31.51229486
74.00443390,48.08882789,-29.35830268,-103.48495250,2.46232797,-0.09850892
0.70463269

>  <Name>
ligand

>  <RI>
0

>  <Rbt.Current_Directory>
/home/itssahil/PROJECTS/Mol_Feturizer/Test_systems_manuscript/rnas/4l81

>  <Rbt.Executable>
rbdock ($Id: //depot/dev/client3/rdock/2013.1/src/exe/rbdock.cxx#4 $)

>  <Rbt.Library>
libRbt.so (2013.1, Build901 2013/11/27)

>  <Rbt.Parameter_File>
/export/apps/rDock/src/rDock_2013.1_src/data/scripts/dock_solv.prm

>  <Rbt.Receptor>
prm/pocket_docking_5.prm

>  <SCORE>
-11.4601

>  <SCORE.INTER>
-10.169

>  <SCORE.INTER.CONST>
1

>  <SCORE.INTER.POLAR>
0

>  <SCORE.INTER.ROT>
7

>  <SCORE.INTER.SOLV>
10.8861

>  <SCORE.INTER.VDW>
-18.6747

>  <SCORE.INTER.norm>
-0.376631

>  <SCORE.INTRA>
-1.29109

>  <SCORE.INTRA.DIHEDRAL>
3.63425

>  <SCORE.INTRA.DIHEDRAL.0>
8.34559

>  <SCORE.INTRA.POLAR>
0

>  <SCORE.INTRA.POLAR.0>
0

>  <SCORE.INTRA.REPUL>
0

>  <SCORE.INTRA.REPUL.0>
0

>  <SCORE.INTRA.SOLV>
-0.894079

>  <SCORE.INTRA.SOLV.lig_0>
-48.829

>  <SCORE.INTRA.VDW>
-2.66117

>  <SCORE.INTRA.VDW.0>
-1.77092

>  <SCORE.INTRA.norm>
-0.047818

>  <SCORE.RESTR>
0

>  <SCORE.RESTR.CAVITY>
0

>  <SCORE.RESTR.norm>
0

>  <SCORE.SYSTEM>
0

>  <SCORE.SYSTEM.CONST>
0

>  <SCORE.SYSTEM.DIHEDRAL>
0

>  <SCORE.SYSTEM.SOLV>
0

>  <SCORE.SYSTEM.norm>
0

>  <SCORE.heavy>
27

>  <SCORE.norm>
-0.424449

>  <RMSD>
4.700

$$$$
ligand
 OpenBabel02271912153D
libRbt.so/2013.1/901 2013/11/27
 27 29  0  0  0  0  0  0  0  0999 V2000
   48.3327  -24.5194 -106.6422 N   0  0  0  0  0  0  0  0  0  0  0  0
   46.9115  -24.7357 -106.3489 C   0  0  2  0  0  0  0  0  0  0  0  0
   46.1881  -23.4055 -106.3459 C   0  0  0  0  0  0  0  0  0  0  0  0
   45.2222  -23.2297 -107.0732 O   0  0  0  0  0  0  0  0  0  0  0  0
   46.7187  -25.4081 -104.9828 C   0  0  0  0  0  0  0  0  0  0  0  0
   47.0771  -26.8859 -105.0515 C   0  0  0  0  0  0  0  0  0  0  0  0
   48.8594  -27.1865 -105.3623 S   0  0  2  0  0  0  0  0  0  0  0  0
   48.9495  -27.4739 -107.1592 C   0  0  0  0  0  0  0  0  0  0  0  0
   48.8520  -28.8887 -104.8044 C   0  0  0  0  0  0  0  0  0  0  0  0
   48.6554  -29.0387 -103.3192 C   0  0  1  0  0  0  0  0  0  0  0  0
   48.4468  -30.4336 -103.0404 O   0  0  0  0  0  0  0  0  0  0  0  0
   49.9859  -28.6976 -102.7796 C   0  0  1  0  0  0  0  0  0  0  0  0
   49.9962  -27.3353 -102.3559 O   0  0  0  0  0  0  0  0  0  0  0  0
   50.0946  -29.6031 -101.5920 C   0  0  1  0  0  0  0  0  0  0  0  0
   49.5113  -28.9786 -100.4296 O   0  0  0  0  0  0  0  0  0  0  0  0
   49.2959  -30.8901 -101.9575 C   0  0  2  0  0  0  0  0  0  0  0  0
   46.5419  -22.5127 -105.5958 O   0  0  0  0  0  0  0  0  0  0  0  0
   49.9730  -34.5993 -105.6967 N   0  0  0  0  0  0  0  0  0  0  0  0
   48.9729  -33.6886 -105.6059 C   0  0  0  0  0  0  0  0  0  0  0  0
   48.9397  -32.7664 -104.6213 N   0  0  0  0  0  0  0  0  0  0  0  0
   49.8574  -32.7783 -103.6409 C   0  0  0  0  0  0  0  0  0  0  0  0
   50.9173  -33.7570 -103.6752 C   0  0  0  0  0  0  0  0  0  0  0  0
   50.9458  -34.6781 -104.7642 C   0  0  0  0  0  0  0  0  0  0  0  0
   51.9366  -35.6337 -104.8643 N   0  0  0  0  0  0  0  0  0  0  0  0
   51.6809  -33.5556 -102.5948 N   0  0  0  0  0  0  0  0  0  0  0  0
   51.1898  -32.5666 -101.9092 C   0  0  0  0  0  0  0  0  0  0  0  0
   50.0688  -32.0414 -102.5084 N   0  0  0  0  0  0  0  0  0  0  0  0
  2  1  1  1  0  0  0
  2  3  1  0  0  0  0
  2  5  1  0  0  0  0
  3  4  1  0  0  0  0
  3 17  1  0  0  0  0
  5  6  1  0  0  0  0
  7  6  1  6  0  0  0
  7  8  1  0  0  0  0
  7  9  1  0  0  0  0
 10  9  1  6  0  0  0
 10 11  1  0  0  0  0
 10 12  1  0  0  0  0
 11 16  1  0  0  0  0
 12 13  1  1  0  0  0
 12 14  1  0  0  0  0
 14 15  1  1  0  0  0
 14 16  1  0  0  0  0
 16 27  1  6  0  0  0
 18 19  2  0  0  0  0
 18 23  1  0  0  0  0
 19 20  1  0  0  0  0
 20 21  2  0  0  0  0
 21 22  1  0  0  0  0
 21 27  1  0  0  0  0
 22 23  2  0  0  0  0
 22 25  1  0  0  0  0
 23 24  1  0  0  0  0
 25 26  2  0  0  0  0
 26 27  1  0  0  0  0
M  END
>  <CHROM.1>
124.17779902,-75.12064587,66.53885826,-97.34518885,-69.60142343,170.55068926
-15.14338954,48.98573667,-29.20772248,-104.30514657,2.71104964,-1.16300541
0.85911749

>  <Name>
ligand

>  <RI>
0

>  <Rbt.Current_Directory>
/home/itssahil/PROJECTS/Mol_Feturizer/Test_systems_manuscript/rnas/4l81

>  <Rbt.Executable>
rbdock ($Id: //depot/dev/client3/rdock/2013.1/src/exe/rbdock.cxx#4 $)

>  <Rbt.Library>
libRbt.so (2013.1, Build901 2013/11/27)

>  <Rbt.Parameter_File>
/export/apps/rDock/src/rDock_2013.1_src/data/scripts/dock_solv.prm

>  <Rbt.Receptor>
prm/pocket_docking_8.prm

>  <SCORE>
-8.76721

>  <SCORE.INTER>
-7.89918

>  <SCORE.INTER.CONST>
1

>  <SCORE.INTER.POLAR>
0

>  <SCORE.INTER.ROT>
7

>  <SCORE.INTER.SOLV>
7.02959

>  <SCORE.INTER.VDW>
-15.876

>  <SCORE.INTER.norm>
-0.292562

>  <SCORE.INTRA>
-0.868025

>  <SCORE.INTRA.DIHEDRAL>
-1.90651

>  <SCORE.INTRA.DIHEDRAL.0>
8.34559

>  <SCORE.INTRA.POLAR>
0

>  <SCORE.INTRA.POLAR.0>
0

>  <SCORE.INTRA.REPUL>
0

>  <SCORE.INTRA.REPUL.0>
0

>  <SCORE.INTRA.SOLV>
1.94954

>  <SCORE.INTRA.SOLV.lig_0>
-48.829

>  <SCORE.INTRA.VDW>
-0.88954

>  <SCORE.INTRA.VDW.0>
-1.77092

>  <SCORE.INTRA.norm>
-0.0321491

>  <SCORE.RESTR>
0

>  <SCORE.RESTR.CAVITY>
0

>  <SCORE.RESTR.norm>
0

>  <SCORE.SYSTEM>
0

>  <SCORE.SYSTEM.CONST>
0

>  <SCORE.SYSTEM.DIHEDRAL>
0

>  <SCORE.SYSTEM.SOLV>
0

>  <SCORE.SYSTEM.norm>
0

>  <SCORE.heavy>
27

>  <SCORE.norm>
-0.324711

>  <RMSD>
4.722

$$$$
ligand
 OpenBabel02271912153D
libRbt.so/2013.1/901 2013/11/27
 27 29  0  0  0  0  0  0  0  0999 V2000
   48.6901  -26.8307 -107.1240 N   0  0  0  0  0  0  0  0  0  0  0  0
   49.0474  -27.9779 -106.2820 C   0  0  2  0  0  0  0  0  0  0  0  0
   48.1933  -29.1690 -106.6621 C   0  0  0  0  0  0  0  0  0  0  0  0
   48.3853  -30.2554 -106.1371 O   0  0  0  0  0  0  0  0  0  0  0  0
   48.8322  -27.6680 -104.7944 C   0  0  0  0  0  0  0  0  0  0  0  0
   47.3790  -27.3065 -104.5215 C   0  0  0  0  0  0  0  0  0  0  0  0
   47.1498  -26.3331 -102.9841 S   0  0  2  0  0  0  0  0  0  0  0  0
   48.6699  -25.3358 -102.8651 C   0  0  0  0  0  0  0  0  0  0  0  0
   47.5949  -27.6601 -101.8661 C   0  0  0  0  0  0  0  0  0  0  0  0
   46.4278  -28.5104 -101.4400 C   0  0  1  0  0  0  0  0  0  0  0  0
   46.2305  -29.5228 -102.4415 O   0  0  0  0  0  0  0  0  0  0  0  0
   46.9481  -29.1998 -100.2435 C   0  0  1  0  0  0  0  0  0  0  0  0
   46.5152  -28.5146  -99.0694 O   0  0  0  0  0  0  0  0  0  0  0  0
   46.2838  -30.5391 -100.3280 C   0  0  1  0  0  0  0  0  0  0  0  0
   44.9909  -30.4992  -99.6890 O   0  0  0  0  0  0  0  0  0  0  0  0
   46.1136  -30.8401 -101.8473 C   0  0  2  0  0  0  0  0  0  0  0  0
   47.2879  -29.0465 -107.4685 O   0  0  0  0  0  0  0  0  0  0  0  0
   51.1865  -32.3605 -102.2377 N   0  0  0  0  0  0  0  0  0  0  0  0
   50.6632  -31.4306 -101.4014 C   0  0  0  0  0  0  0  0  0  0  0  0
   49.3403  -31.1658 -101.3728 N   0  0  0  0  0  0  0  0  0  0  0  0
   48.5046  -31.7575 -102.2418 C   0  0  0  0  0  0  0  0  0  0  0  0
   49.0252  -32.7242 -103.1782 C   0  0  0  0  0  0  0  0  0  0  0  0
   50.4213  -33.0150 -103.1368 C   0  0  0  0  0  0  0  0  0  0  0  0
   50.9837  -33.9361 -103.9970 N   0  0  0  0  0  0  0  0  0  0  0  0
   47.9982  -33.1519 -103.9219 N   0  0  0  0  0  0  0  0  0  0  0  0
   46.9169  -32.5401 -103.5399 C   0  0  0  0  0  0  0  0  0  0  0  0
   47.1647  -31.6728 -102.5016 N   0  0  0  0  0  0  0  0  0  0  0  0
  2  1  1  6  0  0  0
  2  3  1  0  0  0  0
  2  5  1  0  0  0  0
  3  4  1  0  0  0  0
  3 17  1  0  0  0  0
  5  6  1  0  0  0  0
  7  6  1  6  0  0  0
  7  8  1  0  0  0  0
  7  9  1  0  0  0  0
 10  9  1  6  0  0  0
 10 11  1  0  0  0  0
 10 12  1  0  0  0  0
 11 16  1  0  0  0  0
 12 13  1  1  0  0  0
 12 14  1  0  0  0  0
 14 15  1  1  0  0  0
 14 16  1  0  0  0  0
 16 27  1  6  0  0  0
 18 19  2  0  0  0  0
 18 23  1  0  0  0  0
 19 20  1  0  0  0  0
 20 21  2  0  0  0  0
 21 22  1  0  0  0  0
 21 27  1  0  0  0  0
 22 23  2  0  0  0  0
 22 25  1  0  0  0  0
 23 24  1  0  0  0  0
 25 26  2  0  0  0  0
 26 27  1  0  0  0  0
M  END
>  <CHROM.1>
175.53808934,59.27120851,-158.12351145,32.68882969,-89.65480939,85.34289381
80.76980333,47.94651410,-29.72258310,-103.08154012,-1.88333751,-1.06033162
2.40018700

>  <Name>
ligand

>  <RI>
0

>  <Rbt.Current_Directory>
/home/itssahil/PROJECTS/Mol_Feturizer/Test_systems_manuscript/rnas/4l81

>  <Rbt.Executable>
rbdock ($Id: //depot/dev/client3/rdock/2013.1/src/exe/rbdock.cxx#4 $)

>  <Rbt.Library>
libRbt.so (2013.1, Build901 2013/11/27)

>  <Rbt.Parameter_File>
/export/apps/rDock/src/rDock_2013.1_src/data/scripts/dock_solv.prm

>  <Rbt.Receptor>
prm/pocket_docking_4.prm

>  <SCORE>
-10.6927

>  <SCORE.INTER>
-10.9208

>  <SCORE.INTER.CONST>
1

>  <SCORE.INTER.POLAR>
0

>  <SCORE.INTER.ROT>
7

>  <SCORE.INTER.SOLV>
12.9105

>  <SCORE.INTER.VDW>
-19.8507

>  <SCORE.INTER.norm>
-0.404474

>  <SCORE.INTRA>
0.228093

>  <SCORE.INTRA.DIHEDRAL>
0.641399

>  <SCORE.INTRA.DIHEDRAL.0>
8.34559

>  <SCORE.INTRA.POLAR>
0

>  <SCORE.INTRA.POLAR.0>
0

>  <SCORE.INTRA.REPUL>
0

>  <SCORE.INTRA.REPUL.0>
0

>  <SCORE.INTRA.SOLV>
-0.23441

>  <SCORE.INTRA.SOLV.lig_0>
-48.829

>  <SCORE.INTRA.VDW>
0.0245977

>  <SCORE.INTRA.VDW.0>
-1.77092

>  <SCORE.INTRA.norm>
0.00844787

>  <SCORE.RESTR>
0

>  <SCORE.RESTR.CAVITY>
0

>  <SCORE.RESTR.norm>
0

>  <SCORE.SYSTEM>
0

>  <SCORE.SYSTEM.CONST>
0

>  <SCORE.SYSTEM.DIHEDRAL>
0

>  <SCORE.SYSTEM.SOLV>
0

>  <SCORE.SYSTEM.norm>
0

>  <SCORE.heavy>
27

>  <SCORE.norm>
-0.396026

>  <RMSD>
4.737

$$$$
ligand
 OpenBabel02271912153D
libRbt.so/2013.1/901 2013/11/27
 27 29  0  0  0  0  0  0  0  0999 V2000
   46.6304  -33.1812 -107.4938 N   0  0  0  0  0  0  0  0  0  0  0  0
   47.2278  -32.2422 -106.5377 C   0  0  2  0  0  0  0  0  0  0  0  0
   46.6517  -32.4896 -105.1594 C   0  0  0  0  0  0  0  0  0  0  0  0
   47.3348  -33.0148 -104.2931 O   0  0  0  0  0  0  0  0  0  0  0  0
   46.9510  -30.7863 -106.9368 C   0  0  0  0  0  0  0  0  0  0  0  0
   47.7573  -29.8259 -106.0742 C   0  0  0  0  0  0  0  0  0  0  0  0
   47.7017  -28.0928 -106.6715 S   0  0  2  0  0  0  0  0  0  0  0  0
   48.7189  -28.1164 -108.1829 C   0  0  0  0  0  0  0  0  0  0  0  0
   48.9231  -27.4688 -105.5193 C   0  0  0  0  0  0  0  0  0  0  0  0
   48.4634  -26.2636 -104.7427 C   0  0  1  0  0  0  0  0  0  0  0  0
   47.0281  -26.3055 -104.6720 O   0  0  0  0  0  0  0  0  0  0  0  0
   48.9587  -26.5462 -103.3816 C   0  0  1  0  0  0  0  0  0  0  0  0
   50.1923  -25.8617 -103.1690 O   0  0  0  0  0  0  0  0  0  0  0  0
   47.8890  -25.9518 -102.5188 C   0  0  1  0  0  0  0  0  0  0  0  0
   48.1564  -24.5545 -102.2789 O   0  0  0  0  0  0  0  0  0  0  0  0
   46.5584  -26.1063 -103.3149 C   0  0  2  0  0  0  0  0  0  0  0  0
   45.5158  -32.1377 -104.8934 O   0  0  0  0  0  0  0  0  0  0  0  0
   45.1146  -29.9720  -99.9728 N   0  0  0  0  0  0  0  0  0  0  0  0
   46.0819  -29.0396  -99.7914 C   0  0  0  0  0  0  0  0  0  0  0  0
   46.3227  -28.0789 -100.7079 N   0  0  0  0  0  0  0  0  0  0  0  0
   45.6652  -28.0695 -101.8789 C   0  0  0  0  0  0  0  0  0  0  0  0
   44.6552  -29.0688 -102.1317 C   0  0  0  0  0  0  0  0  0  0  0  0
   44.3940  -30.0324 -101.1126 C   0  0  0  0  0  0  0  0  0  0  0  0
   43.4348  -31.0097 -101.2843 N   0  0  0  0  0  0  0  0  0  0  0  0
   44.1651  -28.8395 -103.3556 N   0  0  0  0  0  0  0  0  0  0  0  0
   44.7776  -27.8151 -103.8704 C   0  0  0  0  0  0  0  0  0  0  0  0
   45.7089  -27.2928 -103.0035 N   0  0  0  0  0  0  0  0  0  0  0  0
  2  1  1  6  0  0  0
  2  3  1  0  0  0  0
  2  5  1  0  0  0  0
  3  4  1  0  0  0  0
  3 17  1  0  0  0  0
  5  6  1  0  0  0  0
  7  6  1  1  0  0  0
  7  8  1  0  0  0  0
  7  9  1  0  0  0  0
 10  9  1  6  0  0  0
 10 11  1  0  0  0  0
 10 12  1  0  0  0  0
 11 16  1  0  0  0  0
 12 13  1  1  0  0  0
 12 14  1  0  0  0  0
 14 15  1  6  0  0  0
 14 16  1  0  0  0  0
 16 27  1  1  0  0  0
 18 19  2  0  0  0  0
 18 23  1  0  0  0  0
 19 20  1  0  0  0  0
 20 21  2  0  0  0  0
 21 22  1  0  0  0  0
 21 27  1  0  0  0  0
 22 23  2  0  0  0  0
 22 25  1  0  0  0  0
 23 24  1  0  0  0  0
 25 26  2  0  0  0  0
 26 27  1  0  0  0  0
M  END
>  <CHROM.1>
107.62471479,-170.83155880,170.21701720,-71.83278401,-127.76065917,26.05190566
135.70458366,46.80538505,-28.77338774,-104.00028217,-1.71175328,0.94218770
0.72890651

>  <Name>
ligand

>  <RI>
0

>  <Rbt.Current_Directory>
/home/itssahil/PROJECTS/Mol_Feturizer/Test_systems_manuscript/rnas/4l81

>  <Rbt.Executable>
rbdock ($Id: //depot/dev/client3/rdock/2013.1/src/exe/rbdock.cxx#4 $)

>  <Rbt.Library>
libRbt.so (2013.1, Build901 2013/11/27)

>  <Rbt.Parameter_File>
/export/apps/rDock/src/rDock_2013.1_src/data/scripts/dock_solv.prm

>  <Rbt.Receptor>
prm/pocket_docking_5.prm

>  <SCORE>
-8.61267

>  <SCORE.INTER>
-8.92045

>  <SCORE.INTER.CONST>
1

>  <SCORE.INTER.POLAR>
0

>  <SCORE.INTER.ROT>
7

>  <SCORE.INTER.SOLV>
19.5385

>  <SCORE.INTER.VDW>
-20.7265

>  <SCORE.INTER.norm>
-0.330387

>  <SCORE.INTRA>
0.307782

>  <SCORE.INTRA.DIHEDRAL>
3.06169

>  <SCORE.INTRA.DIHEDRAL.0>
8.34559

>  <SCORE.INTRA.POLAR>
0

>  <SCORE.INTRA.POLAR.0>
0

>  <SCORE.INTRA.REPUL>
0

>  <SCORE.INTRA.REPUL.0>
0

>  <SCORE.INTRA.SOLV>
-1.2476

>  <SCORE.INTRA.SOLV.lig_0>
-48.829

>  <SCORE.INTRA.VDW>
-0.599263

>  <SCORE.INTRA.VDW.0>
-1.77092

>  <SCORE.INTRA.norm>
0.0113993

>  <SCORE.RESTR>
0

>  <SCORE.RESTR.CAVITY>
0

>  <SCORE.RESTR.norm>
0

>  <SCORE.SYSTEM>
0

>  <SCORE.SYSTEM.CONST>
0

>  <SCORE.SYSTEM.DIHEDRAL>
0

>  <SCORE.SYSTEM.SOLV>
0

>  <SCORE.SYSTEM.norm>
0

>  <SCORE.heavy>
27

>  <SCORE.norm>
-0.318988

>  <RMSD>
4.737

$$$$
ligand
 OpenBabel02271912153D
libRbt.so/2013.1/901 2013/11/27
 27 29  0  0  0  0  0  0  0  0999 V2000
   48.0168  -22.2571 -106.1460 N   0  0  0  0  0  0  0  0  0  0  0  0
   47.3312  -23.5524 -106.0750 C   0  0  2  0  0  0  0  0  0  0  0  0
   45.8738  -23.3736 -106.4449 C   0  0  0  0  0  0  0  0  0  0  0  0
   45.1905  -24.3435 -106.7366 O   0  0  0  0  0  0  0  0  0  0  0  0
   47.4150  -24.1526 -104.6650 C   0  0  0  0  0  0  0  0  0  0  0  0
   46.9364  -25.5975 -104.6624 C   0  0  0  0  0  0  0  0  0  0  0  0
   47.0795  -26.4063 -103.0227 S   0  0  2  0  0  0  0  0  0  0  0  0
   48.8765  -26.5557 -102.7621 C   0  0  0  0  0  0  0  0  0  0  0  0
   46.7413  -28.0637 -103.6124 C   0  0  0  0  0  0  0  0  0  0  0  0
   46.1611  -28.9736 -102.5625 C   0  0  1  0  0  0  0  0  0  0  0  0
   45.7570  -30.1923 -103.2093 O   0  0  0  0  0  0  0  0  0  0  0  0
   47.3373  -29.3074 -101.7362 C   0  0  1  0  0  0  0  0  0  0  0  0
   47.3692  -28.4647 -100.5854 O   0  0  0  0  0  0  0  0  0  0  0  0
   47.0547  -30.7200 -101.3277 C   0  0  1  0  0  0  0  0  0  0  0  0
   46.2577  -30.7448 -100.1255 O   0  0  0  0  0  0  0  0  0  0  0  0
   46.2563  -31.3569 -102.5046 C   0  0  2  0  0  0  0  0  0  0  0  0
   45.3630  -22.2675 -106.4225 O   0  0  0  0  0  0  0  0  0  0  0  0
   50.8114  -33.5898 -104.0741 N   0  0  0  0  0  0  0  0  0  0  0  0
   50.5886  -32.8667 -102.9492 C   0  0  0  0  0  0  0  0  0  0  0  0
   49.3648  -32.3866 -102.6446 N   0  0  0  0  0  0  0  0  0  0  0  0
   48.3387  -32.5362 -103.4980 C   0  0  0  0  0  0  0  0  0  0  0  0
   48.5409  -33.2641 -104.7275 C   0  0  0  0  0  0  0  0  0  0  0  0
   49.8371  -33.8023 -104.9839 C   0  0  0  0  0  0  0  0  0  0  0  0
   50.0973  -34.5173 -106.1353 N   0  0  0  0  0  0  0  0  0  0  0  0
   47.3772  -33.2616 -105.3882 N   0  0  0  0  0  0  0  0  0  0  0  0
   46.4985  -32.6030 -104.6928 C   0  0  0  0  0  0  0  0  0  0  0  0
   47.0307  -32.1377 -103.5130 N   0  0  0  0  0  0  0  0  0  0  0  0
  2  1  1  1  0  0  0
  2  3  1  0  0  0  0
  2  5  1  0  0  0  0
  3  4  1  0  0  0  0
  3 17  1  0  0  0  0
  5  6  1  0  0  0  0
  7  6  1  6  0  0  0
  7  8  1  0  0  0  0
  7  9  1  0  0  0  0
 10  9  1  6  0  0  0
 10 11  1  0  0  0  0
 10 12  1  0  0  0  0
 11 16  1  0  0  0  0
 12 13  1  1  0  0  0
 12 14  1  0  0  0  0
 14 15  1  1  0  0  0
 14 16  1  0  0  0  0
 16 27  1  6  0  0  0
 18 19  2  0  0  0  0
 18 23  1  0  0  0  0
 19 20  1  0  0  0  0
 20 21  2  0  0  0  0
 21 22  1  0  0  0  0
 21 27  1  0  0  0  0
 22 23  2  0  0  0  0
 22 25  1  0  0  0  0
 23 24  1  0  0  0  0
 25 26  2  0  0  0  0
 26 27  1  0  0  0  0
M  END
>  <CHROM.1>
163.88055128,-169.36919919,177.38546828,-68.45131523,-154.19074221,171.60731883
122.35836096,47.46605154,-28.91025540,-103.83429319,-2.15391473,-1.16822273
2.40913804

>  <Name>
ligand

>  <RI>
0

>  <Rbt.Current_Directory>
/home/itssahil/PROJECTS/Mol_Feturizer/Test_systems_manuscript/rnas/4l81

>  <Rbt.Executable>
rbdock ($Id: //depot/dev/client3/rdock/2013.1/src/exe/rbdock.cxx#4 $)

>  <Rbt.Library>
libRbt.so (2013.1, Build901 2013/11/27)

>  <Rbt.Parameter_File>
/export/apps/rDock/src/rDock_2013.1_src/data/scripts/dock_solv.prm

>  <Rbt.Receptor>
prm/pocket_docking_8.prm

>  <SCORE>
-11.7297

>  <SCORE.INTER>
-9.97018

>  <SCORE.INTER.CONST>
1

>  <SCORE.INTER.POLAR>
0

>  <SCORE.INTER.ROT>
7

>  <SCORE.INTER.SOLV>
6.20963

>  <SCORE.INTER.VDW>
-16.9833

>  <SCORE.INTER.norm>
-0.369266

>  <SCORE.INTRA>
-1.7595

>  <SCORE.INTRA.DIHEDRAL>
-1.85469

>  <SCORE.INTRA.DIHEDRAL.0>
8.34559

>  <SCORE.INTRA.POLAR>
0

>  <SCORE.INTRA.POLAR.0>
0

>  <SCORE.INTRA.REPUL>
0

>  <SCORE.INTRA.REPUL.0>
0

>  <SCORE.INTRA.SOLV>
-1.01662

>  <SCORE.INTRA.SOLV.lig_0>
-48.829

>  <SCORE.INTRA.VDW>
-0.323843

>  <SCORE.INTRA.VDW.0>
-1.77092

>  <SCORE.INTRA.norm>
-0.0651666

>  <SCORE.RESTR>
0

>  <SCORE.RESTR.CAVITY>
0

>  <SCORE.RESTR.norm>
0

>  <SCORE.SYSTEM>
0

>  <SCORE.SYSTEM.CONST>
0

>  <SCORE.SYSTEM.DIHEDRAL>
0

>  <SCORE.SYSTEM.SOLV>
0

>  <SCORE.SYSTEM.norm>
0

>  <SCORE.heavy>
27

>  <SCORE.norm>
-0.434433

>  <RMSD>
4.742

$$$$
ligand
 OpenBabel02271912153D
libRbt.so/2013.1/901 2013/11/27
 27 29  0  0  0  0  0  0  0  0999 V2000
   43.9617  -27.3483 -105.3531 N   0  0  0  0  0  0  0  0  0  0  0  0
   45.2057  -28.1083 -105.5192 C   0  0  2  0  0  0  0  0  0  0  0  0
   46.1586  -27.3309 -106.4026 C   0  0  0  0  0  0  0  0  0  0  0  0
   45.7488  -26.7809 -107.4138 O   0  0  0  0  0  0  0  0  0  0  0  0
   44.9426  -29.4784 -106.1586 C   0  0  0  0  0  0  0  0  0  0  0  0
   46.2294  -30.2852 -106.2585 C   0  0  0  0  0  0  0  0  0  0  0  0
   47.1485  -30.3844 -104.6746 S   0  0  2  0  0  0  0  0  0  0  0  0
   48.6743  -31.2811 -105.1076 C   0  0  0  0  0  0  0  0  0  0  0  0
   46.2003  -31.7484 -104.0044 C   0  0  0  0  0  0  0  0  0  0  0  0
   45.9423  -31.6380 -102.5252 C   0  0  1  0  0  0  0  0  0  0  0  0
   47.0950  -31.0276 -101.9206 O   0  0  0  0  0  0  0  0  0  0  0  0
   44.8564  -30.6409 -102.4586 C   0  0  1  0  0  0  0  0  0  0  0  0
   43.6004  -31.3075 -102.3421 O   0  0  0  0  0  0  0  0  0  0  0  0
   45.1668  -29.9097 -101.1894 C   0  0  1  0  0  0  0  0  0  0  0  0
   44.5619  -30.5792 -100.0637 O   0  0  0  0  0  0  0  0  0  0  0  0
   46.7183  -29.9333 -101.0473 C   0  0  2  0  0  0  0  0  0  0  0  0
   47.3326  -27.2198 -106.0957 O   0  0  0  0  0  0  0  0  0  0  0  0
   46.7619  -25.2322 -103.5162 N   0  0  0  0  0  0  0  0  0  0  0  0
   45.7004  -26.0509 -103.3139 C   0  0  0  0  0  0  0  0  0  0  0  0
   45.8168  -27.2080 -102.6293 N   0  0  0  0  0  0  0  0  0  0  0  0
   47.0164  -27.6316 -102.1993 C   0  0  0  0  0  0  0  0  0  0  0  0
   48.1810  -26.8109 -102.4291 C   0  0  0  0  0  0  0  0  0  0  0  0
   48.0038  -25.5689 -103.1084 C   0  0  0  0  0  0  0  0  0  0  0  0
   49.0728  -24.7308 -103.3525 N   0  0  0  0  0  0  0  0  0  0  0  0
   49.2326  -27.4577 -101.9128 N   0  0  0  0  0  0  0  0  0  0  0  0
   48.8278  -28.5835 -101.4048 C   0  0  0  0  0  0  0  0  0  0  0  0
   47.4689  -28.7435 -101.5444 N   0  0  0  0  0  0  0  0  0  0  0  0
  2  1  1  6  0  0  0
  2  3  1  0  0  0  0
  2  5  1  0  0  0  0
  3  4  1  0  0  0  0
  3 17  1  0  0  0  0
  5  6  1  0  0  0  0
  7  6  1  6  0  0  0
  7  8  1  0  0  0  0
  7  9  1  0  0  0  0
 10  9  1  6  0  0  0
 10 11  1  0  0  0  0
 10 12  1  0  0  0  0
 11 16  1  0  0  0  0
 12 13  1  1  0  0  0
 12 14  1  0  0  0  0
 14 15  1  1  0  0  0
 14 16  1  0  0  0  0
 16 27  1  6  0  0  0
 18 19  2  0  0  0  0
 18 23  1  0  0  0  0
 19 20  1  0  0  0  0
 20 21  2  0  0  0  0
 21 22  1  0  0  0  0
 21 27  1  0  0  0  0
 22 23  2  0  0  0  0
 22 25  1  0  0  0  0
 23 24  1  0  0  0  0
 25 26  2  0  0  0  0
 26 27  1  0  0  0  0
M  END
>  <CHROM.1>
-43.43465176,-177.03559871,51.17161836,-175.94191948,-142.10341712,-34.98065839
108.77200181,46.50555640,-28.77017748,-103.56367303,1.00268973,-1.09006737
-1.01614432

>  <Name>
ligand

>  <RI>
0

>  <Rbt.Current_Directory>
/home/itssahil/PROJECTS/Mol_Feturizer/Test_systems_manuscript/rnas/4l81

>  <Rbt.Executable>
rbdock ($Id: //depot/dev/client3/rdock/2013.1/src/exe/rbdock.cxx#4 $)

>  <Rbt.Library>
libRbt.so (2013.1, Build901 2013/11/27)

>  <Rbt.Parameter_File>
/export/apps/rDock/src/rDock_2013.1_src/data/scripts/dock_solv.prm

>  <Rbt.Receptor>
prm/pocket_docking_5.prm

>  <SCORE>
-11.3528

>  <SCORE.INTER>
-8.3917

>  <SCORE.INTER.CONST>
1

>  <SCORE.INTER.POLAR>
0

>  <SCORE.INTER.ROT>
7

>  <SCORE.INTER.SOLV>
13.6533

>  <SCORE.INTER.VDW>
-18.4122

>  <SCORE.INTER.norm>
-0.310804

>  <SCORE.INTRA>
-2.96115

>  <SCORE.INTRA.DIHEDRAL>
1.519

>  <SCORE.INTRA.DIHEDRAL.0>
8.34559

>  <SCORE.INTRA.POLAR>
0

>  <SCORE.INTRA.POLAR.0>
0

>  <SCORE.INTRA.REPUL>
0

>  <SCORE.INTRA.REPUL.0>
0

>  <SCORE.INTRA.SOLV>
0.450552

>  <SCORE.INTRA.SOLV.lig_0>
-48.829

>  <SCORE.INTRA.VDW>
-3.94592

>  <SCORE.INTRA.VDW.0>
-1.77092

>  <SCORE.INTRA.norm>
-0.109672

>  <SCORE.RESTR>
0

>  <SCORE.RESTR.CAVITY>
0

>  <SCORE.RESTR.norm>
0

>  <SCORE.SYSTEM>
0

>  <SCORE.SYSTEM.CONST>
0

>  <SCORE.SYSTEM.DIHEDRAL>
0

>  <SCORE.SYSTEM.SOLV>
0

>  <SCORE.SYSTEM.norm>
0

>  <SCORE.heavy>
27

>  <SCORE.norm>
-0.420476

>  <RMSD>
4.748

$$$$
ligand
 OpenBabel02271912153D
libRbt.so/2013.1/901 2013/11/27
 27 29  0  0  0  0  0  0  0  0999 V2000
   44.8572  -29.5361 -106.0616 N   0  0  0  0  0  0  0  0  0  0  0  0
   44.1629  -28.7033 -105.0732 C   0  0  2  0  0  0  0  0  0  0  0  0
   44.3147  -27.2437 -105.4463 C   0  0  0  0  0  0  0  0  0  0  0  0
   43.4888  -26.4247 -105.0724 O   0  0  0  0  0  0  0  0  0  0  0  0
   44.7320  -28.9167 -103.6639 C   0  0  0  0  0  0  0  0  0  0  0  0
   44.6097  -30.3752 -103.2458 C   0  0  0  0  0  0  0  0  0  0  0  0
   45.5334  -30.7701 -101.7115 S   0  0  2  0  0  0  0  0  0  0  0  0
   44.9867  -29.4959 -100.5295 C   0  0  0  0  0  0  0  0  0  0  0  0
   47.0756  -30.0250 -102.2362 C   0  0  0  0  0  0  0  0  0  0  0  0
   48.2383  -30.3387 -101.3327 C   0  0  1  0  0  0  0  0  0  0  0  0
   48.6426  -31.6945 -101.5883 O   0  0  0  0  0  0  0  0  0  0  0  0
   49.3078  -29.4742 -101.8678 C   0  0  1  0  0  0  0  0  0  0  0  0
   49.3913  -28.2795 -101.0924 O   0  0  0  0  0  0  0  0  0  0  0  0
   50.5334  -30.3079 -101.6558 C   0  0  1  0  0  0  0  0  0  0  0  0
   51.0716  -30.0825 -100.3364 O   0  0  0  0  0  0  0  0  0  0  0  0
   50.0746  -31.7906 -101.7935 C   0  0  2  0  0  0  0  0  0  0  0  0
   45.2773  -26.8694 -106.0931 O   0  0  0  0  0  0  0  0  0  0  0  0
   47.9773  -33.6913 -106.2865 N   0  0  0  0  0  0  0  0  0  0  0  0
   47.3200  -33.1627 -105.2251 C   0  0  0  0  0  0  0  0  0  0  0  0
   47.9789  -32.6734 -104.1540 N   0  0  0  0  0  0  0  0  0  0  0  0
   49.3151  -32.7758 -104.0665 C   0  0  0  0  0  0  0  0  0  0  0  0
   50.0524  -33.3692 -105.1559 C   0  0  0  0  0  0  0  0  0  0  0  0
   49.3207  -33.8233 -106.2933 C   0  0  0  0  0  0  0  0  0  0  0  0
   49.9634  -34.3916 -107.3744 N   0  0  0  0  0  0  0  0  0  0  0  0
   51.3467  -33.3535 -104.8165 N   0  0  0  0  0  0  0  0  0  0  0  0
   51.4672  -32.8227 -103.6362 C   0  0  0  0  0  0  0  0  0  0  0  0
   50.2488  -32.4396 -103.1257 N   0  0  0  0  0  0  0  0  0  0  0  0
  2  1  1  6  0  0  0
  2  3  1  0  0  0  0
  2  5  1  0  0  0  0
  3  4  1  0  0  0  0
  3 17  1  0  0  0  0
  5  6  1  0  0  0  0
  7  6  1  6  0  0  0
  7  8  1  0  0  0  0
  7  9  1  0  0  0  0
 10  9  1  6  0  0  0
 10 11  1  0  0  0  0
 10 12  1  0  0  0  0
 11 16  1  0  0  0  0
 12 13  1  1  0  0  0
 12 14  1  0  0  0  0
 14 15  1  1  0  0  0
 14 16  1  0  0  0  0
 16 27  1  6  0  0  0
 18 19  2  0  0  0  0
 18 23  1  0  0  0  0
 19 20  1  0  0  0  0
 20 21  2  0  0  0  0
 21 22  1  0  0  0  0
 21 27  1  0  0  0  0
 22 23  2  0  0  0  0
 22 25  1  0  0  0  0
 23 24  1  0  0  0  0
 25 26  2  0  0  0  0
 26 27  1  0  0  0  0
M  END
>  <CHROM.1>
155.05433171,-58.84375974,169.58530606,50.81607368,-169.63761573,75.26354440
6.15293451,47.67245520,-30.75045219,-103.52109064,2.83453460,-0.61652589
1.03463303

>  <Name>
ligand

>  <RI>
0

>  <Rbt.Current_Directory>
/home/itssahil/PROJECTS/Mol_Feturizer/Test_systems_manuscript/rnas/4l81

>  <Rbt.Executable>
rbdock ($Id: //depot/dev/client3/rdock/2013.1/src/exe/rbdock.cxx#4 $)

>  <Rbt.Library>
libRbt.so (2013.1, Build901 2013/11/27)

>  <Rbt.Parameter_File>
/export/apps/rDock/src/rDock_2013.1_src/data/scripts/dock_solv.prm

>  <Rbt.Receptor>
prm/pocket_docking_8.prm

>  <SCORE>
-14.9334

>  <SCORE.INTER>
-13.5895

>  <SCORE.INTER.CONST>
1

>  <SCORE.INTER.POLAR>
0

>  <SCORE.INTER.ROT>
7

>  <SCORE.INTER.SOLV>
11.6083

>  <SCORE.INTER.VDW>
-21.1958

>  <SCORE.INTER.norm>
-0.503314

>  <SCORE.INTRA>
-1.45559

>  <SCORE.INTRA.DIHEDRAL>
-3.05834

>  <SCORE.INTRA.DIHEDRAL.0>
8.34559

>  <SCORE.INTRA.POLAR>
0

>  <SCORE.INTRA.POLAR.0>
0

>  <SCORE.INTRA.REPUL>
0

>  <SCORE.INTRA.REPUL.0>
0

>  <SCORE.INTRA.SOLV>
-0.403642

>  <SCORE.INTRA.SOLV.lig_0>
-48.829

>  <SCORE.INTRA.VDW>
0.275407

>  <SCORE.INTRA.VDW.0>
-1.77092

>  <SCORE.INTRA.norm>
-0.0539106

>  <SCORE.RESTR>
0.111647

>  <SCORE.RESTR.CAVITY>
0.111647

>  <SCORE.RESTR.norm>
0.00413506

>  <SCORE.SYSTEM>
0

>  <SCORE.SYSTEM.CONST>
0

>  <SCORE.SYSTEM.DIHEDRAL>
0

>  <SCORE.SYSTEM.SOLV>
0

>  <SCORE.SYSTEM.norm>
0

>  <SCORE.heavy>
27

>  <SCORE.norm>
-0.553089

>  <RMSD>
4.756

$$$$
ligand
 OpenBabel02271912153D
libRbt.so/2013.1/901 2013/11/27
 27 29  0  0  0  0  0  0  0  0999 V2000
   48.2886  -29.4750 -107.5490 N   0  0  0  0  0  0  0  0  0  0  0  0
   47.8973  -28.5795 -106.4546 C   0  0  2  0  0  0  0  0  0  0  0  0
   48.8186  -27.3780 -106.4310 C   0  0  0  0  0  0  0  0  0  0  0  0
   49.7554  -27.3066 -107.2120 O   0  0  0  0  0  0  0  0  0  0  0  0
   47.9740  -29.2900 -105.0964 C   0  0  0  0  0  0  0  0  0  0  0  0
   47.2713  -28.4759 -104.0192 C   0  0  0  0  0  0  0  0  0  0  0  0
   45.4550  -28.3770 -104.2534 S   0  0  2  0  0  0  0  0  0  0  0  0
   45.2274  -26.9077 -105.3064 C   0  0  0  0  0  0  0  0  0  0  0  0
   45.1106  -27.6374 -102.6587 C   0  0  0  0  0  0  0  0  0  0  0  0
   44.8976  -28.6423 -101.5580 C   0  0  1  0  0  0  0  0  0  0  0  0
   44.5492  -29.8970 -102.1674 O   0  0  0  0  0  0  0  0  0  0  0  0
   46.2549  -28.8083 -101.0030 C   0  0  1  0  0  0  0  0  0  0  0  0
   46.4016  -27.9901  -99.8434 O   0  0  0  0  0  0  0  0  0  0  0  0
   46.2700  -30.2541 -100.6137 C   0  0  1  0  0  0  0  0  0  0  0  0
   45.7508  -30.4197  -99.2779 O   0  0  0  0  0  0  0  0  0  0  0  0
   45.3463  -30.9844 -101.6343 C   0  0  2  0  0  0  0  0  0  0  0  0
   48.6141  -26.4592 -105.6571 O   0  0  0  0  0  0  0  0  0  0  0  0
   49.7140  -32.8287 -104.0259 N   0  0  0  0  0  0  0  0  0  0  0  0
   49.6242  -32.2343 -102.8109 C   0  0  0  0  0  0  0  0  0  0  0  0
   48.4386  -31.8460 -102.2964 N   0  0  0  0  0  0  0  0  0  0  0  0
   47.3104  -31.9572 -103.0163 C   0  0  0  0  0  0  0  0  0  0  0  0
   47.3657  -32.5469 -104.3323 C   0  0  0  0  0  0  0  0  0  0  0  0
   48.6314  -32.9944 -104.8150 C   0  0  0  0  0  0  0  0  0  0  0  0
   48.7544  -33.5763 -106.0604 N   0  0  0  0  0  0  0  0  0  0  0  0
   46.1227  -32.5330 -104.8278 N   0  0  0  0  0  0  0  0  0  0  0  0
   45.3265  -31.9904 -103.9554 C   0  0  0  0  0  0  0  0  0  0  0  0
   46.0002  -31.6218 -102.8143 N   0  0  0  0  0  0  0  0  0  0  0  0
  2  1  1  6  0  0  0
  2  3  1  0  0  0  0
  2  5  1  0  0  0  0
  3  4  1  0  0  0  0
  3 17  1  0  0  0  0
  5  6  1  0  0  0  0
  7  6  1  1  0  0  0
  7  8  1  0  0  0  0
  7  9  1  0  0  0  0
 10  9  1  6  0  0  0
 10 11  1  0  0  0  0
 10 12  1  0  0  0  0
 11 16  1  0  0  0  0
 12 13  1  1  0  0  0
 12 14  1  0  0  0  0
 14 15  1  1  0  0  0
 14 16  1  0  0  0  0
 16 27  1  6  0  0  0
 18 19  2  0  0  0  0
 18 23  1  0  0  0  0
 19 20  1  0  0  0  0
 20 21  2  0  0  0  0
 21 22  1  0  0  0  0
 21 27  1  0  0  0  0
 22 23  2  0  0  0  0
 22 25  1  0  0  0  0
 23 24  1  0  0  0  0
 25 26  2  0  0  0  0
 26 27  1  0  0  0  0
M  END
>  <CHROM.1>
-3.31230437,-166.93147425,67.52661523,-89.01492445,-88.16910418,-20.78327543
130.83302791,46.98710880,-29.87275575,-103.70232048,-0.59160581,-0.97658228
2.64625937

>  <Name>
ligand

>  <RI>
0

>  <Rbt.Current_Directory>
/home/itssahil/PROJECTS/Mol_Feturizer/Test_systems_manuscript/rnas/4l81

>  <Rbt.Executable>
rbdock ($Id: //depot/dev/client3/rdock/2013.1/src/exe/rbdock.cxx#4 $)

>  <Rbt.Library>
libRbt.so (2013.1, Build901 2013/11/27)

>  <Rbt.Parameter_File>
/export/apps/rDock/src/rDock_2013.1_src/data/scripts/dock_solv.prm

>  <Rbt.Receptor>
prm/pocket_docking_5.prm

>  <SCORE>
-11.6938

>  <SCORE.INTER>
-9.78282

>  <SCORE.INTER.CONST>
1

>  <SCORE.INTER.POLAR>
0

>  <SCORE.INTER.ROT>
7

>  <SCORE.INTER.SOLV>
11.873

>  <SCORE.INTER.VDW>
-18.7462

>  <SCORE.INTER.norm>
-0.362327

>  <SCORE.INTRA>
-1.91752

>  <SCORE.INTRA.DIHEDRAL>
1.67943

>  <SCORE.INTRA.DIHEDRAL.0>
8.34559

>  <SCORE.INTRA.POLAR>
0

>  <SCORE.INTRA.POLAR.0>
0

>  <SCORE.INTRA.REPUL>
0

>  <SCORE.INTRA.REPUL.0>
0

>  <SCORE.INTRA.SOLV>
-0.368488

>  <SCORE.INTRA.SOLV.lig_0>
-48.829

>  <SCORE.INTRA.VDW>
-2.57299

>  <SCORE.INTRA.VDW.0>
-1.77092

>  <SCORE.INTRA.norm>
-0.0710191

>  <SCORE.RESTR>
0.00653969

>  <SCORE.RESTR.CAVITY>
0.00653969

>  <SCORE.RESTR.norm>
0.000242211

>  <SCORE.SYSTEM>
0

>  <SCORE.SYSTEM.CONST>
0

>  <SCORE.SYSTEM.DIHEDRAL>
0

>  <SCORE.SYSTEM.SOLV>
0

>  <SCORE.SYSTEM.norm>
0

>  <SCORE.heavy>
27

>  <SCORE.norm>
-0.433104

>  <RMSD>
4.779

$$$$
ligand
 OpenBabel02271912153D
libRbt.so/2013.1/901 2013/11/27
 27 29  0  0  0  0  0  0  0  0999 V2000
   47.7896  -25.2773 -107.4687 N   0  0  0  0  0  0  0  0  0  0  0  0
   48.2328  -25.9663 -106.2514 C   0  0  2  0  0  0  0  0  0  0  0  0
   49.5447  -26.6730 -106.5201 C   0  0  0  0  0  0  0  0  0  0  0  0
   49.6340  -27.4750 -107.4374 O   0  0  0  0  0  0  0  0  0  0  0  0
   47.1986  -27.0004 -105.7864 C   0  0  0  0  0  0  0  0  0  0  0  0
   47.6120  -27.6202 -104.4590 C   0  0  0  0  0  0  0  0  0  0  0  0
   47.4805  -26.4605 -103.0445 S   0  0  2  0  0  0  0  0  0  0  0  0
   49.1020  -25.6306 -103.0048 C   0  0  0  0  0  0  0  0  0  0  0  0
   47.7639  -27.6940 -101.7768 C   0  0  0  0  0  0  0  0  0  0  0  0
   46.5388  -28.4965 -101.4277 C   0  0  1  0  0  0  0  0  0  0  0  0
   46.3494  -29.4828 -102.4563 O   0  0  0  0  0  0  0  0  0  0  0  0
   46.9636  -29.2279 -100.2184 C   0  0  1  0  0  0  0  0  0  0  0  0
   46.5004  -28.5421  -99.0562 O   0  0  0  0  0  0  0  0  0  0  0  0
   46.2450  -30.5337 -100.3617 C   0  0  1  0  0  0  0  0  0  0  0  0
   44.9233  -30.4446  -99.7904 O   0  0  0  0  0  0  0  0  0  0  0  0
   46.1420  -30.8026 -101.8931 C   0  0  2  0  0  0  0  0  0  0  0  0
   50.5289  -26.4236 -105.8463 O   0  0  0  0  0  0  0  0  0  0  0  0
   51.2476  -32.1527 -102.4482 N   0  0  0  0  0  0  0  0  0  0  0  0
   50.7352  -31.1407 -101.7059 C   0  0  0  0  0  0  0  0  0  0  0  0
   49.4055  -30.9288 -101.6161 N   0  0  0  0  0  0  0  0  0  0  0  0
   48.5445  -31.6661 -102.3363 C   0  0  0  0  0  0  0  0  0  0  0  0
   49.0495  -32.7283 -103.1725 C   0  0  0  0  0  0  0  0  0  0  0  0
   50.4581  -32.9534 -103.1950 C   0  0  0  0  0  0  0  0  0  0  0  0
   51.0075  -33.9584 -103.9649 N   0  0  0  0  0  0  0  0  0  0  0  0
   47.9979  -33.2942 -103.7766 N   0  0  0  0  0  0  0  0  0  0  0  0
   46.9151  -32.6812 -103.4008 C   0  0  0  0  0  0  0  0  0  0  0  0
   47.1877  -31.6723 -102.5067 N   0  0  0  0  0  0  0  0  0  0  0  0
  2  1  1  6  0  0  0
  2  3  1  0  0  0  0
  2  5  1  0  0  0  0
  3  4  1  0  0  0  0
  3 17  1  0  0  0  0
  5  6  1  0  0  0  0
  7  6  1  6  0  0  0
  7  8  1  0  0  0  0
  7  9  1  0  0  0  0
 10  9  1  6  0  0  0
 10 11  1  0  0  0  0
 10 12  1  0  0  0  0
 11 16  1  0  0  0  0
 12 13  1  1  0  0  0
 12 14  1  0  0  0  0
 14 15  1  6  0  0  0
 14 16  1  0  0  0  0
 16 27  1  6  0  0  0
 18 19  2  0  0  0  0
 18 23  1  0  0  0  0
 19 20  1  0  0  0  0
 20 21  2  0  0  0  0
 21 22  1  0  0  0  0
 21 27  1  0  0  0  0
 22 23  2  0  0  0  0
 22 25  1  0  0  0  0
 23 24  1  0  0  0  0
 25 26  2  0  0  0  0
 26 27  1  0  0  0  0
M  END
>  <CHROM.1>
-55.59603502,-175.03513215,70.62337846,-88.70385855,-81.17947542,78.19666189
68.45853032,48.12901854,-29.28888496,-103.14120097,-1.45404258,-0.87498640
2.61548314

>  <Name>
ligand

>  <RI>
0

>  <Rbt.Current_Directory>
/home/itssahil/PROJECTS/Mol_Feturizer/Test_systems_manuscript/rnas/4l81

>  <Rbt.Executable>
rbdock ($Id: //depot/dev/client3/rdock/2013.1/src/exe/rbdock.cxx#4 $)

>  <Rbt.Library>
libRbt.so (2013.1, Build901 2013/11/27)

>  <Rbt.Parameter_File>
/export/apps/rDock/src/rDock_2013.1_src/data/scripts/dock_solv.prm

>  <Rbt.Receptor>
prm/pocket_docking_6.prm

>  <SCORE>
-16.1191

>  <SCORE.INTER>
-12.7687

>  <SCORE.INTER.CONST>
1

>  <SCORE.INTER.POLAR>
0

>  <SCORE.INTER.ROT>
7

>  <SCORE.INTER.SOLV>
11.3434

>  <SCORE.INTER.VDW>
-20.5603

>  <SCORE.INTER.norm>
-0.472914

>  <SCORE.INTRA>
-3.35038

>  <SCORE.INTRA.DIHEDRAL>
-1.95177

>  <SCORE.INTRA.DIHEDRAL.0>
8.34559

>  <SCORE.INTRA.POLAR>
0

>  <SCORE.INTRA.POLAR.0>
0

>  <SCORE.INTRA.REPUL>
0

>  <SCORE.INTRA.REPUL.0>
0

>  <SCORE.INTRA.SOLV>
-1.04353

>  <SCORE.INTRA.SOLV.lig_0>
-48.829

>  <SCORE.INTRA.VDW>
-1.85273

>  <SCORE.INTRA.VDW.0>
-1.77092

>  <SCORE.INTRA.norm>
-0.124088

>  <SCORE.RESTR>
0

>  <SCORE.RESTR.CAVITY>
0

>  <SCORE.RESTR.norm>
0

>  <SCORE.SYSTEM>
0

>  <SCORE.SYSTEM.CONST>
0

>  <SCORE.SYSTEM.DIHEDRAL>
0

>  <SCORE.SYSTEM.SOLV>
0

>  <SCORE.SYSTEM.norm>
0

>  <SCORE.heavy>
27

>  <SCORE.norm>
-0.597002

>  <RMSD>
4.820

$$$$
ligand
 OpenBabel02271912153D
libRbt.so/2013.1/901 2013/11/27
 27 29  0  0  0  0  0  0  0  0999 V2000
   49.0436  -27.1445 -107.6181 N   0  0  0  0  0  0  0  0  0  0  0  0
   48.9137  -25.8385 -106.9622 C   0  0  2  0  0  0  0  0  0  0  0  0
   48.9695  -24.7418 -108.0047 C   0  0  0  0  0  0  0  0  0  0  0  0
   49.0281  -25.0247 -109.1918 O   0  0  0  0  0  0  0  0  0  0  0  0
   50.0378  -25.6110 -105.9424 C   0  0  0  0  0  0  0  0  0  0  0  0
   50.0721  -26.7337 -104.9151 C   0  0  0  0  0  0  0  0  0  0  0  0
   48.4754  -26.9693 -104.0442 S   0  0  2  0  0  0  0  0  0  0  0  0
   48.3738  -25.5398 -102.9190 C   0  0  0  0  0  0  0  0  0  0  0  0
   49.0831  -28.1954 -102.8882 C   0  0  0  0  0  0  0  0  0  0  0  0
   48.0053  -28.8121 -102.0369 C   0  0  1  0  0  0  0  0  0  0  0  0
   47.2274  -29.6848 -102.8735 O   0  0  0  0  0  0  0  0  0  0  0  0
   48.7713  -29.6807 -101.1223 C   0  0  1  0  0  0  0  0  0  0  0  0
   48.9748  -29.0080  -99.8807 O   0  0  0  0  0  0  0  0  0  0  0  0
   47.8458  -30.8418 -100.9289 C   0  0  1  0  0  0  0  0  0  0  0  0
   46.9316  -30.5797  -99.8441 O   0  0  0  0  0  0  0  0  0  0  0  0
   47.0546  -30.9886 -102.2633 C   0  0  2  0  0  0  0  0  0  0  0  0
   48.9230  -23.5707 -107.6709 O   0  0  0  0  0  0  0  0  0  0  0  0
   51.0433  -33.9237 -104.1797 N   0  0  0  0  0  0  0  0  0  0  0  0
   51.0825  -33.0490 -103.1446 C   0  0  0  0  0  0  0  0  0  0  0  0
   49.9796  -32.3926 -102.7278 N   0  0  0  0  0  0  0  0  0  0  0  0
   48.8168  -32.5198 -103.3875 C   0  0  0  0  0  0  0  0  0  0  0  0
   48.7397  -33.4094 -104.5212 C   0  0  0  0  0  0  0  0  0  0  0  0
   49.9158  -34.1259 -104.8937 C   0  0  0  0  0  0  0  0  0  0  0  0
   49.9099  -35.0003 -105.9615 N   0  0  0  0  0  0  0  0  0  0  0  0
   47.4888  -33.3471 -104.9924 N   0  0  0  0  0  0  0  0  0  0  0  0
   46.8068  -32.5091 -104.2699 C   0  0  0  0  0  0  0  0  0  0  0  0
   47.5703  -31.9722 -103.2597 N   0  0  0  0  0  0  0  0  0  0  0  0
  2  1  1  6  0  0  0
  2  3  1  0  0  0  0
  2  5  1  0  0  0  0
  3  4  1  0  0  0  0
  3 17  1  0  0  0  0
  5  6  1  0  0  0  0
  7  6  1  6  0  0  0
  7  8  1  0  0  0  0
  7  9  1  0  0  0  0
 10  9  1  6  0  0  0
 10 11  1  0  0  0  0
 10 12  1  0  0  0  0
 11 16  1  0  0  0  0
 12 13  1  1  0  0  0
 12 14  1  0  0  0  0
 14 15  1  1  0  0  0
 14 16  1  0  0  0  0
 16 27  1  6  0  0  0
 18 19  2  0  0  0  0
 18 23  1  0  0  0  0
 19 20  1  0  0  0  0
 20 21  2  0  0  0  0
 21 22  1  0  0  0  0
 21 27  1  0  0  0  0
 22 23  2  0  0  0  0
 22 25  1  0  0  0  0
 23 24  1  0  0  0  0
 25 26  2  0  0  0  0
 26 27  1  0  0  0  0
M  END
>  <CHROM.1>
4.19140104,-56.03383707,-55.85208321,-73.13916996,-173.20144535,72.14780251
92.99070859,48.75143335,-29.42721685,-104.07957747,-1.46607604,-1.32023342
2.79050178

>  <Name>
ligand

>  <RI>
0

>  <Rbt.Current_Directory>
/home/itssahil/PROJECTS/Mol_Feturizer/Test_systems_manuscript/rnas/4l81

>  <Rbt.Executable>
rbdock ($Id: //depot/dev/client3/rdock/2013.1/src/exe/rbdock.cxx#4 $)

>  <Rbt.Library>
libRbt.so (2013.1, Build901 2013/11/27)

>  <Rbt.Parameter_File>
/export/apps/rDock/src/rDock_2013.1_src/data/scripts/dock_solv.prm

>  <Rbt.Receptor>
prm/pocket_docking_8.prm

>  <SCORE>
-12.548

>  <SCORE.INTER>
-10.0526

>  <SCORE.INTER.CONST>
1

>  <SCORE.INTER.POLAR>
0

>  <SCORE.INTER.ROT>
7

>  <SCORE.INTER.SOLV>
11.2431

>  <SCORE.INTER.VDW>
-18.7161

>  <SCORE.INTER.norm>
-0.372319

>  <SCORE.INTRA>
-2.5068

>  <SCORE.INTRA.DIHEDRAL>
-3.82747

>  <SCORE.INTRA.DIHEDRAL.0>
8.34559

>  <SCORE.INTRA.POLAR>
0

>  <SCORE.INTRA.POLAR.0>
0

>  <SCORE.INTRA.REPUL>
0

>  <SCORE.INTRA.REPUL.0>
0

>  <SCORE.INTRA.SOLV>
0.192352

>  <SCORE.INTRA.SOLV.lig_0>
-48.829

>  <SCORE.INTRA.VDW>
-0.689245

>  <SCORE.INTRA.VDW.0>
-1.77092

>  <SCORE.INTRA.norm>
-0.0928445

>  <SCORE.RESTR>
0.0114395

>  <SCORE.RESTR.CAVITY>
0.0114395

>  <SCORE.RESTR.norm>
0.000423684

>  <SCORE.SYSTEM>
0

>  <SCORE.SYSTEM.CONST>
0

>  <SCORE.SYSTEM.DIHEDRAL>
0

>  <SCORE.SYSTEM.SOLV>
0

>  <SCORE.SYSTEM.norm>
0

>  <SCORE.heavy>
27

>  <SCORE.norm>
-0.46474

>  <RMSD>
4.829

$$$$
ligand
 OpenBabel02271912153D
libRbt.so/2013.1/901 2013/11/27
 27 29  0  0  0  0  0  0  0  0999 V2000
   46.5963  -25.8697 -108.2155 N   0  0  0  0  0  0  0  0  0  0  0  0
   46.0348  -26.4356 -106.9838 C   0  0  2  0  0  0  0  0  0  0  0  0
   45.2736  -25.3616 -106.2355 C   0  0  0  0  0  0  0  0  0  0  0  0
   45.7851  -24.2697 -106.0390 O   0  0  0  0  0  0  0  0  0  0  0  0
   47.1365  -26.9902 -106.0705 C   0  0  0  0  0  0  0  0  0  0  0  0
   46.5346  -27.7188 -104.8772 C   0  0  0  0  0  0  0  0  0  0  0  0
   45.8882  -26.5872 -103.5869 S   0  0  2  0  0  0  0  0  0  0  0  0
   47.3492  -25.6285 -103.0715 C   0  0  0  0  0  0  0  0  0  0  0  0
   45.8730  -27.8057 -102.2739 C   0  0  0  0  0  0  0  0  0  0  0  0
   44.7736  -28.8258 -102.4067 C   0  0  1  0  0  0  0  0  0  0  0  0
   45.1552  -29.7544 -103.4358 O   0  0  0  0  0  0  0  0  0  0  0  0
   44.8551  -29.5592 -101.1287 C   0  0  1  0  0  0  0  0  0  0  0  0
   43.8838  -29.0454 -100.2187 O   0  0  0  0  0  0  0  0  0  0  0  0
   44.4896  -30.9539 -101.5329 C   0  0  1  0  0  0  0  0  0  0  0  0
   43.0582  -31.1294 -101.4921 O   0  0  0  0  0  0  0  0  0  0  0  0
   45.0020  -31.1269 -102.9943 C   0  0  2  0  0  0  0  0  0  0  0  0
   44.1347  -25.5657 -105.8532 O   0  0  0  0  0  0  0  0  0  0  0  0
   50.1178  -31.5433 -101.6327 N   0  0  0  0  0  0  0  0  0  0  0  0
   49.1953  -30.6852 -101.1321 C   0  0  0  0  0  0  0  0  0  0  0  0
   47.9085  -30.7105 -101.5375 N   0  0  0  0  0  0  0  0  0  0  0  0
   47.5169  -31.5351 -102.5225 C   0  0  0  0  0  0  0  0  0  0  0  0
   48.4757  -32.4376 -103.1131 C   0  0  0  0  0  0  0  0  0  0  0  0
   49.8128  -32.4162 -102.6162 C   0  0  0  0  0  0  0  0  0  0  0  0
   50.7777  -33.2593 -103.1289 N   0  0  0  0  0  0  0  0  0  0  0  0
   47.8365  -33.1340 -104.0604 N   0  0  0  0  0  0  0  0  0  0  0  0
   46.5984  -32.7416 -104.1097 C   0  0  0  0  0  0  0  0  0  0  0  0
   46.3393  -31.7622 -103.1795 N   0  0  0  0  0  0  0  0  0  0  0  0
  2  1  1  6  0  0  0
  2  3  1  0  0  0  0
  2  5  1  0  0  0  0
  3  4  1  0  0  0  0
  3 17  1  0  0  0  0
  5  6  1  0  0  0  0
  7  6  1  6  0  0  0
  7  8  1  0  0  0  0
  7  9  1  0  0  0  0
 10  9  1  1  0  0  0
 10 11  1  0  0  0  0
 10 12  1  0  0  0  0
 11 16  1  0  0  0  0
 12 13  1  1  0  0  0
 12 14  1  0  0  0  0
 14 15  1  6  0  0  0
 14 16  1  0  0  0  0
 16 27  1  1  0  0  0
 18 19  2  0  0  0  0
 18 23  1  0  0  0  0
 19 20  1  0  0  0  0
 20 21  2  0  0  0  0
 21 22  1  0  0  0  0
 21 27  1  0  0  0  0
 22 23  2  0  0  0  0
 22 25  1  0  0  0  0
 23 24  1  0  0  0  0
 25 26  2  0  0  0  0
 26 27  1  0  0  0  0
M  END
>  <CHROM.1>
-48.70437146,-173.32350594,-76.66303090,-60.22838931,-73.25017921,75.98364416
68.09982452,46.43114169,-29.14414943,-103.47565557,-1.91755935,-0.51434517
2.48218611

>  <Name>
ligand

>  <RI>
0

>  <Rbt.Current_Directory>
/home/itssahil/PROJECTS/Mol_Feturizer/Test_systems_manuscript/rnas/4l81

>  <Rbt.Executable>
rbdock ($Id: //depot/dev/client3/rdock/2013.1/src/exe/rbdock.cxx#4 $)

>  <Rbt.Library>
libRbt.so (2013.1, Build901 2013/11/27)

>  <Rbt.Parameter_File>
/export/apps/rDock/src/rDock_2013.1_src/data/scripts/dock_solv.prm

>  <Rbt.Receptor>
prm/pocket_docking_4.prm

>  <SCORE>
-15.5494

>  <SCORE.INTER>
-12.3283

>  <SCORE.INTER.CONST>
1

>  <SCORE.INTER.POLAR>
0

>  <SCORE.INTER.ROT>
7

>  <SCORE.INTER.SOLV>
15.9532

>  <SCORE.INTER.VDW>
-21.8033

>  <SCORE.INTER.norm>
-0.456604

>  <SCORE.INTRA>
-3.2211

>  <SCORE.INTRA.DIHEDRAL>
-2.67909

>  <SCORE.INTRA.DIHEDRAL.0>
8.34559

>  <SCORE.INTRA.POLAR>
0

>  <SCORE.INTRA.POLAR.0>
0

>  <SCORE.INTRA.REPUL>
0

>  <SCORE.INTRA.REPUL.0>
0

>  <SCORE.INTRA.SOLV>
-1.0688

>  <SCORE.INTRA.SOLV.lig_0>
-48.829

>  <SCORE.INTRA.VDW>
-1.34716

>  <SCORE.INTRA.VDW.0>
-1.77092

>  <SCORE.INTRA.norm>
-0.1193

>  <SCORE.RESTR>
0

>  <SCORE.RESTR.CAVITY>
0

>  <SCORE.RESTR.norm>
0

>  <SCORE.SYSTEM>
0

>  <SCORE.SYSTEM.CONST>
0

>  <SCORE.SYSTEM.DIHEDRAL>
0

>  <SCORE.SYSTEM.SOLV>
0

>  <SCORE.SYSTEM.norm>
0

>  <SCORE.heavy>
27

>  <SCORE.norm>
-0.575904

>  <RMSD>
4.830

$$$$
ligand
 OpenBabel02271912153D
libRbt.so/2013.1/901 2013/11/27
 27 29  0  0  0  0  0  0  0  0999 V2000
   48.5510  -24.5273 -106.6249 N   0  0  0  0  0  0  0  0  0  0  0  0
   47.1127  -24.4486 -106.9039 C   0  0  2  0  0  0  0  0  0  0  0  0
   46.4917  -23.3610 -106.0529 C   0  0  0  0  0  0  0  0  0  0  0  0
   45.5405  -22.7197 -106.4734 O   0  0  0  0  0  0  0  0  0  0  0  0
   46.4106  -25.7788 -106.5987 C   0  0  0  0  0  0  0  0  0  0  0  0
   46.7580  -26.2655 -105.1989 C   0  0  0  0  0  0  0  0  0  0  0  0
   45.7564  -27.7049 -104.6618 S   0  0  2  0  0  0  0  0  0  0  0  0
   44.1154  -26.9932 -104.3152 C   0  0  0  0  0  0  0  0  0  0  0  0
   46.4005  -27.7556 -102.9911 C   0  0  0  0  0  0  0  0  0  0  0  0
   45.6375  -28.6754 -102.0753 C   0  0  1  0  0  0  0  0  0  0  0  0
   45.4001  -29.9045 -102.7823 O   0  0  0  0  0  0  0  0  0  0  0  0
   46.6270  -28.9807 -101.0239 C   0  0  1  0  0  0  0  0  0  0  0  0
   46.4052  -28.1345  -99.8969 O   0  0  0  0  0  0  0  0  0  0  0  0
   46.2969  -30.3981 -100.6717 C   0  0  1  0  0  0  0  0  0  0  0  0
   45.2718  -30.4376  -99.6573 O   0  0  0  0  0  0  0  0  0  0  0  0
   45.7695  -31.0558 -101.9821 C   0  0  2  0  0  0  0  0  0  0  0  0
   46.9132  -23.1393 -104.9313 O   0  0  0  0  0  0  0  0  0  0  0  0
   50.7684  -32.5621 -102.9518 N   0  0  0  0  0  0  0  0  0  0  0  0
   50.3304  -31.7224 -101.9818 C   0  0  0  0  0  0  0  0  0  0  0  0
   49.0187  -31.4528 -101.8153 N   0  0  0  0  0  0  0  0  0  0  0  0
   48.1052  -31.9431 -102.6688 C   0  0  0  0  0  0  0  0  0  0  0  0
   48.5316  -32.8088 -103.7417 C   0  0  0  0  0  0  0  0  0  0  0  0
   49.9216  -33.1121 -103.8477 C   0  0  0  0  0  0  0  0  0  0  0  0
   50.3967  -33.9409 -104.8437 N   0  0  0  0  0  0  0  0  0  0  0  0
   47.4403  -33.1479 -104.4380 N   0  0  0  0  0  0  0  0  0  0  0  0
   46.4039  -32.5724 -103.9050 C   0  0  0  0  0  0  0  0  0  0  0  0
   46.7499  -31.8218 -102.8056 N   0  0  0  0  0  0  0  0  0  0  0  0
  2  1  1  1  0  0  0
  2  3  1  0  0  0  0
  2  5  1  0  0  0  0
  3  4  1  0  0  0  0
  3 17  1  0  0  0  0
  5  6  1  0  0  0  0
  7  6  1  6  0  0  0
  7  8  1  0  0  0  0
  7  9  1  0  0  0  0
 10  9  1  6  0  0  0
 10 11  1  0  0  0  0
 10 12  1  0  0  0  0
 11 16  1  0  0  0  0
 12 13  1  1  0  0  0
 12 14  1  0  0  0  0
 14 15  1  1  0  0  0
 14 16  1  0  0  0  0
 16 27  1  6  0  0  0
 18 19  2  0  0  0  0
 18 23  1  0  0  0  0
 19 20  1  0  0  0  0
 20 21  2  0  0  0  0
 21 22  1  0  0  0  0
 21 27  1  0  0  0  0
 22 23  2  0  0  0  0
 22 25  1  0  0  0  0
 23 24  1  0  0  0  0
 25 26  2  0  0  0  0
 26 27  1  0  0  0  0
M  END
>  <CHROM.1>
147.72548551,51.21323331,170.91619821,-73.64980013,169.10094589,44.88359642
106.08067707,47.02410051,-28.90960471,-103.59115513,-1.90673996,-0.81769853
2.51777456

>  <Name>
ligand

>  <RI>
0

>  <Rbt.Current_Directory>
/home/itssahil/PROJECTS/Mol_Feturizer/Test_systems_manuscript/rnas/4l81

>  <Rbt.Executable>
rbdock ($Id: //depot/dev/client3/rdock/2013.1/src/exe/rbdock.cxx#4 $)

>  <Rbt.Library>
libRbt.so (2013.1, Build901 2013/11/27)

>  <Rbt.Parameter_File>
/export/apps/rDock/src/rDock_2013.1_src/data/scripts/dock_solv.prm

>  <Rbt.Receptor>
prm/pocket_docking_6.prm

>  <SCORE>
-15.1083

>  <SCORE.INTER>
-12.6418

>  <SCORE.INTER.CONST>
1

>  <SCORE.INTER.POLAR>
0

>  <SCORE.INTER.ROT>
7

>  <SCORE.INTER.SOLV>
9.87521

>  <SCORE.INTER.VDW>
-19.9862

>  <SCORE.INTER.norm>
-0.468214

>  <SCORE.INTRA>
-2.46651

>  <SCORE.INTRA.DIHEDRAL>
-3.74396

>  <SCORE.INTRA.DIHEDRAL.0>
8.34559

>  <SCORE.INTRA.POLAR>
0

>  <SCORE.INTRA.POLAR.0>
0

>  <SCORE.INTRA.REPUL>
0

>  <SCORE.INTRA.REPUL.0>
0

>  <SCORE.INTRA.SOLV>
-0.503571

>  <SCORE.INTRA.SOLV.lig_0>
-48.829

>  <SCORE.INTRA.VDW>
-0.342748

>  <SCORE.INTRA.VDW.0>
-1.77092

>  <SCORE.INTRA.norm>
-0.0913523

>  <SCORE.RESTR>
0

>  <SCORE.RESTR.CAVITY>
0

>  <SCORE.RESTR.norm>
0

>  <SCORE.SYSTEM>
0

>  <SCORE.SYSTEM.CONST>
0

>  <SCORE.SYSTEM.DIHEDRAL>
0

>  <SCORE.SYSTEM.SOLV>
0

>  <SCORE.SYSTEM.norm>
0

>  <SCORE.heavy>
27

>  <SCORE.norm>
-0.559566

>  <RMSD>
4.834

$$$$
ligand
 OpenBabel02271912153D
libRbt.so/2013.1/901 2013/11/27
 27 29  0  0  0  0  0  0  0  0999 V2000
   48.0933  -25.0571 -107.3107 N   0  0  0  0  0  0  0  0  0  0  0  0
   48.4181  -25.9001 -106.1547 C   0  0  2  0  0  0  0  0  0  0  0  0
   49.6209  -26.7608 -106.4790 C   0  0  0  0  0  0  0  0  0  0  0  0
   50.5926  -26.7631 -105.7383 O   0  0  0  0  0  0  0  0  0  0  0  0
   47.2421  -26.8123 -105.7801 C   0  0  0  0  0  0  0  0  0  0  0  0
   47.5090  -27.5261 -104.4624 C   0  0  0  0  0  0  0  0  0  0  0  0
   47.4337  -26.4136 -103.0064 S   0  0  2  0  0  0  0  0  0  0  0  0
   49.0667  -25.6059 -102.9859 C   0  0  0  0  0  0  0  0  0  0  0  0
   47.7366  -27.6931 -101.7898 C   0  0  0  0  0  0  0  0  0  0  0  0
   46.5148  -28.5023 -101.4445 C   0  0  1  0  0  0  0  0  0  0  0  0
   46.3281  -29.4829 -102.4791 O   0  0  0  0  0  0  0  0  0  0  0  0
   46.9435  -29.2396 -100.2402 C   0  0  1  0  0  0  0  0  0  0  0  0
   46.4789  -28.5628  -99.0733 O   0  0  0  0  0  0  0  0  0  0  0  0
   46.2296  -30.5472 -100.3910 C   0  0  1  0  0  0  0  0  0  0  0  0
   44.9081  -30.4666  -99.8179 O   0  0  0  0  0  0  0  0  0  0  0  0
   46.1261  -30.8069 -101.9239 C   0  0  2  0  0  0  0  0  0  0  0  0
   49.6165  -27.4818 -107.4614 O   0  0  0  0  0  0  0  0  0  0  0  0
   51.2036  -32.3173 -102.2933 N   0  0  0  0  0  0  0  0  0  0  0  0
   50.6847  -31.3451 -101.5037 C   0  0  0  0  0  0  0  0  0  0  0  0
   49.3606  -31.0867 -101.4731 N   0  0  0  0  0  0  0  0  0  0  0  0
   48.5180  -31.7310 -102.2969 C   0  0  0  0  0  0  0  0  0  0  0  0
   49.0332  -32.7457 -103.1843 C   0  0  0  0  0  0  0  0  0  0  0  0
   50.4316  -33.0255 -103.1445 C   0  0  0  0  0  0  0  0  0  0  0  0
   50.9893  -33.9901 -103.9589 N   0  0  0  0  0  0  0  0  0  0  0  0
   47.9999  -33.2202 -103.8898 N   0  0  0  0  0  0  0  0  0  0  0  0
   46.9194  -32.5943 -103.5289 C   0  0  0  0  0  0  0  0  0  0  0  0
   47.1745  -31.6688 -102.5439 N   0  0  0  0  0  0  0  0  0  0  0  0
  2  1  1  6  0  0  0
  2  3  1  0  0  0  0
  2  5  1  0  0  0  0
  3  4  1  0  0  0  0
  3 17  1  0  0  0  0
  5  6  1  0  0  0  0
  7  6  1  6  0  0  0
  7  8  1  0  0  0  0
  7  9  1  0  0  0  0
 10  9  1  6  0  0  0
 10 11  1  0  0  0  0
 10 12  1  0  0  0  0
 11 16  1  0  0  0  0
 12 13  1  1  0  0  0
 12 14  1  0  0  0  0
 14 15  1  6  0  0  0
 14 16  1  0  0  0  0
 16 27  1  6  0  0  0
 18 19  2  0  0  0  0
 18 23  1  0  0  0  0
 19 20  1  0  0  0  0
 20 21  2  0  0  0  0
 21 22  1  0  0  0  0
 21 27  1  0  0  0  0
 22 23  2  0  0  0  0
 22 25  1  0  0  0  0
 23 24  1  0  0  0  0
 25 26  2  0  0  0  0
 26 27  1  0  0  0  0
M  END
>  <CHROM.1>
126.70440854,-171.47253604,71.24611304,-81.20174823,-80.49604600,80.28367381
74.31179928,48.12931429,-29.30191395,-103.11996189,-1.46642070,-0.87059546
2.62738493

>  <Name>
ligand

>  <RI>
0

>  <Rbt.Current_Directory>
/home/itssahil/PROJECTS/Mol_Feturizer/Test_systems_manuscript/rnas/4l81

>  <Rbt.Executable>
rbdock ($Id: //depot/dev/client3/rdock/2013.1/src/exe/rbdock.cxx#4 $)

>  <Rbt.Library>
libRbt.so (2013.1, Build901 2013/11/27)

>  <Rbt.Parameter_File>
/export/apps/rDock/src/rDock_2013.1_src/data/scripts/dock_solv.prm

>  <Rbt.Receptor>
prm/pocket_docking_6.prm

>  <SCORE>
-16.0711

>  <SCORE.INTER>
-12.8529

>  <SCORE.INTER.CONST>
1

>  <SCORE.INTER.POLAR>
0

>  <SCORE.INTER.ROT>
7

>  <SCORE.INTER.SOLV>
11.3259

>  <SCORE.INTER.VDW>
-20.6105

>  <SCORE.INTER.norm>
-0.476032

>  <SCORE.INTRA>
-3.21819

>  <SCORE.INTRA.DIHEDRAL>
-2.15582

>  <SCORE.INTRA.DIHEDRAL.0>
8.34559

>  <SCORE.INTRA.POLAR>
0

>  <SCORE.INTRA.POLAR.0>
0

>  <SCORE.INTRA.REPUL>
0

>  <SCORE.INTRA.REPUL.0>
0

>  <SCORE.INTRA.SOLV>
-0.901537

>  <SCORE.INTRA.SOLV.lig_0>
-48.829

>  <SCORE.INTRA.VDW>
-1.68951

>  <SCORE.INTRA.VDW.0>
-1.77092

>  <SCORE.INTRA.norm>
-0.119192

>  <SCORE.RESTR>
0

>  <SCORE.RESTR.CAVITY>
0

>  <SCORE.RESTR.norm>
0

>  <SCORE.SYSTEM>
0

>  <SCORE.SYSTEM.CONST>
0

>  <SCORE.SYSTEM.DIHEDRAL>
0

>  <SCORE.SYSTEM.SOLV>
0

>  <SCORE.SYSTEM.norm>
0

>  <SCORE.heavy>
27

>  <SCORE.norm>
-0.595224

>  <RMSD>
4.837

$$$$
ligand
 OpenBabel02271912153D
libRbt.so/2013.1/901 2013/11/27
 27 29  0  0  0  0  0  0  0  0999 V2000
   49.1944  -27.1645 -106.5786 N   0  0  0  0  0  0  0  0  0  0  0  0
   47.8447  -26.8342 -107.0498 C   0  0  2  0  0  0  0  0  0  0  0  0
   47.9158  -26.3368 -108.4781 C   0  0  0  0  0  0  0  0  0  0  0  0
   47.0728  -26.6829 -109.2920 O   0  0  0  0  0  0  0  0  0  0  0  0
   47.1985  -25.7488 -106.1782 C   0  0  0  0  0  0  0  0  0  0  0  0
   47.2032  -26.1578 -104.7121 C   0  0  0  0  0  0  0  0  0  0  0  0
   46.1056  -27.5825 -104.3527 S   0  0  2  0  0  0  0  0  0  0  0  0
   44.4678  -26.8235 -104.1054 C   0  0  0  0  0  0  0  0  0  0  0  0
   46.5972  -27.7571 -102.6390 C   0  0  0  0  0  0  0  0  0  0  0  0
   45.7259  -28.6995 -101.8518 C   0  0  1  0  0  0  0  0  0  0  0  0
   45.5238  -29.8809 -102.6459 O   0  0  0  0  0  0  0  0  0  0  0  0
   46.6020  -29.0922 -100.7312 C   0  0  1  0  0  0  0  0  0  0  0  0
   46.2968  -28.3006  -99.5842 O   0  0  0  0  0  0  0  0  0  0  0  0
   46.2018  -30.5150 -100.4916 C   0  0  1  0  0  0  0  0  0  0  0  0
   45.0840  -30.5755  -99.5815 O   0  0  0  0  0  0  0  0  0  0  0  0
   45.7840  -31.0845 -101.8806 C   0  0  2  0  0  0  0  0  0  0  0  0
   48.7932  -25.5628 -108.8187 O   0  0  0  0  0  0  0  0  0  0  0  0
   50.8653  -32.4126 -102.6646 N   0  0  0  0  0  0  0  0  0  0  0  0
   50.3667  -31.5592 -101.7368 C   0  0  0  0  0  0  0  0  0  0  0  0
   49.0409  -31.3391 -101.6145 N   0  0  0  0  0  0  0  0  0  0  0  0
   48.1722  -31.8963 -102.4738 C   0  0  0  0  0  0  0  0  0  0  0  0
   48.6633  -32.7797 -103.5037 C   0  0  0  0  0  0  0  0  0  0  0  0
   50.0669  -33.0281 -103.5623 C   0  0  0  0  0  0  0  0  0  0  0  0
   50.6030  -33.8699 -104.5156 N   0  0  0  0  0  0  0  0  0  0  0  0
   47.6065  -33.1879 -104.2160 N   0  0  0  0  0  0  0  0  0  0  0  0
   46.5330  -32.6383 -103.7311 C   0  0  0  0  0  0  0  0  0  0  0  0
   46.8175  -31.8367 -102.6504 N   0  0  0  0  0  0  0  0  0  0  0  0
  2  1  1  1  0  0  0
  2  3  1  0  0  0  0
  2  5  1  0  0  0  0
  3  4  1  0  0  0  0
  3 17  1  0  0  0  0
  5  6  1  0  0  0  0
  7  6  1  6  0  0  0
  7  8  1  0  0  0  0
  7  9  1  0  0  0  0
 10  9  1  6  0  0  0
 10 11  1  0  0  0  0
 10 12  1  0  0  0  0
 11 16  1  0  0  0  0
 12 13  1  1  0  0  0
 12 14  1  0  0  0  0
 14 15  1  1  0  0  0
 14 16  1  0  0  0  0
 16 27  1  6  0  0  0
 18 19  2  0  0  0  0
 18 23  1  0  0  0  0
 19 20  1  0  0  0  0
 20 21  2  0  0  0  0
 21 22  1  0  0  0  0
 21 27  1  0  0  0  0
 22 23  2  0  0  0  0
 22 25  1  0  0  0  0
 23 24  1  0  0  0  0
 25 26  2  0  0  0  0
 26 27  1  0  0  0  0
M  END
>  <CHROM.1>
139.22646937,-54.76476329,-67.62346878,-84.89052651,169.31331208,45.53508251
98.45913985,47.37698305,-29.41856309,-103.73917916,-1.63340325,-0.83450016
2.31167786

>  <Name>
ligand

>  <RI>
0

>  <Rbt.Current_Directory>
/home/itssahil/PROJECTS/Mol_Feturizer/Test_systems_manuscript/rnas/4l81

>  <Rbt.Executable>
rbdock ($Id: //depot/dev/client3/rdock/2013.1/src/exe/rbdock.cxx#4 $)

>  <Rbt.Library>
libRbt.so (2013.1, Build901 2013/11/27)

>  <Rbt.Parameter_File>
/export/apps/rDock/src/rDock_2013.1_src/data/scripts/dock_solv.prm

>  <Rbt.Receptor>
prm/pocket_docking_7.prm

>  <SCORE>
-14.4553

>  <SCORE.INTER>
-11.9697

>  <SCORE.INTER.CONST>
1

>  <SCORE.INTER.POLAR>
0

>  <SCORE.INTER.ROT>
7

>  <SCORE.INTER.SOLV>
12.5019

>  <SCORE.INTER.VDW>
-20.4138

>  <SCORE.INTER.norm>
-0.443322

>  <SCORE.INTRA>
-2.48726

>  <SCORE.INTRA.DIHEDRAL>
-3.49319

>  <SCORE.INTRA.DIHEDRAL.0>
8.34559

>  <SCORE.INTRA.POLAR>
0

>  <SCORE.INTRA.POLAR.0>
0

>  <SCORE.INTRA.REPUL>
0

>  <SCORE.INTRA.REPUL.0>
0

>  <SCORE.INTRA.SOLV>
0.100289

>  <SCORE.INTRA.SOLV.lig_0>
-48.829

>  <SCORE.INTRA.VDW>
-0.790811

>  <SCORE.INTRA.VDW.0>
-1.77092

>  <SCORE.INTRA.norm>
-0.0921207

>  <SCORE.RESTR>
0.0016265

>  <SCORE.RESTR.CAVITY>
0.0016265

>  <SCORE.RESTR.norm>
6.02409e-05

>  <SCORE.SYSTEM>
0

>  <SCORE.SYSTEM.CONST>
0

>  <SCORE.SYSTEM.DIHEDRAL>
0

>  <SCORE.SYSTEM.SOLV>
0

>  <SCORE.SYSTEM.norm>
0

>  <SCORE.heavy>
27

>  <SCORE.norm>
-0.535383

>  <RMSD>
4.869

$$$$
ligand
 OpenBabel02271912153D
libRbt.so/2013.1/901 2013/11/27
 27 29  0  0  0  0  0  0  0  0999 V2000
   47.6878  -24.8804 -104.8339 N   0  0  0  0  0  0  0  0  0  0  0  0
   46.9314  -25.7682 -105.7240 C   0  0  2  0  0  0  0  0  0  0  0  0
   45.5076  -25.2675 -105.8464 C   0  0  0  0  0  0  0  0  0  0  0  0
   45.1954  -24.5208 -106.7616 O   0  0  0  0  0  0  0  0  0  0  0  0
   46.9070  -27.2067 -105.1899 C   0  0  0  0  0  0  0  0  0  0  0  0
   46.2785  -28.1506 -106.2053 C   0  0  0  0  0  0  0  0  0  0  0  0
   45.7867  -29.7651 -105.4878 S   0  0  2  0  0  0  0  0  0  0  0  0
   45.1336  -30.6973 -106.9106 C   0  0  0  0  0  0  0  0  0  0  0  0
   44.2392  -29.1873 -104.7949 C   0  0  0  0  0  0  0  0  0  0  0  0
   44.1037  -29.4437 -103.3175 C   0  0  1  0  0  0  0  0  0  0  0  0
   44.4338  -30.8221 -103.0767 O   0  0  0  0  0  0  0  0  0  0  0  0
   45.2042  -28.6430 -102.7469 C   0  0  1  0  0  0  0  0  0  0  0  0
   44.6980  -27.3900 -102.2897 O   0  0  0  0  0  0  0  0  0  0  0  0
   45.6380  -29.4755 -101.5803 C   0  0  1  0  0  0  0  0  0  0  0  0
   44.8548  -29.1506 -100.4130 O   0  0  0  0  0  0  0  0  0  0  0  0
   45.3851  -30.9572 -101.9910 C   0  0  2  0  0  0  0  0  0  0  0  0
   44.6559  -25.6306 -105.0541 O   0  0  0  0  0  0  0  0  0  0  0  0
   50.5893  -32.0086 -102.0872 N   0  0  0  0  0  0  0  0  0  0  0  0
   49.9437  -31.0944 -101.3221 C   0  0  0  0  0  0  0  0  0  0  0  0
   48.6021  -30.9545 -101.3634 N   0  0  0  0  0  0  0  0  0  0  0  0
   47.8665  -31.6622 -102.2361 C   0  0  0  0  0  0  0  0  0  0  0  0
   48.5175  -32.6180 -103.0992 C   0  0  0  0  0  0  0  0  0  0  0  0
   49.9310  -32.7734 -102.9837 C   0  0  0  0  0  0  0  0  0  0  0  0
   50.6158  -33.6764 -103.7713 N   0  0  0  0  0  0  0  0  0  0  0  0
   47.5705  -33.1747 -103.8635 N   0  0  0  0  0  0  0  0  0  0  0  0
   46.4206  -32.6506 -103.5594 C   0  0  0  0  0  0  0  0  0  0  0  0
   46.5382  -31.7165 -102.5568 N   0  0  0  0  0  0  0  0  0  0  0  0
  2  1  1  1  0  0  0
  2  3  1  0  0  0  0
  2  5  1  0  0  0  0
  3  4  1  0  0  0  0
  3 17  1  0  0  0  0
  5  6  1  0  0  0  0
  7  6  1  6  0  0  0
  7  8  1  0  0  0  0
  7  9  1  0  0  0  0
 10  9  1  6  0  0  0
 10 11  1  0  0  0  0
 10 12  1  0  0  0  0
 11 16  1  0  0  0  0
 12 13  1  1  0  0  0
 12 14  1  0  0  0  0
 14 15  1  1  0  0  0
 14 16  1  0  0  0  0
 16 27  1  6  0  0  0
 18 19  2  0  0  0  0
 18 23  1  0  0  0  0
 19 20  1  0  0  0  0
 20 21  2  0  0  0  0
 21 22  1  0  0  0  0
 21 27  1  0  0  0  0
 22 23  2  0  0  0  0
 22 25  1  0  0  0  0
 23 24  1  0  0  0  0
 25 26  2  0  0  0  0
 26 27  1  0  0  0  0
M  END
>  <CHROM.1>
93.42358187,-172.64462414,-163.95462854,-178.02651218,-124.65879672,-49.45933663
149.40085737,46.51941249,-29.52595812,-103.78092097,-2.07253169,-0.47481628
2.46936894

>  <Name>
ligand

>  <RI>
0

>  <Rbt.Current_Directory>
/home/itssahil/PROJECTS/Mol_Feturizer/Test_systems_manuscript/rnas/4l81

>  <Rbt.Executable>
rbdock ($Id: //depot/dev/client3/rdock/2013.1/src/exe/rbdock.cxx#4 $)

>  <Rbt.Library>
libRbt.so (2013.1, Build901 2013/11/27)

>  <Rbt.Parameter_File>
/export/apps/rDock/src/rDock_2013.1_src/data/scripts/dock_solv.prm

>  <Rbt.Receptor>
prm/pocket_docking_4.prm

>  <SCORE>
-12.7338

>  <SCORE.INTER>
-11.6439

>  <SCORE.INTER.CONST>
1

>  <SCORE.INTER.POLAR>
0

>  <SCORE.INTER.ROT>
7

>  <SCORE.INTER.SOLV>
12.5444

>  <SCORE.INTER.VDW>
-20.2108

>  <SCORE.INTER.norm>
-0.431257

>  <SCORE.INTRA>
-1.08983

>  <SCORE.INTRA.DIHEDRAL>
1.30463

>  <SCORE.INTRA.DIHEDRAL.0>
8.34559

>  <SCORE.INTRA.POLAR>
0

>  <SCORE.INTRA.POLAR.0>
0

>  <SCORE.INTRA.REPUL>
0

>  <SCORE.INTRA.REPUL.0>
0

>  <SCORE.INTRA.SOLV>
-0.770054

>  <SCORE.INTRA.SOLV.lig_0>
-48.829

>  <SCORE.INTRA.VDW>
-1.35711

>  <SCORE.INTRA.VDW.0>
-1.77092

>  <SCORE.INTRA.norm>
-0.040364

>  <SCORE.RESTR>
0

>  <SCORE.RESTR.CAVITY>
0

>  <SCORE.RESTR.norm>
0

>  <SCORE.SYSTEM>
0

>  <SCORE.SYSTEM.CONST>
0

>  <SCORE.SYSTEM.DIHEDRAL>
0

>  <SCORE.SYSTEM.SOLV>
0

>  <SCORE.SYSTEM.norm>
0

>  <SCORE.heavy>
27

>  <SCORE.norm>
-0.471621

>  <RMSD>
4.890

$$$$
ligand
 OpenBabel02271912153D
libRbt.so/2013.1/901 2013/11/27
 27 29  0  0  0  0  0  0  0  0999 V2000
   48.8460  -24.0594 -104.6437 N   0  0  0  0  0  0  0  0  0  0  0  0
   47.9750  -24.1100 -103.4642 C   0  0  2  0  0  0  0  0  0  0  0  0
   48.5968  -23.3056 -102.3420 C   0  0  0  0  0  0  0  0  0  0  0  0
   49.7690  -22.9671 -102.4051 O   0  0  0  0  0  0  0  0  0  0  0  0
   47.7674  -25.5529 -102.9841 C   0  0  0  0  0  0  0  0  0  0  0  0
   46.9935  -26.3607 -104.0162 C   0  0  0  0  0  0  0  0  0  0  0  0
   46.6344  -28.0757 -103.4747 S   0  0  2  0  0  0  0  0  0  0  0  0
   45.6745  -28.7798 -104.8540 C   0  0  0  0  0  0  0  0  0  0  0  0
   45.2822  -27.6380 -102.3845 C   0  0  0  0  0  0  0  0  0  0  0  0
   44.9940  -28.6740 -101.3307 C   0  0  1  0  0  0  0  0  0  0  0  0
   44.6765  -29.9067 -101.9990 O   0  0  0  0  0  0  0  0  0  0  0  0
   46.3124  -28.8680 -100.6969 C   0  0  1  0  0  0  0  0  0  0  0  0
   46.3911  -28.0865  -99.5058 O   0  0  0  0  0  0  0  0  0  0  0  0
   46.2938  -30.3250 -100.3521 C   0  0  1  0  0  0  0  0  0  0  0  0
   45.6904  -30.5266  -99.0572 O   0  0  0  0  0  0  0  0  0  0  0  0
   45.4315  -31.0163 -101.4505 C   0  0  2  0  0  0  0  0  0  0  0  0
   47.9259  -22.9617 -101.3846 O   0  0  0  0  0  0  0  0  0  0  0  0
   49.9788  -32.4912 -103.7626 N   0  0  0  0  0  0  0  0  0  0  0  0
   49.8212  -31.8694 -102.5682 C   0  0  0  0  0  0  0  0  0  0  0  0
   48.5991  -31.5852 -102.0716 N   0  0  0  0  0  0  0  0  0  0  0  0
   47.4929  -31.8322 -102.7919 C   0  0  0  0  0  0  0  0  0  0  0  0
   47.6163  -32.4559 -104.0873 C   0  0  0  0  0  0  0  0  0  0  0  0
   48.9239  -32.7899 -104.5501 C   0  0  0  0  0  0  0  0  0  0  0  0
   49.1135  -33.3968 -105.7750 N   0  0  0  0  0  0  0  0  0  0  0  0
   46.3818  -32.5826 -104.5880 N   0  0  0  0  0  0  0  0  0  0  0  0
   45.5291  -32.0943 -103.7371 C   0  0  0  0  0  0  0  0  0  0  0  0
   46.1543  -31.6232 -102.6062 N   0  0  0  0  0  0  0  0  0  0  0  0
  2  1  1  6  0  0  0
  2  3  1  0  0  0  0
  2  5  1  0  0  0  0
  3  4  1  0  0  0  0
  3 17  1  0  0  0  0
  5  6  1  0  0  0  0
  7  6  1  6  0  0  0
  7  8  1  0  0  0  0
  7  9  1  0  0  0  0
 10  9  1  6  0  0  0
 10 11  1  0  0  0  0
 10 12  1  0  0  0  0
 11 16  1  0  0  0  0
 12 13  1  1  0  0  0
 12 14  1  0  0  0  0
 14 15  1  1  0  0  0
 14 16  1  0  0  0  0
 16 27  1  6  0  0  0
 18 19  2  0  0  0  0
 18 23  1  0  0  0  0
 19 20  1  0  0  0  0
 20 21  2  0  0  0  0
 21 22  1  0  0  0  0
 21 27  1  0  0  0  0
 22 23  2  0  0  0  0
 22 25  1  0  0  0  0
 23 24  1  0  0  0  0
 25 26  2  0  0  0  0
 26 27  1  0  0  0  0
M  END
>  <CHROM.1>
-14.60003374,-65.96730118,-177.14251080,178.32373631,-158.53179391,-58.95951900
122.96255182,47.16674543,-28.88813576,-102.69015172,-1.44593018,-0.85537789
-2.96577941

>  <Name>
ligand

>  <RI>
0

>  <Rbt.Current_Directory>
/home/itssahil/PROJECTS/Mol_Feturizer/Test_systems_manuscript/rnas/4l81

>  <Rbt.Executable>
rbdock ($Id: //depot/dev/client3/rdock/2013.1/src/exe/rbdock.cxx#4 $)

>  <Rbt.Library>
libRbt.so (2013.1, Build901 2013/11/27)

>  <Rbt.Parameter_File>
/export/apps/rDock/src/rDock_2013.1_src/data/scripts/dock_solv.prm

>  <Rbt.Receptor>
prm/pocket_docking_5.prm

>  <SCORE>
-16.4604

>  <SCORE.INTER>
-13.9321

>  <SCORE.INTER.CONST>
1

>  <SCORE.INTER.POLAR>
0

>  <SCORE.INTER.ROT>
7

>  <SCORE.INTER.SOLV>
9.25878

>  <SCORE.INTER.VDW>
-20.641

>  <SCORE.INTER.norm>
-0.516002

>  <SCORE.INTRA>
-2.52836

>  <SCORE.INTRA.DIHEDRAL>
-2.57908

>  <SCORE.INTRA.DIHEDRAL.0>
8.34559

>  <SCORE.INTRA.POLAR>
0

>  <SCORE.INTRA.POLAR.0>
0

>  <SCORE.INTRA.REPUL>
0

>  <SCORE.INTRA.REPUL.0>
0

>  <SCORE.INTRA.SOLV>
-0.314397

>  <SCORE.INTRA.SOLV.lig_0>
-48.829

>  <SCORE.INTRA.VDW>
-1.08162

>  <SCORE.INTRA.VDW.0>
-1.77092

>  <SCORE.INTRA.norm>
-0.093643

>  <SCORE.RESTR>
0

>  <SCORE.RESTR.CAVITY>
0

>  <SCORE.RESTR.norm>
0

>  <SCORE.SYSTEM>
0

>  <SCORE.SYSTEM.CONST>
0

>  <SCORE.SYSTEM.DIHEDRAL>
0

>  <SCORE.SYSTEM.SOLV>
0

>  <SCORE.SYSTEM.norm>
0

>  <SCORE.heavy>
27

>  <SCORE.norm>
-0.609645

>  <RMSD>
4.896

$$$$
ligand
 OpenBabel02271912153D
libRbt.so/2013.1/901 2013/11/27
 27 29  0  0  0  0  0  0  0  0999 V2000
   50.8041  -24.9181 -104.2609 N   0  0  0  0  0  0  0  0  0  0  0  0
   50.5286  -25.8581 -105.3532 C   0  0  2  0  0  0  0  0  0  0  0  0
   49.5042  -25.2560 -106.2917 C   0  0  0  0  0  0  0  0  0  0  0  0
   49.4109  -25.6606 -107.4408 O   0  0  0  0  0  0  0  0  0  0  0  0
   49.9889  -27.1922 -104.8199 C   0  0  0  0  0  0  0  0  0  0  0  0
   48.7794  -26.9672 -103.9235 C   0  0  0  0  0  0  0  0  0  0  0  0
   48.0580  -28.5233 -103.2742 S   0  0  2  0  0  0  0  0  0  0  0  0
   47.3649  -29.3354 -104.7506 C   0  0  0  0  0  0  0  0  0  0  0  0
   46.5618  -27.7726 -102.6367 C   0  0  0  0  0  0  0  0  0  0  0  0
   45.7137  -28.7110 -101.8199 C   0  0  1  0  0  0  0  0  0  0  0  0
   45.4988  -29.9012 -102.5971 O   0  0  0  0  0  0  0  0  0  0  0  0
   46.6178  -29.0883 -100.7163 C   0  0  1  0  0  0  0  0  0  0  0  0
   46.3358  -28.2866  -99.5704 O   0  0  0  0  0  0  0  0  0  0  0  0
   46.2302  -30.5105 -100.4531 C   0  0  1  0  0  0  0  0  0  0  0  0
   45.1344  -30.5669  -99.5165 O   0  0  0  0  0  0  0  0  0  0  0  0
   45.7827  -31.0958 -101.8262 C   0  0  2  0  0  0  0  0  0  0  0  0
   48.7438  -24.3882 -105.9000 O   0  0  0  0  0  0  0  0  0  0  0  0
   50.8539  -32.3783 -102.7408 N   0  0  0  0  0  0  0  0  0  0  0  0
   50.3733  -31.5122 -101.8152 C   0  0  0  0  0  0  0  0  0  0  0  0
   49.0492  -31.3057 -101.6562 N   0  0  0  0  0  0  0  0  0  0  0  0
   48.1616  -31.8907 -102.4768 C   0  0  0  0  0  0  0  0  0  0  0  0
   48.6319  -32.7889 -103.5037 C   0  0  0  0  0  0  0  0  0  0  0  0
   50.0361  -33.0215 -103.6009 C   0  0  0  0  0  0  0  0  0  0  0  0
   50.5532  -33.8760 -104.5533 N   0  0  0  0  0  0  0  0  0  0  0  0
   47.5589  -33.2242 -104.1745 N   0  0  0  0  0  0  0  0  0  0  0  0
   46.4940  -32.6779 -103.6677 C   0  0  0  0  0  0  0  0  0  0  0  0
   46.8014  -31.8510 -102.6125 N   0  0  0  0  0  0  0  0  0  0  0  0
  2  1  1  1  0  0  0
  2  3  1  0  0  0  0
  2  5  1  0  0  0  0
  3  4  1  0  0  0  0
  3 17  1  0  0  0  0
  5  6  1  0  0  0  0
  7  6  1  6  0  0  0
  7  8  1  0  0  0  0
  7  9  1  0  0  0  0
 10  9  1  6  0  0  0
 10 11  1  0  0  0  0
 10 12  1  0  0  0  0
 11 16  1  0  0  0  0
 12 13  1  1  0  0  0
 12 14  1  0  0  0  0
 14 15  1  1  0  0  0
 14 16  1  0  0  0  0
 16 27  1  6  0  0  0
 18 19  2  0  0  0  0
 18 23  1  0  0  0  0
 19 20  1  0  0  0  0
 20 21  2  0  0  0  0
 21 22  1  0  0  0  0
 21 27  1  0  0  0  0
 22 23  2  0  0  0  0
 22 25  1  0  0  0  0
 23 24  1  0  0  0  0
 25 26  2  0  0  0  0
 26 27  1  0  0  0  0
M  END
>  <CHROM.1>
158.64363239,53.85345529,178.84790678,-67.84675347,-172.22685908,-51.87071241
97.61675522,48.09071266,-29.43729316,-103.19030283,-1.17843089,-0.75763487
2.90881419

>  <Name>
ligand

>  <RI>
0

>  <Rbt.Current_Directory>
/home/itssahil/PROJECTS/Mol_Feturizer/Test_systems_manuscript/rnas/4l81

>  <Rbt.Executable>
rbdock ($Id: //depot/dev/client3/rdock/2013.1/src/exe/rbdock.cxx#4 $)

>  <Rbt.Library>
libRbt.so (2013.1, Build901 2013/11/27)

>  <Rbt.Parameter_File>
/export/apps/rDock/src/rDock_2013.1_src/data/scripts/dock_solv.prm

>  <Rbt.Receptor>
prm/pocket_docking_8.prm

>  <SCORE>
-13.9276

>  <SCORE.INTER>
-10.4619

>  <SCORE.INTER.CONST>
1

>  <SCORE.INTER.POLAR>
0

>  <SCORE.INTER.ROT>
7

>  <SCORE.INTER.SOLV>
12.8666

>  <SCORE.INTER.VDW>
-19.5302

>  <SCORE.INTER.norm>
-0.387479

>  <SCORE.INTRA>
-3.46571

>  <SCORE.INTRA.DIHEDRAL>
-4.07073

>  <SCORE.INTRA.DIHEDRAL.0>
8.34559

>  <SCORE.INTRA.POLAR>
0

>  <SCORE.INTRA.POLAR.0>
0

>  <SCORE.INTRA.REPUL>
0

>  <SCORE.INTRA.REPUL.0>
0

>  <SCORE.INTRA.SOLV>
-0.21287

>  <SCORE.INTRA.SOLV.lig_0>
-48.829

>  <SCORE.INTRA.VDW>
-1.32391

>  <SCORE.INTRA.VDW.0>
-1.77092

>  <SCORE.INTRA.norm>
-0.12836

>  <SCORE.RESTR>
0

>  <SCORE.RESTR.CAVITY>
0

>  <SCORE.RESTR.norm>
0

>  <SCORE.SYSTEM>
0

>  <SCORE.SYSTEM.CONST>
0

>  <SCORE.SYSTEM.DIHEDRAL>
0

>  <SCORE.SYSTEM.SOLV>
0

>  <SCORE.SYSTEM.norm>
0

>  <SCORE.heavy>
27

>  <SCORE.norm>
-0.515839

>  <RMSD>
4.900

$$$$
ligand
 OpenBabel02271912153D
libRbt.so/2013.1/901 2013/11/27
 27 29  0  0  0  0  0  0  0  0999 V2000
   47.8289  -22.6467 -108.1604 N   0  0  0  0  0  0  0  0  0  0  0  0
   46.7018  -23.3880 -107.5837 C   0  0  2  0  0  0  0  0  0  0  0  0
   45.7694  -22.4237 -106.8811 C   0  0  0  0  0  0  0  0  0  0  0  0
   46.1025  -21.9057 -105.8258 O   0  0  0  0  0  0  0  0  0  0  0  0
   47.1821  -24.4385 -106.5732 C   0  0  0  0  0  0  0  0  0  0  0  0
   46.0185  -25.2867 -106.0798 C   0  0  0  0  0  0  0  0  0  0  0  0
   46.4755  -26.4204 -104.7125 S   0  0  2  0  0  0  0  0  0  0  0  0
   44.8943  -27.1862 -104.2300 C   0  0  0  0  0  0  0  0  0  0  0  0
   46.5697  -25.1502 -103.4529 C   0  0  0  0  0  0  0  0  0  0  0  0
   47.8864  -25.1168 -102.7235 C   0  0  1  0  0  0  0  0  0  0  0  0
   48.1151  -26.4220 -102.1658 O   0  0  0  0  0  0  0  0  0  0  0  0
   48.8607  -24.9524 -103.8196 C   0  0  1  0  0  0  0  0  0  0  0  0
   49.2153  -23.5760 -103.9430 O   0  0  0  0  0  0  0  0  0  0  0  0
   50.0351  -25.7409 -103.3286 C   0  0  1  0  0  0  0  0  0  0  0  0
   50.8861  -24.9149 -102.5070 O   0  0  0  0  0  0  0  0  0  0  0  0
   49.4463  -26.9051 -102.4766 C   0  0  2  0  0  0  0  0  0  0  0  0
   44.6958  -22.1314 -107.3778 O   0  0  0  0  0  0  0  0  0  0  0  0
   47.6136  -31.8884 -102.3998 N   0  0  0  0  0  0  0  0  0  0  0  0
   47.5764  -30.9774 -101.3965 C   0  0  0  0  0  0  0  0  0  0  0  0
   48.0427  -29.7217 -101.5602 N   0  0  0  0  0  0  0  0  0  0  0  0
   48.6442  -29.3584 -102.7047 C   0  0  0  0  0  0  0  0  0  0  0  0
   48.7428  -30.3096 -103.7854 C   0  0  0  0  0  0  0  0  0  0  0  0
   48.1871  -31.6089 -103.5893 C   0  0  0  0  0  0  0  0  0  0  0  0
   48.2379  -32.5638 -104.5844 N   0  0  0  0  0  0  0  0  0  0  0  0
   49.3817  -29.7033 -104.7929 N   0  0  0  0  0  0  0  0  0  0  0  0
   49.6861  -28.4924 -104.4318 C   0  0  0  0  0  0  0  0  0  0  0  0
   49.2504  -28.2189 -103.1563 N   0  0  0  0  0  0  0  0  0  0  0  0
  2  1  1  1  0  0  0
  2  3  1  0  0  0  0
  2  5  1  0  0  0  0
  3  4  1  0  0  0  0
  3 17  1  0  0  0  0
  5  6  1  0  0  0  0
  7  6  1  6  0  0  0
  7  8  1  0  0  0  0
  7  9  1  0  0  0  0
 10  9  1  6  0  0  0
 10 11  1  0  0  0  0
 10 12  1  0  0  0  0
 11 16  1  0  0  0  0
 12 13  1  1  0  0  0
 12 14  1  0  0  0  0
 14 15  1  1  0  0  0
 14 16  1  0  0  0  0
 16 27  1  6  0  0  0
 18 19  2  0  0  0  0
 18 23  1  0  0  0  0
 19 20  1  0  0  0  0
 20 21  2  0  0  0  0
 21 22  1  0  0  0  0
 21 27  1  0  0  0  0
 22 23  2  0  0  0  0
 22 25  1  0  0  0  0
 23 24  1  0  0  0  0
 25 26  2  0  0  0  0
 26 27  1  0  0  0  0
M  END
>  <CHROM.1>
-71.99303794,-174.72115932,-172.62526024,175.17018208,-125.23483310,-56.08615725
-59.60015749,47.76370278,-26.58588850,-104.27341693,1.87577746,-0.71697443
-0.22888852

>  <Name>
ligand

>  <RI>
0

>  <Rbt.Current_Directory>
/home/itssahil/PROJECTS/Mol_Feturizer/Test_systems_manuscript/rnas/4l81

>  <Rbt.Executable>
rbdock ($Id: //depot/dev/client3/rdock/2013.1/src/exe/rbdock.cxx#4 $)

>  <Rbt.Library>
libRbt.so (2013.1, Build901 2013/11/27)

>  <Rbt.Parameter_File>
/export/apps/rDock/src/rDock_2013.1_src/data/scripts/dock_solv.prm

>  <Rbt.Receptor>
prm/pocket_docking_7.prm

>  <SCORE>
-8.97701

>  <SCORE.INTER>
-7.37983

>  <SCORE.INTER.CONST>
1

>  <SCORE.INTER.POLAR>
0

>  <SCORE.INTER.ROT>
7

>  <SCORE.INTER.SOLV>
8.31514

>  <SCORE.INTER.VDW>
-15.9583

>  <SCORE.INTER.norm>
-0.273327

>  <SCORE.INTRA>
-1.59718

>  <SCORE.INTRA.DIHEDRAL>
-0.260147

>  <SCORE.INTRA.DIHEDRAL.0>
8.34559

>  <SCORE.INTRA.POLAR>
0

>  <SCORE.INTRA.POLAR.0>
0

>  <SCORE.INTRA.REPUL>
0

>  <SCORE.INTRA.REPUL.0>
0

>  <SCORE.INTRA.SOLV>
-0.775885

>  <SCORE.INTRA.SOLV.lig_0>
-48.829

>  <SCORE.INTRA.VDW>
-1.07916

>  <SCORE.INTRA.VDW.0>
-1.77092

>  <SCORE.INTRA.norm>
-0.0591547

>  <SCORE.RESTR>
0

>  <SCORE.RESTR.CAVITY>
0

>  <SCORE.RESTR.norm>
0

>  <SCORE.SYSTEM>
0

>  <SCORE.SYSTEM.CONST>
0

>  <SCORE.SYSTEM.DIHEDRAL>
0

>  <SCORE.SYSTEM.SOLV>
0

>  <SCORE.SYSTEM.norm>
0

>  <SCORE.heavy>
27

>  <SCORE.norm>
-0.332482

>  <RMSD>
4.906

$$$$
ligand
 OpenBabel02271912153D
libRbt.so/2013.1/901 2013/11/27
 27 29  0  0  0  0  0  0  0  0999 V2000
   49.2079  -24.2458 -104.7234 N   0  0  0  0  0  0  0  0  0  0  0  0
   48.2718  -24.2274 -103.5938 C   0  0  2  0  0  0  0  0  0  0  0  0
   48.8464  -23.3839 -102.4752 C   0  0  0  0  0  0  0  0  0  0  0  0
   50.0466  -23.1603 -102.4286 O   0  0  0  0  0  0  0  0  0  0  0  0
   48.0089  -25.6430 -103.0626 C   0  0  0  0  0  0  0  0  0  0  0  0
   47.3525  -26.5081 -104.1292 C   0  0  0  0  0  0  0  0  0  0  0  0
   46.8758  -28.1717 -103.5220 S   0  0  2  0  0  0  0  0  0  0  0  0
   45.8916  -28.8717 -104.8862 C   0  0  0  0  0  0  0  0  0  0  0  0
   45.5398  -27.6019 -102.4737 C   0  0  0  0  0  0  0  0  0  0  0  0
   45.0948  -28.6164 -101.4541 C   0  0  1  0  0  0  0  0  0  0  0  0
   44.7613  -29.8276 -102.1532 O   0  0  0  0  0  0  0  0  0  0  0  0
   46.3371  -28.8920 -100.7068 C   0  0  1  0  0  0  0  0  0  0  0  0
   46.3587  -28.1156  -99.5101 O   0  0  0  0  0  0  0  0  0  0  0  0
   46.1966  -30.3445 -100.3714 C   0  0  1  0  0  0  0  0  0  0  0  0
   45.4693  -30.5062  -99.1359 O   0  0  0  0  0  0  0  0  0  0  0  0
   45.3936  -30.9817 -101.5449 C   0  0  2  0  0  0  0  0  0  0  0  0
   48.1141  -22.8949 -101.6329 O   0  0  0  0  0  0  0  0  0  0  0  0
   50.0587  -32.5241 -103.5588 N   0  0  0  0  0  0  0  0  0  0  0  0
   49.8383  -31.8507 -102.4030 C   0  0  0  0  0  0  0  0  0  0  0  0
   48.5913  -31.5538 -101.9811 N   0  0  0  0  0  0  0  0  0  0  0  0
   47.5239  -31.8412 -102.7437 C   0  0  0  0  0  0  0  0  0  0  0  0
   47.7153  -32.5214 -104.0020 C   0  0  0  0  0  0  0  0  0  0  0  0
   49.0462  -32.8658 -104.3835 C   0  0  0  0  0  0  0  0  0  0  0  0
   49.3001  -33.5255 -105.5688 N   0  0  0  0  0  0  0  0  0  0  0  0
   46.5081  -32.6797 -104.5572 N   0  0  0  0  0  0  0  0  0  0  0  0
   45.6113  -32.1603 -103.7728 C   0  0  0  0  0  0  0  0  0  0  0  0
   46.1765  -31.6342 -102.6346 N   0  0  0  0  0  0  0  0  0  0  0  0
  2  1  1  6  0  0  0
  2  3  1  0  0  0  0
  2  5  1  0  0  0  0
  3  4  1  0  0  0  0
  3 17  1  0  0  0  0
  5  6  1  0  0  0  0
  7  6  1  6  0  0  0
  7  8  1  0  0  0  0
  7  9  1  0  0  0  0
 10  9  1  6  0  0  0
 10 11  1  0  0  0  0
 10 12  1  0  0  0  0
 11 16  1  0  0  0  0
 12 13  1  1  0  0  0
 12 14  1  0  0  0  0
 14 15  1  1  0  0  0
 14 16  1  0  0  0  0
 16 27  1  6  0  0  0
 18 19  2  0  0  0  0
 18 23  1  0  0  0  0
 19 20  1  0  0  0  0
 20 21  2  0  0  0  0
 21 22  1  0  0  0  0
 21 27  1  0  0  0  0
 22 23  2  0  0  0  0
 22 25  1  0  0  0  0
 23 24  1  0  0  0  0
 25 26  2  0  0  0  0
 26 27  1  0  0  0  0
M  END
>  <CHROM.1>
-20.56070777,-62.56685416,-175.03587096,171.09835360,-163.26911521,-54.73477186
117.68590354,47.29360650,-28.93511881,-102.71447474,-1.40590952,-0.80243437
-2.96774153

>  <Name>
ligand

>  <RI>
0

>  <Rbt.Current_Directory>
/home/itssahil/PROJECTS/Mol_Feturizer/Test_systems_manuscript/rnas/4l81

>  <Rbt.Executable>
rbdock ($Id: //depot/dev/client3/rdock/2013.1/src/exe/rbdock.cxx#4 $)

>  <Rbt.Library>
libRbt.so (2013.1, Build901 2013/11/27)

>  <Rbt.Parameter_File>
/export/apps/rDock/src/rDock_2013.1_src/data/scripts/dock_solv.prm

>  <Rbt.Receptor>
prm/pocket_docking_8.prm

>  <SCORE>
-16.4801

>  <SCORE.INTER>
-13.4451

>  <SCORE.INTER.CONST>
1

>  <SCORE.INTER.POLAR>
0

>  <SCORE.INTER.ROT>
7

>  <SCORE.INTER.SOLV>
9.28864

>  <SCORE.INTER.VDW>
-20.3262

>  <SCORE.INTER.norm>
-0.497965

>  <SCORE.INTRA>
-3.04436

>  <SCORE.INTRA.DIHEDRAL>
-3.23914

>  <SCORE.INTRA.DIHEDRAL.0>
8.34559

>  <SCORE.INTRA.POLAR>
0

>  <SCORE.INTRA.POLAR.0>
0

>  <SCORE.INTRA.REPUL>
0

>  <SCORE.INTRA.REPUL.0>
0

>  <SCORE.INTRA.SOLV>
-0.291548

>  <SCORE.INTRA.SOLV.lig_0>
-48.829

>  <SCORE.INTRA.VDW>
-1.27902

>  <SCORE.INTRA.VDW.0>
-1.77092

>  <SCORE.INTRA.norm>
-0.112754

>  <SCORE.RESTR>
0.00932177

>  <SCORE.RESTR.CAVITY>
0.00932177

>  <SCORE.RESTR.norm>
0.000345251

>  <SCORE.SYSTEM>
0

>  <SCORE.SYSTEM.CONST>
0

>  <SCORE.SYSTEM.DIHEDRAL>
0

>  <SCORE.SYSTEM.SOLV>
0

>  <SCORE.SYSTEM.norm>
0

>  <SCORE.heavy>
27

>  <SCORE.norm>
-0.610374

>  <RMSD>
4.921

$$$$
ligand
 OpenBabel02271912153D
libRbt.so/2013.1/901 2013/11/27
 27 29  0  0  0  0  0  0  0  0999 V2000
   47.1837  -26.2704 -106.4815 N   0  0  0  0  0  0  0  0  0  0  0  0
   48.0698  -26.7447 -105.4127 C   0  0  2  0  0  0  0  0  0  0  0  0
   49.4961  -26.3419 -105.7229 C   0  0  0  0  0  0  0  0  0  0  0  0
   50.3449  -26.3607 -104.8443 O   0  0  0  0  0  0  0  0  0  0  0  0
   48.0056  -28.2714 -105.2695 C   0  0  0  0  0  0  0  0  0  0  0  0
   46.6514  -28.7078 -104.7286 C   0  0  0  0  0  0  0  0  0  0  0  0
   46.6124  -30.4640 -104.2014 S   0  0  2  0  0  0  0  0  0  0  0  0
   46.0633  -31.3575 -105.6913 C   0  0  0  0  0  0  0  0  0  0  0  0
   45.0439  -30.3566 -103.3429 C   0  0  0  0  0  0  0  0  0  0  0  0
   45.1774  -30.0714 -101.8706 C   0  0  1  0  0  0  0  0  0  0  0  0
   46.0706  -31.0491 -101.3109 O   0  0  0  0  0  0  0  0  0  0  0  0
   45.9000  -28.7848 -101.8534 C   0  0  1  0  0  0  0  0  0  0  0  0
   44.9701  -27.7153 -101.6891 O   0  0  0  0  0  0  0  0  0  0  0  0
   46.7552  -28.9110 -100.6308 C   0  0  1  0  0  0  0  0  0  0  0  0
   46.0308  -28.4698  -99.4638 O   0  0  0  0  0  0  0  0  0  0  0  0
   47.0975  -30.4255 -100.4993 C   0  0  2  0  0  0  0  0  0  0  0  0
   49.8158  -26.0284 -106.8562 O   0  0  0  0  0  0  0  0  0  0  0  0
   49.7943  -33.4367 -103.9429 N   0  0  0  0  0  0  0  0  0  0  0  0
   48.4517  -33.3873 -103.7613 C   0  0  0  0  0  0  0  0  0  0  0  0
   47.8859  -32.5415 -102.8751 N   0  0  0  0  0  0  0  0  0  0  0  0
   48.6476  -31.7779 -102.0749 C   0  0  0  0  0  0  0  0  0  0  0  0
   50.0838  -31.8289 -102.2055 C   0  0  0  0  0  0  0  0  0  0  0  0
   50.6380  -32.6963 -103.1933 C   0  0  0  0  0  0  0  0  0  0  0  0
   52.0027  -32.7866 -103.3783 N   0  0  0  0  0  0  0  0  0  0  0  0
   50.5965  -30.9876 -101.2998 N   0  0  0  0  0  0  0  0  0  0  0  0
   49.6238  -30.4423 -100.6320 C   0  0  0  0  0  0  0  0  0  0  0  0
   48.3974  -30.8849 -101.0699 N   0  0  0  0  0  0  0  0  0  0  0  0
  2  1  1  6  0  0  0
  2  3  1  0  0  0  0
  2  5  1  0  0  0  0
  3  4  1  0  0  0  0
  3 17  1  0  0  0  0
  5  6  1  0  0  0  0
  7  6  1  6  0  0  0
  7  8  1  0  0  0  0
  7  9  1  0  0  0  0
 10  9  1  6  0  0  0
 10 11  1  0  0  0  0
 10 12  1  0  0  0  0
 11 16  1  0  0  0  0
 12 13  1  1  0  0  0
 12 14  1  0  0  0  0
 14 15  1  1  0  0  0
 14 16  1  0  0  0  0
 16 27  1  6  0  0  0
 18 19  2  0  0  0  0
 18 23  1  0  0  0  0
 19 20  1  0  0  0  0
 20 21  2  0  0  0  0
 21 22  1  0  0  0  0
 21 27  1  0  0  0  0
 22 23  2  0  0  0  0
 22 25  1  0  0  0  0
 23 24  1  0  0  0  0
 25 26  2  0  0  0  0
 26 27  1  0  0  0  0
M  END
>  <CHROM.1>
163.35070654,-68.76590384,-167.97925674,-91.46310580,-93.64610140,-53.22045406
-4.51916750,47.86722248,-29.84758308,-103.19115864,-1.64365399,-0.58462473
2.48291475

>  <Name>
ligand

>  <RI>
0

>  <Rbt.Current_Directory>
/home/itssahil/PROJECTS/Mol_Feturizer/Test_systems_manuscript/rnas/4l81

>  <Rbt.Executable>
rbdock ($Id: //depot/dev/client3/rdock/2013.1/src/exe/rbdock.cxx#4 $)

>  <Rbt.Library>
libRbt.so (2013.1, Build901 2013/11/27)

>  <Rbt.Parameter_File>
/export/apps/rDock/src/rDock_2013.1_src/data/scripts/dock_solv.prm

>  <Rbt.Receptor>
prm/pocket_docking_4.prm

>  <SCORE>
-10.039

>  <SCORE.INTER>
-8.49039

>  <SCORE.INTER.CONST>
1

>  <SCORE.INTER.POLAR>
0

>  <SCORE.INTER.ROT>
7

>  <SCORE.INTER.SOLV>
13.0357

>  <SCORE.INTER.VDW>
-18.2722

>  <SCORE.INTER.norm>
-0.314459

>  <SCORE.INTRA>
-1.54866

>  <SCORE.INTRA.DIHEDRAL>
-1.11092

>  <SCORE.INTRA.DIHEDRAL.0>
8.34559

>  <SCORE.INTRA.POLAR>
0

>  <SCORE.INTRA.POLAR.0>
0

>  <SCORE.INTRA.REPUL>
0

>  <SCORE.INTRA.REPUL.0>
0

>  <SCORE.INTRA.SOLV>
-0.15683

>  <SCORE.INTRA.SOLV.lig_0>
-48.829

>  <SCORE.INTRA.VDW>
-0.914785

>  <SCORE.INTRA.VDW.0>
-1.77092

>  <SCORE.INTRA.norm>
-0.0573577

>  <SCORE.RESTR>
0

>  <SCORE.RESTR.CAVITY>
0

>  <SCORE.RESTR.norm>
0

>  <SCORE.SYSTEM>
0

>  <SCORE.SYSTEM.CONST>
0

>  <SCORE.SYSTEM.DIHEDRAL>
0

>  <SCORE.SYSTEM.SOLV>
0

>  <SCORE.SYSTEM.norm>
0

>  <SCORE.heavy>
27

>  <SCORE.norm>
-0.371817

>  <RMSD>
4.933

$$$$
ligand
 OpenBabel02271912153D
libRbt.so/2013.1/901 2013/11/27
 27 29  0  0  0  0  0  0  0  0999 V2000
   47.4902  -23.8115 -106.3671 N   0  0  0  0  0  0  0  0  0  0  0  0
   46.7760  -25.0892 -106.2664 C   0  0  2  0  0  0  0  0  0  0  0  0
   46.8583  -25.8198 -107.5901 C   0  0  0  0  0  0  0  0  0  0  0  0
   47.0017  -25.1939 -108.6295 O   0  0  0  0  0  0  0  0  0  0  0  0
   45.2988  -24.8772 -105.9080 C   0  0  0  0  0  0  0  0  0  0  0  0
   44.6045  -26.2094 -105.6634 C   0  0  0  0  0  0  0  0  0  0  0  0
   44.6596  -26.7454 -103.9104 S   0  0  2  0  0  0  0  0  0  0  0  0
   46.3959  -26.4819 -103.4251 C   0  0  0  0  0  0  0  0  0  0  0  0
   44.7287  -28.5002 -104.2635 C   0  0  0  0  0  0  0  0  0  0  0  0
   44.3521  -29.3690 -103.0929 C   0  0  1  0  0  0  0  0  0  0  0  0
   44.3679  -30.7368 -103.5355 O   0  0  0  0  0  0  0  0  0  0  0  0
   45.5047  -29.2085 -102.1855 C   0  0  1  0  0  0  0  0  0  0  0  0
   45.2013  -28.2283 -101.1943 O   0  0  0  0  0  0  0  0  0  0  0  0
   45.6077  -30.5613 -101.5519 C   0  0  1  0  0  0  0  0  0  0  0  0
   44.7580  -30.6367 -100.3885 O   0  0  0  0  0  0  0  0  0  0  0  0
   45.1224  -31.5787 -102.6278 C   0  0  2  0  0  0  0  0  0  0  0  0
   46.8156  -27.0371 -107.6264 O   0  0  0  0  0  0  0  0  0  0  0  0
   46.9905  -32.9529 -107.4048 N   0  0  0  0  0  0  0  0  0  0  0  0
   45.8338  -32.3040 -107.1239 C   0  0  0  0  0  0  0  0  0  0  0  0
   45.4933  -31.9749 -105.8602 N   0  0  0  0  0  0  0  0  0  0  0  0
   46.2542  -32.3615 -104.8233 C   0  0  0  0  0  0  0  0  0  0  0  0
   47.4742  -33.0906 -105.0736 C   0  0  0  0  0  0  0  0  0  0  0  0
   47.8242  -33.3691 -106.4283 C   0  0  0  0  0  0  0  0  0  0  0  0
   48.9815  -34.0536 -106.7395 N   0  0  0  0  0  0  0  0  0  0  0  0
   48.0314  -33.3547 -103.8859 N   0  0  0  0  0  0  0  0  0  0  0  0
   47.2738  -32.8708 -102.9472 C   0  0  0  0  0  0  0  0  0  0  0  0
   46.1663  -32.2399 -103.4641 N   0  0  0  0  0  0  0  0  0  0  0  0
  2  1  1  6  0  0  0
  2  3  1  0  0  0  0
  2  5  1  0  0  0  0
  3  4  1  0  0  0  0
  3 17  1  0  0  0  0
  5  6  1  0  0  0  0
  7  6  1  6  0  0  0
  7  8  1  0  0  0  0
  7  9  1  0  0  0  0
 10  9  1  6  0  0  0
 10 11  1  0  0  0  0
 10 12  1  0  0  0  0
 11 16  1  0  0  0  0
 12 13  1  1  0  0  0
 12 14  1  0  0  0  0
 14 15  1  1  0  0  0
 14 16  1  0  0  0  0
 16 27  1  6  0  0  0
 18 19  2  0  0  0  0
 18 23  1  0  0  0  0
 19 20  1  0  0  0  0
 20 21  2  0  0  0  0
 21 22  1  0  0  0  0
 21 27  1  0  0  0  0
 22 23  2  0  0  0  0
 22 25  1  0  0  0  0
 23 24  1  0  0  0  0
 25 26  2  0  0  0  0
 26 27  1  0  0  0  0
M  END
>  <CHROM.1>
-26.44909565,-174.06413695,90.88107716,-46.47341970,-161.60737891,176.42588222
-15.76653159,46.04661324,-29.35142702,-104.67811028,-1.77155645,-1.14094875
2.73613954

>  <Name>
ligand

>  <RI>
0

>  <Rbt.Current_Directory>
/home/itssahil/PROJECTS/Mol_Feturizer/Test_systems_manuscript/rnas/4l81

>  <Rbt.Executable>
rbdock ($Id: //depot/dev/client3/rdock/2013.1/src/exe/rbdock.cxx#4 $)

>  <Rbt.Library>
libRbt.so (2013.1, Build901 2013/11/27)

>  <Rbt.Parameter_File>
/export/apps/rDock/src/rDock_2013.1_src/data/scripts/dock_solv.prm

>  <Rbt.Receptor>
prm/pocket_docking_6.prm

>  <SCORE>
-14.5509

>  <SCORE.INTER>
-15.5696

>  <SCORE.INTER.CONST>
1

>  <SCORE.INTER.POLAR>
0

>  <SCORE.INTER.ROT>
7

>  <SCORE.INTER.SOLV>
10.1928

>  <SCORE.INTER.VDW>
-22.044

>  <SCORE.INTER.norm>
-0.576654

>  <SCORE.INTRA>
1.01873

>  <SCORE.INTRA.DIHEDRAL>
1.14586

>  <SCORE.INTRA.DIHEDRAL.0>
8.34559

>  <SCORE.INTRA.POLAR>
0

>  <SCORE.INTRA.POLAR.0>
0

>  <SCORE.INTRA.REPUL>
0

>  <SCORE.INTRA.REPUL.0>
0

>  <SCORE.INTRA.SOLV>
-0.348593

>  <SCORE.INTRA.SOLV.lig_0>
-48.829

>  <SCORE.INTRA.VDW>
0.620093

>  <SCORE.INTRA.VDW.0>
-1.77092

>  <SCORE.INTRA.norm>
0.0377306

>  <SCORE.RESTR>
0

>  <SCORE.RESTR.CAVITY>
0

>  <SCORE.RESTR.norm>
0

>  <SCORE.SYSTEM>
0

>  <SCORE.SYSTEM.CONST>
0

>  <SCORE.SYSTEM.DIHEDRAL>
0

>  <SCORE.SYSTEM.SOLV>
0

>  <SCORE.SYSTEM.norm>
0

>  <SCORE.heavy>
27

>  <SCORE.norm>
-0.538923

>  <RMSD>
4.939

$$$$
ligand
 OpenBabel02271912153D
libRbt.so/2013.1/901 2013/11/27
 27 29  0  0  0  0  0  0  0  0999 V2000
   50.9228  -26.0187 -105.1666 N   0  0  0  0  0  0  0  0  0  0  0  0
   49.4791  -25.7675 -105.0921 C   0  0  2  0  0  0  0  0  0  0  0  0
   49.1210  -24.6067 -105.9960 C   0  0  0  0  0  0  0  0  0  0  0  0
   49.8539  -23.6314 -106.0632 O   0  0  0  0  0  0  0  0  0  0  0  0
   49.0431  -25.4332 -103.6591 C   0  0  0  0  0  0  0  0  0  0  0  0
   47.5256  -25.3822 -103.5530 C   0  0  0  0  0  0  0  0  0  0  0  0
   46.7253  -27.0129 -103.8058 S   0  0  2  0  0  0  0  0  0  0  0  0
   44.9506  -26.6716 -103.5749 C   0  0  0  0  0  0  0  0  0  0  0  0
   47.1042  -27.6509 -102.1754 C   0  0  0  0  0  0  0  0  0  0  0  0
   46.0582  -28.5886 -101.6337 C   0  0  1  0  0  0  0  0  0  0  0  0
   45.8995  -29.6638 -102.5748 O   0  0  0  0  0  0  0  0  0  0  0  0
   46.7211  -29.1640 -100.4474 C   0  0  1  0  0  0  0  0  0  0  0  0
   46.2981  -28.4668  -99.2768 O   0  0  0  0  0  0  0  0  0  0  0  0
   46.1906  -30.5641 -100.4283 C   0  0  1  0  0  0  0  0  0  0  0  0
   44.9441  -30.6186  -99.7040 O   0  0  0  0  0  0  0  0  0  0  0  0
   45.9539  -30.9552 -101.9180 C   0  0  2  0  0  0  0  0  0  0  0  0
   48.1184  -24.6497 -106.6873 O   0  0  0  0  0  0  0  0  0  0  0  0
   51.0846  -32.2512 -102.3598 N   0  0  0  0  0  0  0  0  0  0  0  0
   50.5226  -31.3839 -101.4824 C   0  0  0  0  0  0  0  0  0  0  0  0
   49.1901  -31.1738 -101.4465 N   0  0  0  0  0  0  0  0  0  0  0  0
   48.3807  -31.7564 -102.3459 C   0  0  0  0  0  0  0  0  0  0  0  0
   48.9416  -32.6558 -103.3251 C   0  0  0  0  0  0  0  0  0  0  0  0
   50.3482  -32.8921 -103.2920 C   0  0  0  0  0  0  0  0  0  0  0  0
   50.9489  -33.7480 -104.1928 N   0  0  0  0  0  0  0  0  0  0  0  0
   47.9341  -33.0883 -104.0925 N   0  0  0  0  0  0  0  0  0  0  0  0
   46.8283  -32.5391 -103.6862 C   0  0  0  0  0  0  0  0  0  0  0  0
   47.0390  -31.7131 -102.6068 N   0  0  0  0  0  0  0  0  0  0  0  0
  2  1  1  1  0  0  0
  2  3  1  0  0  0  0
  2  5  1  0  0  0  0
  3  4  1  0  0  0  0
  3 17  1  0  0  0  0
  5  6  1  0  0  0  0
  7  6  1  1  0  0  0
  7  8  1  0  0  0  0
  7  9  1  0  0  0  0
 10  9  1  6  0  0  0
 10 11  1  0  0  0  0
 10 12  1  0  0  0  0
 11 16  1  0  0  0  0
 12 13  1  1  0  0  0
 12 14  1  0  0  0  0
 14 15  1  1  0  0  0
 14 16  1  0  0  0  0
 16 27  1  6  0  0  0
 18 19  2  0  0  0  0
 18 23  1  0  0  0  0
 19 20  1  0  0  0  0
 20 21  2  0  0  0  0
 21 22  1  0  0  0  0
 21 27  1  0  0  0  0
 22 23  2  0  0  0  0
 22 25  1  0  0  0  0
 23 24  1  0  0  0  0
 25 26  2  0  0  0  0
 26 27  1  0  0  0  0
M  END
>  <CHROM.1>
-40.00420173,-171.43615400,66.72970190,178.27332351,147.40543869,56.86469187
88.28494677,47.89540233,-28.98135646,-103.02340327,-1.50605589,-0.63121009
2.77689077

>  <Name>
ligand

>  <RI>
0

>  <Rbt.Current_Directory>
/home/itssahil/PROJECTS/Mol_Feturizer/Test_systems_manuscript/rnas/4l81

>  <Rbt.Executable>
rbdock ($Id: //depot/dev/client3/rdock/2013.1/src/exe/rbdock.cxx#4 $)

>  <Rbt.Library>
libRbt.so (2013.1, Build901 2013/11/27)

>  <Rbt.Parameter_File>
/export/apps/rDock/src/rDock_2013.1_src/data/scripts/dock_solv.prm

>  <Rbt.Receptor>
prm/pocket_docking_5.prm

>  <SCORE>
-13.3418

>  <SCORE.INTER>
-11.3739

>  <SCORE.INTER.CONST>
1

>  <SCORE.INTER.POLAR>
0

>  <SCORE.INTER.ROT>
7

>  <SCORE.INTER.SOLV>
14.9514

>  <SCORE.INTER.VDW>
-20.8331

>  <SCORE.INTER.norm>
-0.421256

>  <SCORE.INTRA>
-1.97675

>  <SCORE.INTRA.DIHEDRAL>
-2.70424

>  <SCORE.INTRA.DIHEDRAL.0>
8.34559

>  <SCORE.INTRA.POLAR>
0

>  <SCORE.INTRA.POLAR.0>
0

>  <SCORE.INTRA.REPUL>
0

>  <SCORE.INTRA.REPUL.0>
0

>  <SCORE.INTRA.SOLV>
-1.09297

>  <SCORE.INTRA.SOLV.lig_0>
-48.829

>  <SCORE.INTRA.VDW>
-0.078147

>  <SCORE.INTRA.VDW.0>
-1.77092

>  <SCORE.INTRA.norm>
-0.073213

>  <SCORE.RESTR>
0.00883592

>  <SCORE.RESTR.CAVITY>
0.00883592

>  <SCORE.RESTR.norm>
0.000327256

>  <SCORE.SYSTEM>
0

>  <SCORE.SYSTEM.CONST>
0

>  <SCORE.SYSTEM.DIHEDRAL>
0

>  <SCORE.SYSTEM.SOLV>
0

>  <SCORE.SYSTEM.norm>
0

>  <SCORE.heavy>
27

>  <SCORE.norm>
-0.494142

>  <RMSD>
4.950

$$$$
ligand
 OpenBabel02271912153D
libRbt.so/2013.1/901 2013/11/27
 27 29  0  0  0  0  0  0  0  0999 V2000
   44.5940  -30.2094 -102.2488 N   0  0  0  0  0  0  0  0  0  0  0  0
   44.7887  -28.8360 -101.7706 C   0  0  2  0  0  0  0  0  0  0  0  0
   44.6554  -27.8732 -102.9316 C   0  0  0  0  0  0  0  0  0  0  0  0
   44.7554  -26.6697 -102.7463 O   0  0  0  0  0  0  0  0  0  0  0  0
   46.1736  -28.6568 -101.1341 C   0  0  0  0  0  0  0  0  0  0  0  0
   46.4524  -29.7611 -100.1244 C   0  0  0  0  0  0  0  0  0  0  0  0
   48.0615  -30.5993 -100.3916 S   0  0  2  0  0  0  0  0  0  0  0  0
   49.2478  -29.2274 -100.5651 C   0  0  0  0  0  0  0  0  0  0  0  0
   47.7892  -30.9576 -102.1254 C   0  0  0  0  0  0  0  0  0  0  0  0
   48.7054  -32.0178 -102.6762 C   0  0  1  0  0  0  0  0  0  0  0  0
   48.2839  -32.3111 -104.0191 O   0  0  0  0  0  0  0  0  0  0  0  0
   49.9942  -31.3075 -102.7869 C   0  0  1  0  0  0  0  0  0  0  0  0
   50.8019  -31.6000 -101.6479 O   0  0  0  0  0  0  0  0  0  0  0  0
   50.5971  -31.9213 -104.0124 C   0  0  1  0  0  0  0  0  0  0  0  0
   51.3333  -33.1128 -103.6666 O   0  0  0  0  0  0  0  0  0  0  0  0
   49.4019  -32.2895 -104.9420 C   0  0  2  0  0  0  0  0  0  0  0  0
   44.4808  -28.2914 -104.0628 O   0  0  0  0  0  0  0  0  0  0  0  0
   47.6272  -27.4808 -106.3292 N   0  0  0  0  0  0  0  0  0  0  0  0
   47.7789  -27.9774 -105.0769 C   0  0  0  0  0  0  0  0  0  0  0  0
   48.2834  -29.2098 -104.8583 N   0  0  0  0  0  0  0  0  0  0  0  0
   48.5714  -30.0241 -105.8866 C   0  0  0  0  0  0  0  0  0  0  0  0
   48.3862  -29.5513 -107.2373 C   0  0  0  0  0  0  0  0  0  0  0  0
   47.9027  -28.2220 -107.4232 C   0  0  0  0  0  0  0  0  0  0  0  0
   47.7120  -27.7028 -108.6876 N   0  0  0  0  0  0  0  0  0  0  0  0
   48.7371  -30.5469 -108.0598 N   0  0  0  0  0  0  0  0  0  0  0  0
   49.1052  -31.5713 -107.3494 C   0  0  0  0  0  0  0  0  0  0  0  0
   49.0316  -31.3067 -106.0017 N   0  0  0  0  0  0  0  0  0  0  0  0
  2  1  1  6  0  0  0
  2  3  1  0  0  0  0
  2  5  1  0  0  0  0
  3  4  1  0  0  0  0
  3 17  1  0  0  0  0
  5  6  1  0  0  0  0
  7  6  1  6  0  0  0
  7  8  1  0  0  0  0
  7  9  1  0  0  0  0
 10  9  1  6  0  0  0
 10 11  1  0  0  0  0
 10 12  1  0  0  0  0
 11 16  1  0  0  0  0
 12 13  1  1  0  0  0
 12 14  1  0  0  0  0
 14 15  1  1  0  0  0
 14 16  1  0  0  0  0
 16 27  1  6  0  0  0
 18 19  2  0  0  0  0
 18 23  1  0  0  0  0
 19 20  1  0  0  0  0
 20 21  2  0  0  0  0
 21 22  1  0  0  0  0
 21 27  1  0  0  0  0
 22 23  2  0  0  0  0
 22 25  1  0  0  0  0
 23 24  1  0  0  0  0
 25 26  2  0  0  0  0
 26 27  1  0  0  0  0
M  END
>  <CHROM.1>
178.48767644,-49.25019876,128.75289734,48.92631215,-162.59422477,173.66135250
50.19822746,47.90494948,-30.01665086,-103.78006210,2.09192361,-0.70718860
1.79956568

>  <Name>
ligand

>  <RI>
0

>  <Rbt.Current_Directory>
/home/itssahil/PROJECTS/Mol_Feturizer/Test_systems_manuscript/rnas/4l81

>  <Rbt.Executable>
rbdock ($Id: //depot/dev/client3/rdock/2013.1/src/exe/rbdock.cxx#4 $)

>  <Rbt.Library>
libRbt.so (2013.1, Build901 2013/11/27)

>  <Rbt.Parameter_File>
/export/apps/rDock/src/rDock_2013.1_src/data/scripts/dock_solv.prm

>  <Rbt.Receptor>
prm/pocket_docking_7.prm

>  <SCORE>
-10.2578

>  <SCORE.INTER>
-12.3423

>  <SCORE.INTER.CONST>
1

>  <SCORE.INTER.POLAR>
0

>  <SCORE.INTER.ROT>
7

>  <SCORE.INTER.SOLV>
12.8993

>  <SCORE.INTER.VDW>
-20.7946

>  <SCORE.INTER.norm>
-0.457123

>  <SCORE.INTRA>
2.08448

>  <SCORE.INTRA.DIHEDRAL>
2.34762

>  <SCORE.INTRA.DIHEDRAL.0>
8.34559

>  <SCORE.INTRA.POLAR>
0

>  <SCORE.INTRA.POLAR.0>
0

>  <SCORE.INTRA.REPUL>
0

>  <SCORE.INTRA.REPUL.0>
0

>  <SCORE.INTRA.SOLV>
1.39349

>  <SCORE.INTRA.SOLV.lig_0>
-48.829

>  <SCORE.INTRA.VDW>
0.213923

>  <SCORE.INTRA.VDW.0>
-1.77092

>  <SCORE.INTRA.norm>
0.0772029

>  <SCORE.RESTR>
0

>  <SCORE.RESTR.CAVITY>
0

>  <SCORE.RESTR.norm>
0

>  <SCORE.SYSTEM>
0

>  <SCORE.SYSTEM.CONST>
0

>  <SCORE.SYSTEM.DIHEDRAL>
0

>  <SCORE.SYSTEM.SOLV>
0

>  <SCORE.SYSTEM.norm>
0

>  <SCORE.heavy>
27

>  <SCORE.norm>
-0.37992

>  <RMSD>
4.950

$$$$
ligand
 OpenBabel02271912153D
libRbt.so/2013.1/901 2013/11/27
 27 29  0  0  0  0  0  0  0  0999 V2000
   44.6641  -26.7300 -102.7375 N   0  0  0  0  0  0  0  0  0  0  0  0
   45.2111  -27.6640 -103.7280 C   0  0  2  0  0  0  0  0  0  0  0  0
   45.4129  -26.9435 -105.0443 C   0  0  0  0  0  0  0  0  0  0  0  0
   44.5337  -26.2225 -105.4913 O   0  0  0  0  0  0  0  0  0  0  0  0
   44.2691  -28.8545 -103.9536 C   0  0  0  0  0  0  0  0  0  0  0  0
   45.0087  -30.0140 -104.6059 C   0  0  0  0  0  0  0  0  0  0  0  0
   46.5116  -30.5247 -103.6871 S   0  0  2  0  0  0  0  0  0  0  0  0
   47.0157  -32.0765 -104.4978 C   0  0  0  0  0  0  0  0  0  0  0  0
   45.6364  -31.2113 -102.2831 C   0  0  0  0  0  0  0  0  0  0  0  0
   46.1227  -30.6956 -100.9548 C   0  0  1  0  0  0  0  0  0  0  0  0
   47.5516  -30.5568 -101.0317 O   0  0  0  0  0  0  0  0  0  0  0  0
   45.5700  -29.3279 -100.9155 C   0  0  1  0  0  0  0  0  0  0  0  0
   44.3614  -29.3211 -100.1573 O   0  0  0  0  0  0  0  0  0  0  0  0
   46.6354  -28.5699 -100.1859 C   0  0  1  0  0  0  0  0  0  0  0  0
   46.4222  -28.6500  -98.7613 O   0  0  0  0  0  0  0  0  0  0  0  0
   47.9838  -29.2565 -100.5581 C   0  0  2  0  0  0  0  0  0  0  0  0
   46.4643  -27.0502 -105.6510 O   0  0  0  0  0  0  0  0  0  0  0  0
   48.6726  -25.3963 -104.1389 N   0  0  0  0  0  0  0  0  0  0  0  0
   47.6578  -25.5289 -103.2498 C   0  0  0  0  0  0  0  0  0  0  0  0
   47.6225  -26.5417 -102.3588 N   0  0  0  0  0  0  0  0  0  0  0  0
   48.5545  -27.5083 -102.3835 C   0  0  0  0  0  0  0  0  0  0  0  0
   49.6311  -27.4292 -103.3412 C   0  0  0  0  0  0  0  0  0  0  0  0
   49.6602  -26.3121 -104.2281 C   0  0  0  0  0  0  0  0  0  0  0  0
   50.6663  -26.1689 -105.1619 N   0  0  0  0  0  0  0  0  0  0  0  0
   50.4067  -28.5043 -103.1587 N   0  0  0  0  0  0  0  0  0  0  0  0
   49.9080  -29.2267 -102.2002 C   0  0  0  0  0  0  0  0  0  0  0  0
   48.7691  -28.6597 -101.6777 N   0  0  0  0  0  0  0  0  0  0  0  0
  2  1  1  1  0  0  0
  2  3  1  0  0  0  0
  2  5  1  0  0  0  0
  3  4  1  0  0  0  0
  3 17  1  0  0  0  0
  5  6  1  0  0  0  0
  7  6  1  6  0  0  0
  7  8  1  0  0  0  0
  7  9  1  0  0  0  0
 10  9  1  6  0  0  0
 10 11  1  0  0  0  0
 10 12  1  0  0  0  0
 11 16  1  0  0  0  0
 12 13  1  1  0  0  0
 12 14  1  0  0  0  0
 14 15  1  1  0  0  0
 14 16  1  0  0  0  0
 16 27  1  6  0  0  0
 18 19  2  0  0  0  0
 18 23  1  0  0  0  0
 19 20  1  0  0  0  0
 20 21  2  0  0  0  0
 21 22  1  0  0  0  0
 21 27  1  0  0  0  0
 22 23  2  0  0  0  0
 22 25  1  0  0  0  0
 23 24  1  0  0  0  0
 25 26  2  0  0  0  0
 26 27  1  0  0  0  0
M  END
>  <CHROM.1>
-46.11534589,-161.58084480,54.26776329,170.29238054,-128.84836740,-37.84568781
119.72889892,46.98089560,-28.46982419,-102.85099471,2.10953117,0.33688274
2.25507584

>  <Name>
ligand

>  <RI>
0

>  <Rbt.Current_Directory>
/home/itssahil/PROJECTS/Mol_Feturizer/Test_systems_manuscript/rnas/4l81

>  <Rbt.Executable>
rbdock ($Id: //depot/dev/client3/rdock/2013.1/src/exe/rbdock.cxx#4 $)

>  <Rbt.Library>
libRbt.so (2013.1, Build901 2013/11/27)

>  <Rbt.Parameter_File>
/export/apps/rDock/src/rDock_2013.1_src/data/scripts/dock_solv.prm

>  <Rbt.Receptor>
prm/pocket_docking_2.prm

>  <SCORE>
-8.82134

>  <SCORE.INTER>
-7.67012

>  <SCORE.INTER.CONST>
1

>  <SCORE.INTER.POLAR>
0

>  <SCORE.INTER.ROT>
7

>  <SCORE.INTER.SOLV>
18.6351

>  <SCORE.INTER.VDW>
-19.5918

>  <SCORE.INTER.norm>
-0.284079

>  <SCORE.INTRA>
-1.92612

>  <SCORE.INTRA.DIHEDRAL>
2.31736

>  <SCORE.INTRA.DIHEDRAL.0>
8.34559

>  <SCORE.INTRA.POLAR>
0

>  <SCORE.INTRA.POLAR.0>
0

>  <SCORE.INTRA.REPUL>
0

>  <SCORE.INTRA.REPUL.0>
0

>  <SCORE.INTRA.SOLV>
2.6607

>  <SCORE.INTRA.SOLV.lig_0>
-48.829

>  <SCORE.INTRA.VDW>
-4.41515

>  <SCORE.INTRA.VDW.0>
-1.77092

>  <SCORE.INTRA.norm>
-0.0713379

>  <SCORE.RESTR>
0.774904

>  <SCORE.RESTR.CAVITY>
0.774904

>  <SCORE.RESTR.norm>
0.0287001

>  <SCORE.SYSTEM>
0

>  <SCORE.SYSTEM.CONST>
0

>  <SCORE.SYSTEM.DIHEDRAL>
0

>  <SCORE.SYSTEM.SOLV>
0

>  <SCORE.SYSTEM.norm>
0

>  <SCORE.heavy>
27

>  <SCORE.norm>
-0.326716

>  <RMSD>
4.953

$$$$
ligand
 OpenBabel02271912153D
libRbt.so/2013.1/901 2013/11/27
 27 29  0  0  0  0  0  0  0  0999 V2000
   50.1077  -24.8875 -105.4637 N   0  0  0  0  0  0  0  0  0  0  0  0
   50.5764  -25.9995 -104.6292 C   0  0  2  0  0  0  0  0  0  0  0  0
   50.0620  -27.3068 -105.1941 C   0  0  0  0  0  0  0  0  0  0  0  0
   49.4328  -27.3184 -106.2413 O   0  0  0  0  0  0  0  0  0  0  0  0
   50.0859  -25.8576 -103.1819 C   0  0  0  0  0  0  0  0  0  0  0  0
   48.5958  -25.5495 -103.1430 C   0  0  0  0  0  0  0  0  0  0  0  0
   47.5429  -27.0162 -103.4649 S   0  0  2  0  0  0  0  0  0  0  0  0
   45.8449  -26.3578 -103.4122 C   0  0  0  0  0  0  0  0  0  0  0  0
   47.6421  -27.6740 -101.8017 C   0  0  0  0  0  0  0  0  0  0  0  0
   46.4592  -28.5209 -101.4136 C   0  0  1  0  0  0  0  0  0  0  0  0
   46.2952  -29.5365 -102.4179 O   0  0  0  0  0  0  0  0  0  0  0  0
   46.9363  -29.2070 -100.1973 C   0  0  1  0  0  0  0  0  0  0  0  0
   46.4639  -28.5168  -99.0415 O   0  0  0  0  0  0  0  0  0  0  0  0
   46.2728  -30.5454 -100.3003 C   0  0  1  0  0  0  0  0  0  0  0  0
   44.9585  -30.5010  -99.7070 O   0  0  0  0  0  0  0  0  0  0  0  0
   46.1551  -30.8515 -101.8236 C   0  0  2  0  0  0  0  0  0  0  0  0
   50.2994  -28.3593 -104.6277 O   0  0  0  0  0  0  0  0  0  0  0  0
   51.2996  -32.0445 -102.3798 N   0  0  0  0  0  0  0  0  0  0  0  0
   50.7565  -31.0491 -101.6367 C   0  0  0  0  0  0  0  0  0  0  0  0
   49.4210  -30.8781 -101.5468 N   0  0  0  0  0  0  0  0  0  0  0  0
   48.5829  -31.6408 -102.2675 C   0  0  0  0  0  0  0  0  0  0  0  0
   49.1201  -32.6864 -103.1045 C   0  0  0  0  0  0  0  0  0  0  0  0
   50.5349  -32.8683 -103.1272 C   0  0  0  0  0  0  0  0  0  0  0  0
   51.1147  -33.8555 -103.8979 N   0  0  0  0  0  0  0  0  0  0  0  0
   48.0863  -33.2837 -103.7090 N   0  0  0  0  0  0  0  0  0  0  0  0
   46.9852  -32.7044 -103.3327 C   0  0  0  0  0  0  0  0  0  0  0  0
   47.2269  -31.6883 -102.4379 N   0  0  0  0  0  0  0  0  0  0  0  0
  2  1  1  6  0  0  0
  2  3  1  0  0  0  0
  2  5  1  0  0  0  0
  3  4  1  0  0  0  0
  3 17  1  0  0  0  0
  5  6  1  0  0  0  0
  7  6  1  1  0  0  0
  7  8  1  0  0  0  0
  7  9  1  0  0  0  0
 10  9  1  6  0  0  0
 10 11  1  0  0  0  0
 10 12  1  0  0  0  0
 11 16  1  0  0  0  0
 12 13  1  1  0  0  0
 12 14  1  0  0  0  0
 14 15  1  6  0  0  0
 14 16  1  0  0  0  0
 16 27  1  6  0  0  0
 18 19  2  0  0  0  0
 18 23  1  0  0  0  0
 19 20  1  0  0  0  0
 20 21  2  0  0  0  0
 21 22  1  0  0  0  0
 21 27  1  0  0  0  0
 22 23  2  0  0  0  0
 22 25  1  0  0  0  0
 23 24  1  0  0  0  0
 25 26  2  0  0  0  0
 26 27  1  0  0  0  0
M  END
>  <CHROM.1>
4.16754016,48.11399209,76.75395682,-178.24669091,153.57416378,53.44406587
70.23352075,48.31791570,-29.31550135,-102.75173489,-1.40290221,-0.67862331
2.88769587

>  <Name>
ligand

>  <RI>
0

>  <Rbt.Current_Directory>
/home/itssahil/PROJECTS/Mol_Feturizer/Test_systems_manuscript/rnas/4l81

>  <Rbt.Executable>
rbdock ($Id: //depot/dev/client3/rdock/2013.1/src/exe/rbdock.cxx#4 $)

>  <Rbt.Library>
libRbt.so (2013.1, Build901 2013/11/27)

>  <Rbt.Parameter_File>
/export/apps/rDock/src/rDock_2013.1_src/data/scripts/dock_solv.prm

>  <Rbt.Receptor>
prm/pocket_docking_6.prm

>  <SCORE>
-16.4643

>  <SCORE.INTER>
-14.9296

>  <SCORE.INTER.CONST>
1

>  <SCORE.INTER.POLAR>
0

>  <SCORE.INTER.ROT>
7

>  <SCORE.INTER.SOLV>
13.6474

>  <SCORE.INTER.VDW>
-22.7688

>  <SCORE.INTER.norm>
-0.552947

>  <SCORE.INTRA>
-1.5347

>  <SCORE.INTRA.DIHEDRAL>
-2.0422

>  <SCORE.INTRA.DIHEDRAL.0>
8.34559

>  <SCORE.INTRA.POLAR>
0

>  <SCORE.INTRA.POLAR.0>
0

>  <SCORE.INTRA.REPUL>
0

>  <SCORE.INTRA.REPUL.0>
0

>  <SCORE.INTRA.SOLV>
0.221289

>  <SCORE.INTRA.SOLV.lig_0>
-48.829

>  <SCORE.INTRA.VDW>
-0.624244

>  <SCORE.INTRA.VDW.0>
-1.77092

>  <SCORE.INTRA.norm>
-0.0568408

>  <SCORE.RESTR>
0

>  <SCORE.RESTR.CAVITY>
0

>  <SCORE.RESTR.norm>
0

>  <SCORE.SYSTEM>
0

>  <SCORE.SYSTEM.CONST>
0

>  <SCORE.SYSTEM.DIHEDRAL>
0

>  <SCORE.SYSTEM.SOLV>
0

>  <SCORE.SYSTEM.norm>
0

>  <SCORE.heavy>
27

>  <SCORE.norm>
-0.609788

>  <RMSD>
4.954

$$$$
ligand
 OpenBabel02271912153D
libRbt.so/2013.1/901 2013/11/27
 27 29  0  0  0  0  0  0  0  0999 V2000
   49.0774  -27.0797 -107.6699 N   0  0  0  0  0  0  0  0  0  0  0  0
   48.8914  -25.8158 -106.9482 C   0  0  2  0  0  0  0  0  0  0  0  0
   48.8379  -24.6717 -107.9386 C   0  0  0  0  0  0  0  0  0  0  0  0
   48.8223  -24.8983 -109.1391 O   0  0  0  0  0  0  0  0  0  0  0  0
   50.0376  -25.5627 -105.9595 C   0  0  0  0  0  0  0  0  0  0  0  0
   50.1102  -26.6718 -104.9195 C   0  0  0  0  0  0  0  0  0  0  0  0
   48.5351  -26.9215 -104.0139 S   0  0  2  0  0  0  0  0  0  0  0  0
   48.4599  -25.5087 -102.8658 C   0  0  0  0  0  0  0  0  0  0  0  0
   49.1710  -28.1639 -102.8911 C   0  0  0  0  0  0  0  0  0  0  0  0
   48.1028  -28.8630 -102.0930 C   0  0  1  0  0  0  0  0  0  0  0  0
   47.4265  -29.7803 -102.9694 O   0  0  0  0  0  0  0  0  0  0  0  0
   48.8869  -29.6842 -101.1504 C   0  0  1  0  0  0  0  0  0  0  0  0
   48.9869  -29.0106  -99.8967 O   0  0  0  0  0  0  0  0  0  0  0  0
   48.0382  -30.9093 -101.0063 C   0  0  1  0  0  0  0  0  0  0  0  0
   47.0604  -30.7226  -99.9620 O   0  0  0  0  0  0  0  0  0  0  0  0
   47.3194  -31.0988 -102.3758 C   0  0  2  0  0  0  0  0  0  0  0  0
   48.7765  -23.5194 -107.5470 O   0  0  0  0  0  0  0  0  0  0  0  0
   51.6494  -33.4559 -104.3489 N   0  0  0  0  0  0  0  0  0  0  0  0
   51.5878  -32.5390 -103.3523 C   0  0  0  0  0  0  0  0  0  0  0  0
   50.4110  -32.0455 -102.9134 N   0  0  0  0  0  0  0  0  0  0  0  0
   49.2592  -32.3843 -103.5153 C   0  0  0  0  0  0  0  0  0  0  0  0
   49.2822  -33.3265 -104.6081 C   0  0  0  0  0  0  0  0  0  0  0  0
   50.5424  -33.8657 -105.0036 C   0  0  0  0  0  0  0  0  0  0  0  0
   50.6355  -34.7786 -106.0345 N   0  0  0  0  0  0  0  0  0  0  0  0
   48.0204  -33.4835 -105.0255 N   0  0  0  0  0  0  0  0  0  0  0  0
   47.2415  -32.7305 -104.3074 C   0  0  0  0  0  0  0  0  0  0  0  0
   47.9472  -32.0341 -103.3541 N   0  0  0  0  0  0  0  0  0  0  0  0
  2  1  1  6  0  0  0
  2  3  1  0  0  0  0
  2  5  1  0  0  0  0
  3  4  1  0  0  0  0
  3 17  1  0  0  0  0
  5  6  1  0  0  0  0
  7  6  1  6  0  0  0
  7  8  1  0  0  0  0
  7  9  1  0  0  0  0
 10  9  1  6  0  0  0
 10 11  1  0  0  0  0
 10 12  1  0  0  0  0
 11 16  1  0  0  0  0
 12 13  1  1  0  0  0
 12 14  1  0  0  0  0
 14 15  1  1  0  0  0
 14 16  1  0  0  0  0
 16 27  1  6  0  0  0
 18 19  2  0  0  0  0
 18 23  1  0  0  0  0
 19 20  1  0  0  0  0
 20 21  2  0  0  0  0
 21 22  1  0  0  0  0
 21 27  1  0  0  0  0
 22 23  2  0  0  0  0
 22 25  1  0  0  0  0
 23 24  1  0  0  0  0
 25 26  2  0  0  0  0
 26 27  1  0  0  0  0
M  END
>  <CHROM.1>
6.67797144,-60.61241637,-55.47561337,-74.93140801,-169.08800671,74.69129730
85.35382377,48.95678989,-29.36840221,-104.12405540,-1.66969878,-1.26110550
2.60743104

>  <Name>
ligand

>  <RI>
0

>  <Rbt.Current_Directory>
/home/itssahil/PROJECTS/Mol_Feturizer/Test_systems_manuscript/rnas/4l81

>  <Rbt.Executable>
rbdock ($Id: //depot/dev/client3/rdock/2013.1/src/exe/rbdock.cxx#4 $)

>  <Rbt.Library>
libRbt.so (2013.1, Build901 2013/11/27)

>  <Rbt.Parameter_File>
/export/apps/rDock/src/rDock_2013.1_src/data/scripts/dock_solv.prm

>  <Rbt.Receptor>
prm/pocket_docking_5.prm

>  <SCORE>
-12.411

>  <SCORE.INTER>
-10.0066

>  <SCORE.INTER.CONST>
1

>  <SCORE.INTER.POLAR>
0

>  <SCORE.INTER.ROT>
7

>  <SCORE.INTER.SOLV>
10.4849

>  <SCORE.INTER.VDW>
-18.4327

>  <SCORE.INTER.norm>
-0.370615

>  <SCORE.INTRA>
-2.40436

>  <SCORE.INTRA.DIHEDRAL>
-3.25938

>  <SCORE.INTRA.DIHEDRAL.0>
8.34559

>  <SCORE.INTRA.POLAR>
0

>  <SCORE.INTRA.POLAR.0>
0

>  <SCORE.INTRA.REPUL>
0

>  <SCORE.INTRA.REPUL.0>
0

>  <SCORE.INTRA.SOLV>
0.10313

>  <SCORE.INTRA.SOLV.lig_0>
-48.829

>  <SCORE.INTRA.VDW>
-0.826235

>  <SCORE.INTRA.VDW.0>
-1.77092

>  <SCORE.INTRA.norm>
-0.0890505

>  <SCORE.RESTR>
0

>  <SCORE.RESTR.CAVITY>
0

>  <SCORE.RESTR.norm>
0

>  <SCORE.SYSTEM>
0

>  <SCORE.SYSTEM.CONST>
0

>  <SCORE.SYSTEM.DIHEDRAL>
0

>  <SCORE.SYSTEM.SOLV>
0

>  <SCORE.SYSTEM.norm>
0

>  <SCORE.heavy>
27

>  <SCORE.norm>
-0.459665

>  <RMSD>
4.955

$$$$
ligand
 OpenBabel02271912153D
libRbt.so/2013.1/901 2013/11/27
 27 29  0  0  0  0  0  0  0  0999 V2000
   46.4845  -28.1403 -105.1016 N   0  0  0  0  0  0  0  0  0  0  0  0
   45.0571  -27.9660 -104.8103 C   0  0  2  0  0  0  0  0  0  0  0  0
   44.6894  -26.5031 -104.9424 C   0  0  0  0  0  0  0  0  0  0  0  0
   43.5976  -26.1817 -105.3866 O   0  0  0  0  0  0  0  0  0  0  0  0
   44.7148  -28.4372 -103.3903 C   0  0  0  0  0  0  0  0  0  0  0  0
   44.8246  -29.9514 -103.2812 C   0  0  0  0  0  0  0  0  0  0  0  0
   46.5568  -30.5535 -103.2585 S   0  0  2  0  0  0  0  0  0  0  0  0
   46.3978  -32.3564 -103.4682 C   0  0  0  0  0  0  0  0  0  0  0  0
   46.7425  -30.4921 -101.4779 C   0  0  0  0  0  0  0  0  0  0  0  0
   48.1570  -30.7059 -101.0085 C   0  0  1  0  0  0  0  0  0  0  0  0
   48.6923  -31.8344 -101.7204 O   0  0  0  0  0  0  0  0  0  0  0  0
   48.8548  -29.5135 -101.5271 C   0  0  1  0  0  0  0  0  0  0  0  0
   48.9597  -28.5333 -100.4957 O   0  0  0  0  0  0  0  0  0  0  0  0
   50.2116  -30.0525 -101.8599 C   0  0  1  0  0  0  0  0  0  0  0  0
   51.0710  -29.9982 -100.7024 O   0  0  0  0  0  0  0  0  0  0  0  0
   49.9929  -31.5351 -102.2869 C   0  0  2  0  0  0  0  0  0  0  0  0
   45.4645  -25.6369 -104.5766 O   0  0  0  0  0  0  0  0  0  0  0  0
   50.6001  -34.8445 -106.3951 N   0  0  0  0  0  0  0  0  0  0  0  0
   50.9282  -35.0659 -105.0985 C   0  0  0  0  0  0  0  0  0  0  0  0
   50.6814  -34.1512 -104.1376 N   0  0  0  0  0  0  0  0  0  0  0  0
   50.1790  -32.9461 -104.4522 C   0  0  0  0  0  0  0  0  0  0  0  0
   49.8532  -32.6520 -105.8269 C   0  0  0  0  0  0  0  0  0  0  0  0
   50.0787  -33.6680 -106.8027 C   0  0  0  0  0  0  0  0  0  0  0  0
   49.7804  -33.4573 -108.1336 N   0  0  0  0  0  0  0  0  0  0  0  0
   49.3816  -31.4003 -105.8657 N   0  0  0  0  0  0  0  0  0  0  0  0
   49.3967  -30.9061 -104.6636 C   0  0  0  0  0  0  0  0  0  0  0  0
   49.8713  -31.8154 -103.7474 N   0  0  0  0  0  0  0  0  0  0  0  0
  2  1  1  1  0  0  0
  2  3  1  0  0  0  0
  2  5  1  0  0  0  0
  3  4  1  0  0  0  0
  3 17  1  0  0  0  0
  5  6  1  0  0  0  0
  7  6  1  1  0  0  0
  7  8  1  0  0  0  0
  7  9  1  0  0  0  0
 10  9  1  6  0  0  0
 10 11  1  0  0  0  0
 10 12  1  0  0  0  0
 11 16  1  0  0  0  0
 12 13  1  1  0  0  0
 12 14  1  0  0  0  0
 14 15  1  1  0  0  0
 14 16  1  0  0  0  0
 16 27  1  6  0  0  0
 18 19  2  0  0  0  0
 18 23  1  0  0  0  0
 19 20  1  0  0  0  0
 20 21  2  0  0  0  0
 21 22  1  0  0  0  0
 21 27  1  0  0  0  0
 22 23  2  0  0  0  0
 22 25  1  0  0  0  0
 23 24  1  0  0  0  0
 25 26  2  0  0  0  0
 26 27  1  0  0  0  0
M  END
>  <CHROM.1>
144.17232500,-69.58543476,73.82901518,-168.83875333,-170.31981558,-46.11059853
-94.57836768,48.06242050,-30.62482006,-103.78095332,2.68500485,-0.76028185
1.12012222

>  <Name>
ligand

>  <RI>
0

>  <Rbt.Current_Directory>
/home/itssahil/PROJECTS/Mol_Feturizer/Test_systems_manuscript/rnas/4l81

>  <Rbt.Executable>
rbdock ($Id: //depot/dev/client3/rdock/2013.1/src/exe/rbdock.cxx#4 $)

>  <Rbt.Library>
libRbt.so (2013.1, Build901 2013/11/27)

>  <Rbt.Parameter_File>
/export/apps/rDock/src/rDock_2013.1_src/data/scripts/dock_solv.prm

>  <Rbt.Receptor>
prm/pocket_docking_8.prm

>  <SCORE>
-11.9944

>  <SCORE.INTER>
-10.4139

>  <SCORE.INTER.CONST>
1

>  <SCORE.INTER.POLAR>
0

>  <SCORE.INTER.ROT>
7

>  <SCORE.INTER.SOLV>
7.94927

>  <SCORE.INTER.VDW>
-17.8591

>  <SCORE.INTER.norm>
-0.385702

>  <SCORE.INTRA>
-1.58041

>  <SCORE.INTRA.DIHEDRAL>
-1.4663

>  <SCORE.INTRA.DIHEDRAL.0>
8.34559

>  <SCORE.INTRA.POLAR>
0

>  <SCORE.INTRA.POLAR.0>
0

>  <SCORE.INTRA.REPUL>
0

>  <SCORE.INTRA.REPUL.0>
0

>  <SCORE.INTRA.SOLV>
1.31747

>  <SCORE.INTRA.SOLV.lig_0>
-48.829

>  <SCORE.INTRA.VDW>
-1.50599

>  <SCORE.INTRA.VDW.0>
-1.77092

>  <SCORE.INTRA.norm>
-0.0585337

>  <SCORE.RESTR>
0

>  <SCORE.RESTR.CAVITY>
0

>  <SCORE.RESTR.norm>
0

>  <SCORE.SYSTEM>
0

>  <SCORE.SYSTEM.CONST>
0

>  <SCORE.SYSTEM.DIHEDRAL>
0

>  <SCORE.SYSTEM.SOLV>
0

>  <SCORE.SYSTEM.norm>
0

>  <SCORE.heavy>
27

>  <SCORE.norm>
-0.444235

>  <RMSD>
4.963

$$$$
ligand
 OpenBabel02271912153D
libRbt.so/2013.1/901 2013/11/27
 27 29  0  0  0  0  0  0  0  0999 V2000
   46.6861  -24.2269 -107.5090 N   0  0  0  0  0  0  0  0  0  0  0  0
   47.7057  -23.8715 -106.5156 C   0  0  2  0  0  0  0  0  0  0  0  0
   48.9921  -24.6072 -106.8264 C   0  0  0  0  0  0  0  0  0  0  0  0
   50.0675  -24.1316 -106.4946 O   0  0  0  0  0  0  0  0  0  0  0  0
   47.2546  -24.2396 -105.0955 C   0  0  0  0  0  0  0  0  0  0  0  0
   46.9517  -25.7278 -104.9925 C   0  0  0  0  0  0  0  0  0  0  0  0
   46.6213  -26.2838 -103.2764 S   0  0  2  0  0  0  0  0  0  0  0  0
   48.2417  -26.1555 -102.4535 C   0  0  0  0  0  0  0  0  0  0  0  0
   46.6336  -28.0353 -103.6520 C   0  0  0  0  0  0  0  0  0  0  0  0
   45.8247  -28.8665 -102.6921 C   0  0  1  0  0  0  0  0  0  0  0  0
   45.7653  -30.2063 -103.2101 O   0  0  0  0  0  0  0  0  0  0  0  0
   46.6897  -28.9168 -101.4975 C   0  0  1  0  0  0  0  0  0  0  0  0
   46.2673  -27.9295 -100.5582 O   0  0  0  0  0  0  0  0  0  0  0  0
   46.4157  -30.2863 -100.9578 C   0  0  1  0  0  0  0  0  0  0  0  0
   45.2741  -30.2592 -100.0761 O   0  0  0  0  0  0  0  0  0  0  0  0
   46.1075  -31.1827 -102.1945 C   0  0  2  0  0  0  0  0  0  0  0  0
   48.9637  -25.6927 -107.3793 O   0  0  0  0  0  0  0  0  0  0  0  0
   51.2730  -32.4109 -102.2807 N   0  0  0  0  0  0  0  0  0  0  0  0
   50.6562  -31.4807 -101.5111 C   0  0  0  0  0  0  0  0  0  0  0  0
   49.3204  -31.2948 -101.5559 N   0  0  0  0  0  0  0  0  0  0  0  0
   48.5642  -31.9704 -102.4363 C   0  0  0  0  0  0  0  0  0  0  0  0
   49.1853  -32.9416 -103.3043 C   0  0  0  0  0  0  0  0  0  0  0  0
   50.5922  -33.1462 -103.1851 C   0  0  0  0  0  0  0  0  0  0  0  0
   51.2487  -34.0663 -103.9771 N   0  0  0  0  0  0  0  0  0  0  0  0
   48.2227  -33.4600 -104.0759 N   0  0  0  0  0  0  0  0  0  0  0  0
   47.0902  -32.8991 -103.7719 C   0  0  0  0  0  0  0  0  0  0  0  0
   47.2360  -31.9769 -102.7620 N   0  0  0  0  0  0  0  0  0  0  0  0
  2  1  1  6  0  0  0
  2  3  1  0  0  0  0
  2  5  1  0  0  0  0
  3  4  1  0  0  0  0
  3 17  1  0  0  0  0
  5  6  1  0  0  0  0
  7  6  1  6  0  0  0
  7  8  1  0  0  0  0
  7  9  1  0  0  0  0
 10  9  1  6  0  0  0
 10 11  1  0  0  0  0
 10 12  1  0  0  0  0
 11 16  1  0  0  0  0
 12 13  1  1  0  0  0
 12 14  1  0  0  0  0
 14 15  1  1  0  0  0
 14 16  1  0  0  0  0
 16 27  1  6  0  0  0
 18 19  2  0  0  0  0
 18 23  1  0  0  0  0
 19 20  1  0  0  0  0
 20 21  2  0  0  0  0
 21 22  1  0  0  0  0
 21 27  1  0  0  0  0
 22 23  2  0  0  0  0
 22 25  1  0  0  0  0
 23 24  1  0  0  0  0
 25 26  2  0  0  0  0
 26 27  1  0  0  0  0
M  END
>  <CHROM.1>
152.38850295,58.19408256,172.37035649,-69.59972956,-154.31808997,172.06074507
107.27275131,47.82308601,-28.88706197,-103.48794853,-1.70754537,-0.68670198
2.64145860

>  <Name>
ligand

>  <RI>
0

>  <Rbt.Current_Directory>
/home/itssahil/PROJECTS/Mol_Feturizer/Test_systems_manuscript/rnas/4l81

>  <Rbt.Executable>
rbdock ($Id: //depot/dev/client3/rdock/2013.1/src/exe/rbdock.cxx#4 $)

>  <Rbt.Library>
libRbt.so (2013.1, Build901 2013/11/27)

>  <Rbt.Parameter_File>
/export/apps/rDock/src/rDock_2013.1_src/data/scripts/dock_solv.prm

>  <Rbt.Receptor>
prm/pocket_docking_5.prm

>  <SCORE>
-10.9928

>  <SCORE.INTER>
-9.35233

>  <SCORE.INTER.CONST>
1

>  <SCORE.INTER.POLAR>
0

>  <SCORE.INTER.ROT>
7

>  <SCORE.INTER.SOLV>
10.7608

>  <SCORE.INTER.VDW>
-18.0885

>  <SCORE.INTER.norm>
-0.346382

>  <SCORE.INTRA>
-1.64049

>  <SCORE.INTRA.DIHEDRAL>
-2.14621

>  <SCORE.INTRA.DIHEDRAL.0>
8.34559

>  <SCORE.INTRA.POLAR>
0

>  <SCORE.INTRA.POLAR.0>
0

>  <SCORE.INTRA.REPUL>
0

>  <SCORE.INTRA.REPUL.0>
0

>  <SCORE.INTRA.SOLV>
-0.315113

>  <SCORE.INTRA.SOLV.lig_0>
-48.829

>  <SCORE.INTRA.VDW>
-0.409831

>  <SCORE.INTRA.VDW.0>
-1.77092

>  <SCORE.INTRA.norm>
-0.0607589

>  <SCORE.RESTR>
0

>  <SCORE.RESTR.CAVITY>
0

>  <SCORE.RESTR.norm>
0

>  <SCORE.SYSTEM>
0

>  <SCORE.SYSTEM.CONST>
0

>  <SCORE.SYSTEM.DIHEDRAL>
0

>  <SCORE.SYSTEM.SOLV>
0

>  <SCORE.SYSTEM.norm>
0

>  <SCORE.heavy>
27

>  <SCORE.norm>
-0.407141

>  <RMSD>
4.982

$$$$
ligand
 OpenBabel02271912153D
libRbt.so/2013.1/901 2013/11/27
 27 29  0  0  0  0  0  0  0  0999 V2000
   49.4120  -24.9325 -105.1916 N   0  0  0  0  0  0  0  0  0  0  0  0
   48.8867  -24.7948 -103.8286 C   0  0  2  0  0  0  0  0  0  0  0  0
   50.0018  -24.3660 -102.8982 C   0  0  0  0  0  0  0  0  0  0  0  0
   49.9890  -23.2523 -102.3960 O   0  0  0  0  0  0  0  0  0  0  0  0
   48.2977  -26.1176 -103.3202 C   0  0  0  0  0  0  0  0  0  0  0  0
   47.1497  -26.5758 -104.2084 C   0  0  0  0  0  0  0  0  0  0  0  0
   46.4776  -28.2158 -103.7371 S   0  0  2  0  0  0  0  0  0  0  0  0
   45.2469  -28.5746 -105.0318 C   0  0  0  0  0  0  0  0  0  0  0  0
   45.3775  -27.5980 -102.4656 C   0  0  0  0  0  0  0  0  0  0  0  0
   45.0169  -28.6248 -101.4252 C   0  0  1  0  0  0  0  0  0  0  0  0
   44.6620  -29.8392 -102.1081 O   0  0  0  0  0  0  0  0  0  0  0  0
   46.3089  -28.8802 -100.7596 C   0  0  1  0  0  0  0  0  0  0  0  0
   46.3920  -28.1084  -99.5626 O   0  0  0  0  0  0  0  0  0  0  0  0
   46.2168  -30.3365 -100.4235 C   0  0  1  0  0  0  0  0  0  0  0  0
   45.5724  -30.5168  -99.1454 O   0  0  0  0  0  0  0  0  0  0  0  0
   45.3528  -30.9838 -101.5471 C   0  0  2  0  0  0  0  0  0  0  0  0
   50.9017  -25.1382 -102.6172 O   0  0  0  0  0  0  0  0  0  0  0  0
   49.8850  -32.6647 -103.7453 N   0  0  0  0  0  0  0  0  0  0  0  0
   49.7248  -32.0448 -102.5503 C   0  0  0  0  0  0  0  0  0  0  0  0
   48.5047  -31.7042 -102.0852 N   0  0  0  0  0  0  0  0  0  0  0  0
   47.4084  -31.8907 -102.8380 C   0  0  0  0  0  0  0  0  0  0  0  0
   47.5372  -32.5101 -104.1350 C   0  0  0  0  0  0  0  0  0  0  0  0
   48.8392  -32.9050 -104.5642 C   0  0  0  0  0  0  0  0  0  0  0  0
   49.0330  -33.5115 -105.7887 N   0  0  0  0  0  0  0  0  0  0  0  0
   46.3125  -32.5719 -104.6707 N   0  0  0  0  0  0  0  0  0  0  0  0
   45.4614  -32.0483 -103.8395 C   0  0  0  0  0  0  0  0  0  0  0  0
   46.0770  -31.6171 -102.6877 N   0  0  0  0  0  0  0  0  0  0  0  0
  2  1  1  6  0  0  0
  2  3  1  0  0  0  0
  2  5  1  0  0  0  0
  3  4  1  0  0  0  0
  3 17  1  0  0  0  0
  5  6  1  0  0  0  0
  7  6  1  6  0  0  0
  7  8  1  0  0  0  0
  7  9  1  0  0  0  0
 10  9  1  6  0  0  0
 10 11  1  0  0  0  0
 10 12  1  0  0  0  0
 11 16  1  0  0  0  0
 12 13  1  1  0  0  0
 12 14  1  0  0  0  0
 14 15  1  1  0  0  0
 14 16  1  0  0  0  0
 16 27  1  6  0  0  0
 18 19  2  0  0  0  0
 18 23  1  0  0  0  0
 19 20  1  0  0  0  0
 20 21  2  0  0  0  0
 21 22  1  0  0  0  0
 21 27  1  0  0  0  0
 22 23  2  0  0  0  0
 22 25  1  0  0  0  0
 23 24  1  0  0  0  0
 25 26  2  0  0  0  0
 26 27  1  0  0  0  0
M  END
>  <CHROM.1>
111.86202619,-60.40998766,175.62587739,-175.08201187,-156.49322173,-46.43788220
123.32740407,47.35288905,-29.12680190,-102.87293642,-1.21596191,-0.70403366
-2.90706960

>  <Name>
ligand

>  <RI>
0

>  <Rbt.Current_Directory>
/home/itssahil/PROJECTS/Mol_Feturizer/Test_systems_manuscript/rnas/4l81

>  <Rbt.Executable>
rbdock ($Id: //depot/dev/client3/rdock/2013.1/src/exe/rbdock.cxx#4 $)

>  <Rbt.Library>
libRbt.so (2013.1, Build901 2013/11/27)

>  <Rbt.Parameter_File>
/export/apps/rDock/src/rDock_2013.1_src/data/scripts/dock_solv.prm

>  <Rbt.Receptor>
prm/pocket_docking_8.prm

>  <SCORE>
-14.9549

>  <SCORE.INTER>
-12.6037

>  <SCORE.INTER.CONST>
1

>  <SCORE.INTER.POLAR>
0

>  <SCORE.INTER.ROT>
7

>  <SCORE.INTER.SOLV>
9.63719

>  <SCORE.INTER.VDW>
-19.8815

>  <SCORE.INTER.norm>
-0.466803

>  <SCORE.INTRA>
-2.3512

>  <SCORE.INTRA.DIHEDRAL>
-1.43513

>  <SCORE.INTRA.DIHEDRAL.0>
8.34559

>  <SCORE.INTRA.POLAR>
0

>  <SCORE.INTRA.POLAR.0>
0

>  <SCORE.INTRA.REPUL>
0

>  <SCORE.INTRA.REPUL.0>
0

>  <SCORE.INTRA.SOLV>
-0.335862

>  <SCORE.INTRA.SOLV.lig_0>
-48.829

>  <SCORE.INTRA.VDW>
-1.4657

>  <SCORE.INTRA.VDW.0>
-1.77092

>  <SCORE.INTRA.norm>
-0.0870815

>  <SCORE.RESTR>
0

>  <SCORE.RESTR.CAVITY>
0

>  <SCORE.RESTR.norm>
0

>  <SCORE.SYSTEM>
0

>  <SCORE.SYSTEM.CONST>
0

>  <SCORE.SYSTEM.DIHEDRAL>
0

>  <SCORE.SYSTEM.SOLV>
0

>  <SCORE.SYSTEM.norm>
0

>  <SCORE.heavy>
27

>  <SCORE.norm>
-0.553885

>  <RMSD>
4.989

$$$$
ligand
 OpenBabel02271912153D
libRbt.so/2013.1/901 2013/11/27
 27 29  0  0  0  0  0  0  0  0999 V2000
   46.0810  -29.1273 -106.4326 N   0  0  0  0  0  0  0  0  0  0  0  0
   47.4393  -28.5751 -106.3788 C   0  0  2  0  0  0  0  0  0  0  0  0
   48.1652  -28.8925 -107.6691 C   0  0  0  0  0  0  0  0  0  0  0  0
   49.0260  -28.1357 -108.0921 O   0  0  0  0  0  0  0  0  0  0  0  0
   48.2350  -29.1618 -105.2049 C   0  0  0  0  0  0  0  0  0  0  0  0
   48.3240  -30.6773 -105.3149 C   0  0  0  0  0  0  0  0  0  0  0  0
   48.9571  -31.4794 -103.7920 S   0  0  2  0  0  0  0  0  0  0  0  0
   48.9517  -33.2559 -104.1966 C   0  0  0  0  0  0  0  0  0  0  0  0
   47.4122  -31.3910 -102.8896 C   0  0  0  0  0  0  0  0  0  0  0  0
   47.5475  -30.7948 -101.5137 C   0  0  1  0  0  0  0  0  0  0  0  0
   48.5363  -29.7532 -101.5794 O   0  0  0  0  0  0  0  0  0  0  0  0
   46.2463  -30.1262 -101.3203 C   0  0  1  0  0  0  0  0  0  0  0  0
   45.3817  -30.9706 -100.5620 O   0  0  0  0  0  0  0  0  0  0  0  0
   46.6193  -28.9206 -100.5143 C   0  0  1  0  0  0  0  0  0  0  0  0
   46.6164  -29.2374  -99.1068 O   0  0  0  0  0  0  0  0  0  0  0  0
   48.0587  -28.5298 -100.9653 C   0  0  2  0  0  0  0  0  0  0  0  0
   47.9209  -29.9196 -108.2777 O   0  0  0  0  0  0  0  0  0  0  0  0
   45.8216  -25.4133 -104.6369 N   0  0  0  0  0  0  0  0  0  0  0  0
   45.2168  -26.3520 -103.8682 C   0  0  0  0  0  0  0  0  0  0  0  0
   45.8965  -27.0516 -102.9357 N   0  0  0  0  0  0  0  0  0  0  0  0
   47.2240  -26.9011 -102.7996 C   0  0  0  0  0  0  0  0  0  0  0  0
   47.9161  -25.9418 -103.6262 C   0  0  0  0  0  0  0  0  0  0  0  0
   47.1496  -25.1839 -104.5607 C   0  0  0  0  0  0  0  0  0  0  0  0
   47.7460  -24.2429 -105.3753 N   0  0  0  0  0  0  0  0  0  0  0  0
   49.2122  -25.9940 -103.2973 N   0  0  0  0  0  0  0  0  0  0  0  0
   49.3763  -26.8877 -102.3679 C   0  0  0  0  0  0  0  0  0  0  0  0
   48.1845  -27.4759 -102.0140 N   0  0  0  0  0  0  0  0  0  0  0  0
  2  1  1  6  0  0  0
  2  3  1  0  0  0  0
  2  5  1  0  0  0  0
  3  4  1  0  0  0  0
  3 17  1  0  0  0  0
  5  6  1  0  0  0  0
  7  6  1  6  0  0  0
  7  8  1  0  0  0  0
  7  9  1  0  0  0  0
 10  9  1  6  0  0  0
 10 11  1  0  0  0  0
 10 12  1  0  0  0  0
 11 16  1  0  0  0  0
 12 13  1  1  0  0  0
 12 14  1  0  0  0  0
 14 15  1  1  0  0  0
 14 16  1  0  0  0  0
 16 27  1  6  0  0  0
 18 19  2  0  0  0  0
 18 23  1  0  0  0  0
 19 20  1  0  0  0  0
 20 21  2  0  0  0  0
 21 22  1  0  0  0  0
 21 27  1  0  0  0  0
 22 23  2  0  0  0  0
 22 25  1  0  0  0  0
 23 24  1  0  0  0  0
 25 26  2  0  0  0  0
 26 27  1  0  0  0  0
M  END
>  <CHROM.1>
149.89520298,58.65894735,-168.33025983,179.77272679,-129.28584725,36.10353798
103.23980240,47.60231504,-28.75494948,-103.68534719,-1.17230959,-1.31939700
2.42533981

>  <Name>
ligand

>  <RI>
0

>  <Rbt.Current_Directory>
/home/itssahil/PROJECTS/Mol_Feturizer/Test_systems_manuscript/rnas/4l81

>  <Rbt.Executable>
rbdock ($Id: //depot/dev/client3/rdock/2013.1/src/exe/rbdock.cxx#4 $)

>  <Rbt.Library>
libRbt.so (2013.1, Build901 2013/11/27)

>  <Rbt.Parameter_File>
/export/apps/rDock/src/rDock_2013.1_src/data/scripts/dock_solv.prm

>  <Rbt.Receptor>
prm/pocket_docking_6.prm

>  <SCORE>
-10.473

>  <SCORE.INTER>
-8.985

>  <SCORE.INTER.CONST>
1

>  <SCORE.INTER.POLAR>
0

>  <SCORE.INTER.ROT>
7

>  <SCORE.INTER.SOLV>
8.64075

>  <SCORE.INTER.VDW>
-17.1369

>  <SCORE.INTER.norm>
-0.332778

>  <SCORE.INTRA>
-1.48795

>  <SCORE.INTRA.DIHEDRAL>
1.69951

>  <SCORE.INTRA.DIHEDRAL.0>
8.34559

>  <SCORE.INTRA.POLAR>
0

>  <SCORE.INTRA.POLAR.0>
0

>  <SCORE.INTRA.REPUL>
0

>  <SCORE.INTRA.REPUL.0>
0

>  <SCORE.INTRA.SOLV>
0.027102

>  <SCORE.INTRA.SOLV.lig_0>
-48.829

>  <SCORE.INTRA.VDW>
-2.35126

>  <SCORE.INTRA.VDW.0>
-1.77092

>  <SCORE.INTRA.norm>
-0.0551093

>  <SCORE.RESTR>
0

>  <SCORE.RESTR.CAVITY>
0

>  <SCORE.RESTR.norm>
0

>  <SCORE.SYSTEM>
0

>  <SCORE.SYSTEM.CONST>
0

>  <SCORE.SYSTEM.DIHEDRAL>
0

>  <SCORE.SYSTEM.SOLV>
0

>  <SCORE.SYSTEM.norm>
0

>  <SCORE.heavy>
27

>  <SCORE.norm>
-0.387887

>  <RMSD>
4.990

$$$$
ligand
 OpenBabel02271912153D
libRbt.so/2013.1/901 2013/11/27
 27 29  0  0  0  0  0  0  0  0999 V2000
   49.5072  -33.1294 -109.2029 N   0  0  0  0  0  0  0  0  0  0  0  0
   49.4222  -33.3951 -107.7625 C   0  0  2  0  0  0  0  0  0  0  0  0
   48.2665  -34.3346 -107.4893 C   0  0  0  0  0  0  0  0  0  0  0  0
   47.1393  -34.0468 -107.8625 O   0  0  0  0  0  0  0  0  0  0  0  0
   49.2075  -32.1003 -106.9670 C   0  0  0  0  0  0  0  0  0  0  0  0
   49.2664  -32.3687 -105.4699 C   0  0  0  0  0  0  0  0  0  0  0  0
   50.9272  -32.8884 -104.8908 S   0  0  2  0  0  0  0  0  0  0  0  0
   50.9560  -34.6846 -105.1947 C   0  0  0  0  0  0  0  0  0  0  0  0
   50.5107  -32.9038 -103.1486 C   0  0  0  0  0  0  0  0  0  0  0  0
   50.8986  -31.6436 -102.4218 C   0  0  1  0  0  0  0  0  0  0  0  0
   49.9099  -30.6422 -102.7165 O   0  0  0  0  0  0  0  0  0  0  0  0
   50.7107  -32.0145 -101.0059 C   0  0  1  0  0  0  0  0  0  0  0  0
   51.9645  -32.3917 -100.4391 O   0  0  0  0  0  0  0  0  0  0  0  0
   50.2392  -30.7310 -100.3956 C   0  0  1  0  0  0  0  0  0  0  0  0
   51.3648  -29.9250  -99.9898 O   0  0  0  0  0  0  0  0  0  0  0  0
   49.4357  -29.9945 -101.5091 C   0  0  2  0  0  0  0  0  0  0  0  0
   48.4563  -35.3981 -106.9257 O   0  0  0  0  0  0  0  0  0  0  0  0
   45.1119  -32.5143 -103.2849 N   0  0  0  0  0  0  0  0  0  0  0  0
   46.4003  -32.7226 -103.6516 C   0  0  0  0  0  0  0  0  0  0  0  0
   47.4181  -32.0380 -103.0891 N   0  0  0  0  0  0  0  0  0  0  0  0
   47.1770  -31.0574 -102.2037 C   0  0  0  0  0  0  0  0  0  0  0  0
   45.8166  -30.7735 -101.8149 C   0  0  0  0  0  0  0  0  0  0  0  0
   44.7751  -31.5588 -102.3929 C   0  0  0  0  0  0  0  0  0  0  0  0
   43.4530  -31.3471 -102.0583 N   0  0  0  0  0  0  0  0  0  0  0  0
   45.8552  -29.7630 -100.9384 N   0  0  0  0  0  0  0  0  0  0  0  0
   47.0917  -29.4023 -100.7643 C   0  0  0  0  0  0  0  0  0  0  0  0
   47.9539  -30.1693 -101.5126 N   0  0  0  0  0  0  0  0  0  0  0  0
  2  1  1  6  0  0  0
  2  3  1  0  0  0  0
  2  5  1  0  0  0  0
  3  4  1  0  0  0  0
  3 17  1  0  0  0  0
  5  6  1  0  0  0  0
  7  6  1  6  0  0  0
  7  8  1  0  0  0  0
  7  9  1  0  0  0  0
 10  9  1  6  0  0  0
 10 11  1  0  0  0  0
 10 12  1  0  0  0  0
 11 16  1  0  0  0  0
 12 13  1  1  0  0  0
 12 14  1  0  0  0  0
 14 15  1  6  0  0  0
 14 16  1  0  0  0  0
 16 27  1  1  0  0  0
 18 19  2  0  0  0  0
 18 23  1  0  0  0  0
 19 20  1  0  0  0  0
 20 21  2  0  0  0  0
 21 22  1  0  0  0  0
 21 27  1  0  0  0  0
 22 23  2  0  0  0  0
 22 25  1  0  0  0  0
 23 24  1  0  0  0  0
 25 26  2  0  0  0  0
 26 27  1  0  0  0  0
M  END
>  <CHROM.1>
-55.88826222,-174.07938187,66.46345126,-84.53063276,-96.85164074,78.81947461
18.89852285,48.67962939,-32.07491452,-103.61772902,1.44676254,0.09889113
-2.04063276

>  <Name>
ligand

>  <RI>
0

>  <Rbt.Current_Directory>
/home/itssahil/PROJECTS/Mol_Feturizer/Test_systems_manuscript/rnas/4l81

>  <Rbt.Executable>
rbdock ($Id: //depot/dev/client3/rdock/2013.1/src/exe/rbdock.cxx#4 $)

>  <Rbt.Library>
libRbt.so (2013.1, Build901 2013/11/27)

>  <Rbt.Parameter_File>
/export/apps/rDock/src/rDock_2013.1_src/data/scripts/dock_solv.prm

>  <Rbt.Receptor>
prm/pocket_docking_8.prm

>  <SCORE>
-15.2844

>  <SCORE.INTER>
-12.2926

>  <SCORE.INTER.CONST>
1

>  <SCORE.INTER.POLAR>
0

>  <SCORE.INTER.ROT>
7

>  <SCORE.INTER.SOLV>
17.978

>  <SCORE.INTER.VDW>
-22.4544

>  <SCORE.INTER.norm>
-0.455283

>  <SCORE.INTRA>
-2.99177

>  <SCORE.INTRA.DIHEDRAL>
-0.85624

>  <SCORE.INTRA.DIHEDRAL.0>
8.34559

>  <SCORE.INTRA.POLAR>
0

>  <SCORE.INTRA.POLAR.0>
0

>  <SCORE.INTRA.REPUL>
0

>  <SCORE.INTRA.REPUL.0>
0

>  <SCORE.INTRA.SOLV>
-0.948881

>  <SCORE.INTRA.SOLV.lig_0>
-48.829

>  <SCORE.INTRA.VDW>
-2.08921

>  <SCORE.INTRA.VDW.0>
-1.77092

>  <SCORE.INTRA.norm>
-0.110806

>  <SCORE.RESTR>
0

>  <SCORE.RESTR.CAVITY>
0

>  <SCORE.RESTR.norm>
0

>  <SCORE.SYSTEM>
0

>  <SCORE.SYSTEM.CONST>
0

>  <SCORE.SYSTEM.DIHEDRAL>
0

>  <SCORE.SYSTEM.SOLV>
0

>  <SCORE.SYSTEM.norm>
0

>  <SCORE.heavy>
27

>  <SCORE.norm>
-0.566089

>  <RMSD>
4.992

$$$$
ligand
 OpenBabel02271912153D
libRbt.so/2013.1/901 2013/11/27
 27 29  0  0  0  0  0  0  0  0999 V2000
   49.6093  -24.9298 -103.2542 N   0  0  0  0  0  0  0  0  0  0  0  0
   48.3962  -24.1800 -103.5990 C   0  0  2  0  0  0  0  0  0  0  0  0
   48.1870  -23.0674 -102.5934 C   0  0  0  0  0  0  0  0  0  0  0  0
   47.9121  -23.3319 -101.4327 O   0  0  0  0  0  0  0  0  0  0  0  0
   47.1589  -25.0879 -103.5986 C   0  0  0  0  0  0  0  0  0  0  0  0
   47.3422  -26.2532 -104.5605 C   0  0  0  0  0  0  0  0  0  0  0  0
   46.0311  -27.5272 -104.4153 S   0  0  2  0  0  0  0  0  0  0  0  0
   44.4810  -26.5728 -104.4921 C   0  0  0  0  0  0  0  0  0  0  0  0
   46.1602  -27.7129 -102.6383 C   0  0  0  0  0  0  0  0  0  0  0  0
   45.1062  -28.6092 -102.0446 C   0  0  1  0  0  0  0  0  0  0  0  0
   44.6932  -29.5381 -103.0612 O   0  0  0  0  0  0  0  0  0  0  0  0
   45.8664  -29.3885 -101.0483 C   0  0  1  0  0  0  0  0  0  0  0  0
   45.6988  -28.8073  -99.7562 O   0  0  0  0  0  0  0  0  0  0  0  0
   45.1914  -30.7241 -101.0996 C   0  0  1  0  0  0  0  0  0  0  0  0
   44.0654  -30.7523 -100.1980 O   0  0  0  0  0  0  0  0  0  0  0  0
   44.6982  -30.9012 -102.5671 C   0  0  2  0  0  0  0  0  0  0  0  0
   48.3235  -21.9028 -102.9249 O   0  0  0  0  0  0  0  0  0  0  0  0
   46.6118  -31.7124 -107.4536 N   0  0  0  0  0  0  0  0  0  0  0  0
   45.6865  -30.7996 -107.0681 C   0  0  0  0  0  0  0  0  0  0  0  0
   45.3147  -30.6671 -105.7777 N   0  0  0  0  0  0  0  0  0  0  0  0
   45.7889  -31.5025 -104.8392 C   0  0  0  0  0  0  0  0  0  0  0  0
   46.7455  -32.5166 -105.2124 C   0  0  0  0  0  0  0  0  0  0  0  0
   47.1528  -32.5856 -106.5779 C   0  0  0  0  0  0  0  0  0  0  0  0
   48.0714  -33.5245 -107.0015 N   0  0  0  0  0  0  0  0  0  0  0  0
   47.0471  -33.2063 -104.1060 N   0  0  0  0  0  0  0  0  0  0  0  0
   46.3684  -32.7224 -103.1087 C   0  0  0  0  0  0  0  0  0  0  0  0
   45.5800  -31.6646 -103.4976 N   0  0  0  0  0  0  0  0  0  0  0  0
  2  1  1  1  0  0  0
  2  3  1  0  0  0  0
  2  5  1  0  0  0  0
  3  4  1  0  0  0  0
  3 17  1  0  0  0  0
  5  6  1  0  0  0  0
  7  6  1  1  0  0  0
  7  8  1  0  0  0  0
  7  9  1  0  0  0  0
 10  9  1  6  0  0  0
 10 11  1  0  0  0  0
 10 12  1  0  0  0  0
 11 16  1  0  0  0  0
 12 13  1  1  0  0  0
 12 14  1  0  0  0  0
 14 15  1  1  0  0  0
 14 16  1  0  0  0  0
 16 27  1  6  0  0  0
 18 19  2  0  0  0  0
 18 23  1  0  0  0  0
 19 20  1  0  0  0  0
 20 21  2  0  0  0  0
 21 22  1  0  0  0  0
 21 27  1  0  0  0  0
 22 23  2  0  0  0  0
 22 25  1  0  0  0  0
 23 24  1  0  0  0  0
 25 26  2  0  0  0  0
 26 27  1  0  0  0  0
M  END
>  <CHROM.1>
-67.21128978,-57.17395024,170.54453586,50.05877475,173.69568523,26.65000972
-33.07281682,46.38792447,-28.72575779,-103.59133099,-1.14619859,-1.10381966
-2.50985520

>  <Name>
ligand

>  <RI>
0

>  <Rbt.Current_Directory>
/home/itssahil/PROJECTS/Mol_Feturizer/Test_systems_manuscript/rnas/4l81

>  <Rbt.Executable>
rbdock ($Id: //depot/dev/client3/rdock/2013.1/src/exe/rbdock.cxx#4 $)

>  <Rbt.Library>
libRbt.so (2013.1, Build901 2013/11/27)

>  <Rbt.Parameter_File>
/export/apps/rDock/src/rDock_2013.1_src/data/scripts/dock_solv.prm

>  <Rbt.Receptor>
prm/pocket_docking_5.prm

>  <SCORE>
-11.8858

>  <SCORE.INTER>
-12.0427

>  <SCORE.INTER.CONST>
1

>  <SCORE.INTER.POLAR>
0

>  <SCORE.INTER.ROT>
7

>  <SCORE.INTER.SOLV>
12.569

>  <SCORE.INTER.VDW>
-20.4848

>  <SCORE.INTER.norm>
-0.446026

>  <SCORE.INTRA>
0.156851

>  <SCORE.INTRA.DIHEDRAL>
-1.8636

>  <SCORE.INTRA.DIHEDRAL.0>
8.34559

>  <SCORE.INTRA.POLAR>
0

>  <SCORE.INTRA.POLAR.0>
0

>  <SCORE.INTRA.REPUL>
0

>  <SCORE.INTRA.REPUL.0>
0

>  <SCORE.INTRA.SOLV>
-0.25458

>  <SCORE.INTRA.SOLV.lig_0>
-48.829

>  <SCORE.INTRA.VDW>
1.21594

>  <SCORE.INTRA.VDW.0>
-1.77092

>  <SCORE.INTRA.norm>
0.00580929

>  <SCORE.RESTR>
0

>  <SCORE.RESTR.CAVITY>
0

>  <SCORE.RESTR.norm>
0

>  <SCORE.SYSTEM>
0

>  <SCORE.SYSTEM.CONST>
0

>  <SCORE.SYSTEM.DIHEDRAL>
0

>  <SCORE.SYSTEM.SOLV>
0

>  <SCORE.SYSTEM.norm>
0

>  <SCORE.heavy>
27

>  <SCORE.norm>
-0.440216

>  <RMSD>
4.995

$$$$
ligand
 OpenBabel02271912153D
libRbt.so/2013.1/901 2013/11/27
 27 29  0  0  0  0  0  0  0  0999 V2000
   44.8037  -30.4220  -99.9443 N   0  0  0  0  0  0  0  0  0  0  0  0
   44.5451  -30.0256 -101.3331 C   0  0  2  0  0  0  0  0  0  0  0  0
   43.2540  -30.6588 -101.8073 C   0  0  0  0  0  0  0  0  0  0  0  0
   42.5867  -30.1173 -102.6756 O   0  0  0  0  0  0  0  0  0  0  0  0
   45.6844  -30.4673 -102.2618 C   0  0  0  0  0  0  0  0  0  0  0  0
   45.4730  -29.9313 -103.6706 C   0  0  0  0  0  0  0  0  0  0  0  0
   45.3898  -28.1007 -103.7457 S   0  0  2  0  0  0  0  0  0  0  0  0
   44.1259  -27.7703 -105.0157 C   0  0  0  0  0  0  0  0  0  0  0  0
   46.8589  -27.8975 -104.7503 C   0  0  0  0  0  0  0  0  0  0  0  0
   47.7903  -26.8248 -104.2515 C   0  0  1  0  0  0  0  0  0  0  0  0
   47.9617  -27.0123 -102.8365 O   0  0  0  0  0  0  0  0  0  0  0  0
   49.0737  -27.1906 -104.8815 C   0  0  1  0  0  0  0  0  0  0  0  0
   49.2660  -26.4141 -106.0629 O   0  0  0  0  0  0  0  0  0  0  0  0
   50.0709  -26.7904 -103.8387 C   0  0  1  0  0  0  0  0  0  0  0  0
   50.4369  -25.4043 -104.0000 O   0  0  0  0  0  0  0  0  0  0  0  0
   49.3632  -26.9941 -102.4655 C   0  0  2  0  0  0  0  0  0  0  0  0
   42.8877  -31.7280 -101.3515 O   0  0  0  0  0  0  0  0  0  0  0  0
   51.5231  -31.8440 -102.3592 N   0  0  0  0  0  0  0  0  0  0  0  0
   51.5533  -30.9467 -103.3750 C   0  0  0  0  0  0  0  0  0  0  0  0
   50.9968  -29.7229 -103.2579 N   0  0  0  0  0  0  0  0  0  0  0  0
   50.3126  -29.3847 -102.1530 C   0  0  0  0  0  0  0  0  0  0  0  0
   50.2198  -30.3251 -101.0623 C   0  0  0  0  0  0  0  0  0  0  0  0
   50.8699  -31.5868 -101.2063 C   0  0  0  0  0  0  0  0  0  0  0  0
   50.8295  -32.5289 -100.1986 N   0  0  0  0  0  0  0  0  0  0  0  0
   49.4895  -29.7489 -100.1003 N   0  0  0  0  0  0  0  0  0  0  0  0
   49.1252  -28.5663 -100.4980 C   0  0  0  0  0  0  0  0  0  0  0  0
   49.6091  -28.2821 -101.7537 N   0  0  0  0  0  0  0  0  0  0  0  0
  2  1  1  1  0  0  0
  2  3  1  0  0  0  0
  2  5  1  0  0  0  0
  3  4  1  0  0  0  0
  3 17  1  0  0  0  0
  5  6  1  0  0  0  0
  7  6  1  6  0  0  0
  7  8  1  0  0  0  0
  7  9  1  0  0  0  0
 10  9  1  6  0  0  0
 10 11  1  0  0  0  0
 10 12  1  0  0  0  0
 11 16  1  0  0  0  0
 12 13  1  6  0  0  0
 12 14  1  0  0  0  0
 14 15  1  6  0  0  0
 14 16  1  0  0  0  0
 16 27  1  6  0  0  0
 18 19  2  0  0  0  0
 18 23  1  0  0  0  0
 19 20  1  0  0  0  0
 20 21  2  0  0  0  0
 21 22  1  0  0  0  0
 21 27  1  0  0  0  0
 22 23  2  0  0  0  0
 22 25  1  0  0  0  0
 23 24  1  0  0  0  0
 25 26  2  0  0  0  0
 26 27  1  0  0  0  0
M  END
>  <CHROM.1>
152.23020071,-174.34755539,59.40968103,-142.80805248,-133.72659229,47.15212306
108.87311410,47.72597154,-29.04537478,-102.72167183,-3.01271414,-0.05865238
-0.67457678

>  <Name>
ligand

>  <RI>
0

>  <Rbt.Current_Directory>
/home/itssahil/PROJECTS/Mol_Feturizer/Test_systems_manuscript/rnas/4l81

>  <Rbt.Executable>
rbdock ($Id: //depot/dev/client3/rdock/2013.1/src/exe/rbdock.cxx#4 $)

>  <Rbt.Library>
libRbt.so (2013.1, Build901 2013/11/27)

>  <Rbt.Parameter_File>
/export/apps/rDock/src/rDock_2013.1_src/data/scripts/dock_solv.prm

>  <Rbt.Receptor>
prm/pocket_docking_2.prm

>  <SCORE>
-4.99589

>  <SCORE.INTER>
-5.25087

>  <SCORE.INTER.CONST>
1

>  <SCORE.INTER.POLAR>
0

>  <SCORE.INTER.ROT>
7

>  <SCORE.INTER.SOLV>
24.7144

>  <SCORE.INTER.VDW>
-20.0054

>  <SCORE.INTER.norm>
-0.194477

>  <SCORE.INTRA>
-0.342725

>  <SCORE.INTRA.DIHEDRAL>
3.53427

>  <SCORE.INTRA.DIHEDRAL.0>
8.34559

>  <SCORE.INTRA.POLAR>
0

>  <SCORE.INTRA.POLAR.0>
0

>  <SCORE.INTRA.REPUL>
0

>  <SCORE.INTRA.REPUL.0>
0

>  <SCORE.INTRA.SOLV>
-1.07167

>  <SCORE.INTRA.SOLV.lig_0>
-48.829

>  <SCORE.INTRA.VDW>
-1.57402

>  <SCORE.INTRA.VDW.0>
-1.77092

>  <SCORE.INTRA.norm>
-0.0126935

>  <SCORE.RESTR>
0.597704

>  <SCORE.RESTR.CAVITY>
0.597704

>  <SCORE.RESTR.norm>
0.0221372

>  <SCORE.SYSTEM>
0

>  <SCORE.SYSTEM.CONST>
0

>  <SCORE.SYSTEM.DIHEDRAL>
0

>  <SCORE.SYSTEM.SOLV>
0

>  <SCORE.SYSTEM.norm>
0

>  <SCORE.heavy>
27

>  <SCORE.norm>
-0.185033

>  <RMSD>
5.006

$$$$
ligand
 OpenBabel02271912153D
libRbt.so/2013.1/901 2013/11/27
 27 29  0  0  0  0  0  0  0  0999 V2000
   48.2344  -24.7096 -107.6933 N   0  0  0  0  0  0  0  0  0  0  0  0
   48.1666  -26.1144 -108.1112 C   0  0  2  0  0  0  0  0  0  0  0  0
   47.6573  -26.1940 -109.5349 C   0  0  0  0  0  0  0  0  0  0  0  0
   46.8965  -25.3398 -109.9641 O   0  0  0  0  0  0  0  0  0  0  0  0
   47.2297  -26.9230 -107.2035 C   0  0  0  0  0  0  0  0  0  0  0  0
   47.8290  -27.0845 -105.8136 C   0  0  0  0  0  0  0  0  0  0  0  0
   46.7573  -28.0332 -104.6671 S   0  0  2  0  0  0  0  0  0  0  0  0
   45.6938  -26.7634 -103.9080 C   0  0  0  0  0  0  0  0  0  0  0  0
   47.9812  -28.1893 -103.3684 C   0  0  0  0  0  0  0  0  0  0  0  0
   47.5194  -29.0143 -102.1967 C   0  0  1  0  0  0  0  0  0  0  0  0
   46.9574  -30.2340 -102.7100 O   0  0  0  0  0  0  0  0  0  0  0  0
   48.7880  -29.3816 -101.5383 C   0  0  1  0  0  0  0  0  0  0  0  0
   49.0391  -28.4916 -100.4518 O   0  0  0  0  0  0  0  0  0  0  0  0
   48.4957  -30.7546 -101.0173 C   0  0  1  0  0  0  0  0  0  0  0  0
   47.8903  -30.6771  -99.7101 O   0  0  0  0  0  0  0  0  0  0  0  0
   47.4951  -31.3939 -102.0263 C   0  0  2  0  0  0  0  0  0  0  0  0
   48.0273  -27.0902 -110.2731 O   0  0  0  0  0  0  0  0  0  0  0  0
   51.6332  -33.9682 -104.1350 N   0  0  0  0  0  0  0  0  0  0  0  0
   51.6228  -33.1834 -103.0297 C   0  0  0  0  0  0  0  0  0  0  0  0
   50.4868  -32.6164 -102.5723 N   0  0  0  0  0  0  0  0  0  0  0  0
   49.3366  -32.7412 -103.2542 C   0  0  0  0  0  0  0  0  0  0  0  0
   49.3107  -33.5343 -104.4595 C   0  0  0  0  0  0  0  0  0  0  0  0
   50.5222  -34.1614 -104.8769 C   0  0  0  0  0  0  0  0  0  0  0  0
   50.5662  -34.9417 -106.0145 N   0  0  0  0  0  0  0  0  0  0  0  0
   48.0620  -33.4905 -104.9388 N   0  0  0  0  0  0  0  0  0  0  0  0
   47.3355  -32.7491 -104.1565 C   0  0  0  0  0  0  0  0  0  0  0  0
   48.0646  -32.2648 -103.0956 N   0  0  0  0  0  0  0  0  0  0  0  0
  2  1  1  1  0  0  0
  2  3  1  0  0  0  0
  2  5  1  0  0  0  0
  3  4  1  0  0  0  0
  3 17  1  0  0  0  0
  5  6  1  0  0  0  0
  7  6  1  6  0  0  0
  7  8  1  0  0  0  0
  7  9  1  0  0  0  0
 10  9  1  6  0  0  0
 10 11  1  0  0  0  0
 10 12  1  0  0  0  0
 11 16  1  0  0  0  0
 12 13  1  1  0  0  0
 12 14  1  0  0  0  0
 14 15  1  1  0  0  0
 14 16  1  0  0  0  0
 16 27  1  6  0  0  0
 18 19  2  0  0  0  0
 18 23  1  0  0  0  0
 19 20  1  0  0  0  0
 20 21  2  0  0  0  0
 21 22  1  0  0  0  0
 21 27  1  0  0  0  0
 22 23  2  0  0  0  0
 22 25  1  0  0  0  0
 23 24  1  0  0  0  0
 25 26  2  0  0  0  0
 26 27  1  0  0  0  0
M  END
>  <CHROM.1>
-29.59940237,-69.40442626,179.61358039,-88.80123050,-176.65290957,48.65873829
122.37277569,48.30552532,-29.80406698,-104.48890291,2.17356915,1.14017136
-1.23762747

>  <Name>
ligand

>  <RI>
0

>  <Rbt.Current_Directory>
/home/itssahil/PROJECTS/Mol_Feturizer/Test_systems_manuscript/rnas/4l81

>  <Rbt.Executable>
rbdock ($Id: //depot/dev/client3/rdock/2013.1/src/exe/rbdock.cxx#4 $)

>  <Rbt.Library>
libRbt.so (2013.1, Build901 2013/11/27)

>  <Rbt.Parameter_File>
/export/apps/rDock/src/rDock_2013.1_src/data/scripts/dock_solv.prm

>  <Rbt.Receptor>
prm/pocket_docking_6.prm

>  <SCORE>
-12.2484

>  <SCORE.INTER>
-9.60099

>  <SCORE.INTER.CONST>
1

>  <SCORE.INTER.POLAR>
0

>  <SCORE.INTER.ROT>
7

>  <SCORE.INTER.SOLV>
8.11857

>  <SCORE.INTER.VDW>
-17.3735

>  <SCORE.INTER.norm>
-0.355592

>  <SCORE.INTRA>
-2.64743

>  <SCORE.INTRA.DIHEDRAL>
-2.93794

>  <SCORE.INTRA.DIHEDRAL.0>
8.34559

>  <SCORE.INTRA.POLAR>
0

>  <SCORE.INTRA.POLAR.0>
0

>  <SCORE.INTRA.REPUL>
0

>  <SCORE.INTRA.REPUL.0>
0

>  <SCORE.INTRA.SOLV>
-0.669531

>  <SCORE.INTRA.SOLV.lig_0>
-48.829

>  <SCORE.INTRA.VDW>
-0.843692

>  <SCORE.INTRA.VDW.0>
-1.77092

>  <SCORE.INTRA.norm>
-0.0980529

>  <SCORE.RESTR>
0

>  <SCORE.RESTR.CAVITY>
0

>  <SCORE.RESTR.norm>
0

>  <SCORE.SYSTEM>
0

>  <SCORE.SYSTEM.CONST>
0

>  <SCORE.SYSTEM.DIHEDRAL>
0

>  <SCORE.SYSTEM.SOLV>
0

>  <SCORE.SYSTEM.norm>
0

>  <SCORE.heavy>
27

>  <SCORE.norm>
-0.453645

>  <RMSD>
5.006

$$$$
ligand
 OpenBabel02271912153D
libRbt.so/2013.1/901 2013/11/27
 27 29  0  0  0  0  0  0  0  0999 V2000
   48.5996  -28.4649 -107.0446 N   0  0  0  0  0  0  0  0  0  0  0  0
   48.5218  -27.0087 -106.8831 C   0  0  2  0  0  0  0  0  0  0  0  0
   49.8264  -26.4932 -106.3129 C   0  0  0  0  0  0  0  0  0  0  0  0
   50.5947  -27.2572 -105.7482 O   0  0  0  0  0  0  0  0  0  0  0  0
   47.3774  -26.6111 -105.9410 C   0  0  0  0  0  0  0  0  0  0  0  0
   47.5236  -27.2991 -104.5911 C   0  0  0  0  0  0  0  0  0  0  0  0
   46.8479  -26.3156 -103.1985 S   0  0  2  0  0  0  0  0  0  0  0  0
   48.0988  -25.0186 -102.9292 C   0  0  0  0  0  0  0  0  0  0  0  0
   47.3475  -27.4602 -101.9142 C   0  0  0  0  0  0  0  0  0  0  0  0
   46.2797  -28.4529 -101.5385 C   0  0  1  0  0  0  0  0  0  0  0  0
   46.3034  -29.5145 -102.5077 O   0  0  0  0  0  0  0  0  0  0  0  0
   46.7955  -29.0233 -100.2790 C   0  0  1  0  0  0  0  0  0  0  0  0
   46.1815  -28.3689  -99.1698 O   0  0  0  0  0  0  0  0  0  0  0  0
   46.3317  -30.4450 -100.3546 C   0  0  1  0  0  0  0  0  0  0  0  0
   44.9999  -30.5678  -99.8138 O   0  0  0  0  0  0  0  0  0  0  0  0
   46.3240  -30.8154 -101.8681 C   0  0  2  0  0  0  0  0  0  0  0  0
   50.1354  -25.3215 -106.4414 O   0  0  0  0  0  0  0  0  0  0  0  0
   51.4857  -32.0097 -101.5097 N   0  0  0  0  0  0  0  0  0  0  0  0
   50.7625  -31.2095 -100.6885 C   0  0  0  0  0  0  0  0  0  0  0  0
   49.4383  -31.0204 -100.8670 N   0  0  0  0  0  0  0  0  0  0  0  0
   48.8071  -31.5537 -101.9256 C   0  0  0  0  0  0  0  0  0  0  0  0
   49.5474  -32.3793 -102.8491 C   0  0  0  0  0  0  0  0  0  0  0  0
   50.9335  -32.5982 -102.5917 C   0  0  0  0  0  0  0  0  0  0  0  0
   51.6986  -33.3849 -103.4286 N   0  0  0  0  0  0  0  0  0  0  0  0
   48.6951  -32.7742 -103.8022 N   0  0  0  0  0  0  0  0  0  0  0  0
   47.5234  -32.2680 -103.5567 C   0  0  0  0  0  0  0  0  0  0  0  0
   47.5282  -31.5117 -102.4080 N   0  0  0  0  0  0  0  0  0  0  0  0
  2  1  1  1  0  0  0
  2  3  1  0  0  0  0
  2  5  1  0  0  0  0
  3  4  1  0  0  0  0
  3 17  1  0  0  0  0
  5  6  1  0  0  0  0
  7  6  1  6  0  0  0
  7  8  1  0  0  0  0
  7  9  1  0  0  0  0
 10  9  1  6  0  0  0
 10 11  1  0  0  0  0
 10 12  1  0  0  0  0
 11 16  1  0  0  0  0
 12 13  1  1  0  0  0
 12 14  1  0  0  0  0
 14 15  1  6  0  0  0
 14 16  1  0  0  0  0
 16 27  1  6  0  0  0
 18 19  2  0  0  0  0
 18 23  1  0  0  0  0
 19 20  1  0  0  0  0
 20 21  2  0  0  0  0
 21 22  1  0  0  0  0
 21 27  1  0  0  0  0
 22 23  2  0  0  0  0
 22 25  1  0  0  0  0
 23 24  1  0  0  0  0
 25 26  2  0  0  0  0
 26 27  1  0  0  0  0
M  END
>  <CHROM.1>
-18.89592691,56.08806927,149.43768001,-75.70058586,-93.61195003,81.39176419
91.77776482,48.20954945,-29.21486327,-102.98309627,-1.56748695,-0.75439314
2.50405498

>  <Name>
ligand

>  <RI>
0

>  <Rbt.Current_Directory>
/home/itssahil/PROJECTS/Mol_Feturizer/Test_systems_manuscript/rnas/4l81

>  <Rbt.Executable>
rbdock ($Id: //depot/dev/client3/rdock/2013.1/src/exe/rbdock.cxx#4 $)

>  <Rbt.Library>
libRbt.so (2013.1, Build901 2013/11/27)

>  <Rbt.Parameter_File>
/export/apps/rDock/src/rDock_2013.1_src/data/scripts/dock_solv.prm

>  <Rbt.Receptor>
prm/pocket_docking_3.prm

>  <SCORE>
-13.0911

>  <SCORE.INTER>
-12.1773

>  <SCORE.INTER.CONST>
1

>  <SCORE.INTER.POLAR>
0

>  <SCORE.INTER.ROT>
7

>  <SCORE.INTER.SOLV>
14.361

>  <SCORE.INTER.VDW>
-21.1719

>  <SCORE.INTER.norm>
-0.451013

>  <SCORE.INTRA>
-0.914798

>  <SCORE.INTRA.DIHEDRAL>
1.21654

>  <SCORE.INTRA.DIHEDRAL.0>
8.34559

>  <SCORE.INTRA.POLAR>
0

>  <SCORE.INTRA.POLAR.0>
0

>  <SCORE.INTRA.REPUL>
0

>  <SCORE.INTRA.REPUL.0>
0

>  <SCORE.INTRA.SOLV>
-0.567514

>  <SCORE.INTRA.SOLV.lig_0>
-48.829

>  <SCORE.INTRA.VDW>
-1.23931

>  <SCORE.INTRA.VDW.0>
-1.77092

>  <SCORE.INTRA.norm>
-0.0338814

>  <SCORE.RESTR>
0.00107959

>  <SCORE.RESTR.CAVITY>
0.00107959

>  <SCORE.RESTR.norm>
3.99847e-05

>  <SCORE.SYSTEM>
0

>  <SCORE.SYSTEM.CONST>
0

>  <SCORE.SYSTEM.DIHEDRAL>
0

>  <SCORE.SYSTEM.SOLV>
0

>  <SCORE.SYSTEM.norm>
0

>  <SCORE.heavy>
27

>  <SCORE.norm>
-0.484854

>  <RMSD>
5.007

$$$$
ligand
 OpenBabel02271912153D
libRbt.so/2013.1/901 2013/11/27
 27 29  0  0  0  0  0  0  0  0999 V2000
   45.4966  -31.2472 -103.1336 N   0  0  0  0  0  0  0  0  0  0  0  0
   44.6576  -30.2277 -102.4937 C   0  0  2  0  0  0  0  0  0  0  0  0
   44.0142  -30.8091 -101.2525 C   0  0  0  0  0  0  0  0  0  0  0  0
   43.0318  -31.5290 -101.3494 O   0  0  0  0  0  0  0  0  0  0  0  0
   43.5542  -29.7369 -103.4408 C   0  0  0  0  0  0  0  0  0  0  0  0
   44.1313  -28.8354 -104.5231 C   0  0  0  0  0  0  0  0  0  0  0  0
   44.8989  -27.3070 -103.8612 S   0  0  2  0  0  0  0  0  0  0  0  0
   45.1810  -26.2812 -105.3403 C   0  0  0  0  0  0  0  0  0  0  0  0
   46.5416  -27.9979 -103.6797 C   0  0  0  0  0  0  0  0  0  0  0  0
   47.5087  -27.0841 -102.9749 C   0  0  1  0  0  0  0  0  0  0  0  0
   48.0312  -27.7886 -101.8358 O   0  0  0  0  0  0  0  0  0  0  0  0
   48.6161  -26.9738 -103.9440 C   0  0  1  0  0  0  0  0  0  0  0  0
   48.4718  -25.7737 -104.7019 O   0  0  0  0  0  0  0  0  0  0  0  0
   49.8158  -26.8749 -103.0535 C   0  0  1  0  0  0  0  0  0  0  0  0
   50.0572  -25.5004 -102.6876 O   0  0  0  0  0  0  0  0  0  0  0  0
   49.4779  -27.7091 -101.7816 C   0  0  2  0  0  0  0  0  0  0  0  0
   44.4894  -30.5912 -100.1517 O   0  0  0  0  0  0  0  0  0  0  0  0
   50.6158  -32.2461 -104.2954 N   0  0  0  0  0  0  0  0  0  0  0  0
   50.1086  -31.1083 -104.8303 C   0  0  0  0  0  0  0  0  0  0  0  0
   49.9032  -30.0031 -104.0837 N   0  0  0  0  0  0  0  0  0  0  0  0
   50.1139  -30.0236 -102.7576 C   0  0  0  0  0  0  0  0  0  0  0  0
   50.6149  -31.2273 -102.1391 C   0  0  0  0  0  0  0  0  0  0  0  0
   50.8706  -32.3553 -102.9743 C   0  0  0  0  0  0  0  0  0  0  0  0
   51.3595  -33.5346 -102.4501 N   0  0  0  0  0  0  0  0  0  0  0  0
   50.7292  -30.9840 -100.8281 N   0  0  0  0  0  0  0  0  0  0  0  0
   50.3426  -29.7662 -100.5896 C   0  0  0  0  0  0  0  0  0  0  0  0
   49.9585  -29.1211 -101.7421 N   0  0  0  0  0  0  0  0  0  0  0  0
  2  1  1  6  0  0  0
  2  3  1  0  0  0  0
  2  5  1  0  0  0  0
  3  4  1  0  0  0  0
  3 17  1  0  0  0  0
  5  6  1  0  0  0  0
  7  6  1  6  0  0  0
  7  8  1  0  0  0  0
  7  9  1  0  0  0  0
 10  9  1  6  0  0  0
 10 11  1  0  0  0  0
 10 12  1  0  0  0  0
 11 16  1  0  0  0  0
 12 13  1  1  0  0  0
 12 14  1  0  0  0  0
 14 15  1  1  0  0  0
 14 16  1  0  0  0  0
 16 27  1  6  0  0  0
 18 19  2  0  0  0  0
 18 23  1  0  0  0  0
 19 20  1  0  0  0  0
 20 21  2  0  0  0  0
 21 22  1  0  0  0  0
 21 27  1  0  0  0  0
 22 23  2  0  0  0  0
 22 25  1  0  0  0  0
 23 24  1  0  0  0  0
 25 26  2  0  0  0  0
 26 27  1  0  0  0  0
M  END
>  <CHROM.1>
-79.23926411,-73.66516317,-62.38677344,-168.67743712,-172.77805366,123.35823845
80.32418967,47.65475173,-29.19860700,-102.89661964,2.85769941,0.01207963
-0.31621055

>  <Name>
ligand

>  <RI>
0

>  <Rbt.Current_Directory>
/home/itssahil/PROJECTS/Mol_Feturizer/Test_systems_manuscript/rnas/4l81

>  <Rbt.Executable>
rbdock ($Id: //depot/dev/client3/rdock/2013.1/src/exe/rbdock.cxx#4 $)

>  <Rbt.Library>
libRbt.so (2013.1, Build901 2013/11/27)

>  <Rbt.Parameter_File>
/export/apps/rDock/src/rDock_2013.1_src/data/scripts/dock_solv.prm

>  <Rbt.Receptor>
prm/pocket_docking_3.prm

>  <SCORE>
-11.0422

>  <SCORE.INTER>
-11.2977

>  <SCORE.INTER.CONST>
1

>  <SCORE.INTER.POLAR>
0

>  <SCORE.INTER.ROT>
7

>  <SCORE.INTER.SOLV>
14.1198

>  <SCORE.INTER.VDW>
-20.5051

>  <SCORE.INTER.norm>
-0.418434

>  <SCORE.INTRA>
0.255522

>  <SCORE.INTRA.DIHEDRAL>
2.3072

>  <SCORE.INTRA.DIHEDRAL.0>
8.34559

>  <SCORE.INTRA.POLAR>
0

>  <SCORE.INTRA.POLAR.0>
0

>  <SCORE.INTRA.REPUL>
0

>  <SCORE.INTRA.REPUL.0>
0

>  <SCORE.INTRA.SOLV>
0.844558

>  <SCORE.INTRA.SOLV.lig_0>
-48.829

>  <SCORE.INTRA.VDW>
-1.32036

>  <SCORE.INTRA.VDW.0>
-1.77092

>  <SCORE.INTRA.norm>
0.00946377

>  <SCORE.RESTR>
0

>  <SCORE.RESTR.CAVITY>
0

>  <SCORE.RESTR.norm>
0

>  <SCORE.SYSTEM>
0

>  <SCORE.SYSTEM.CONST>
0

>  <SCORE.SYSTEM.DIHEDRAL>
0

>  <SCORE.SYSTEM.SOLV>
0

>  <SCORE.SYSTEM.norm>
0

>  <SCORE.heavy>
27

>  <SCORE.norm>
-0.40897

>  <RMSD>
5.009

$$$$
ligand
 OpenBabel02271912153D
libRbt.so/2013.1/901 2013/11/27
 27 29  0  0  0  0  0  0  0  0999 V2000
   45.9479  -26.5969 -103.1512 N   0  0  0  0  0  0  0  0  0  0  0  0
   45.9238  -27.3098 -104.4333 C   0  0  2  0  0  0  0  0  0  0  0  0
   46.2842  -26.3531 -105.5503 C   0  0  0  0  0  0  0  0  0  0  0  0
   46.5534  -26.7807 -106.6627 O   0  0  0  0  0  0  0  0  0  0  0  0
   44.5372  -27.9035 -104.7169 C   0  0  0  0  0  0  0  0  0  0  0  0
   44.1023  -28.8265 -103.5874 C   0  0  0  0  0  0  0  0  0  0  0  0
   45.1581  -30.3168 -103.4209 S   0  0  2  0  0  0  0  0  0  0  0  0
   44.0958  -31.5123 -102.5480 C   0  0  0  0  0  0  0  0  0  0  0  0
   46.1040  -29.7092 -102.0264 C   0  0  0  0  0  0  0  0  0  0  0  0
   47.4589  -30.3509 -101.8875 C   0  0  1  0  0  0  0  0  0  0  0  0
   48.2656  -29.9233 -102.9981 O   0  0  0  0  0  0  0  0  0  0  0  0
   48.0102  -29.6892 -100.6893 C   0  0  1  0  0  0  0  0  0  0  0  0
   47.8111  -30.5217  -99.5479 O   0  0  0  0  0  0  0  0  0  0  0  0
   49.4702  -29.6032 -101.0108 C   0  0  1  0  0  0  0  0  0  0  0  0
   50.1461  -30.8103 -100.6017 O   0  0  0  0  0  0  0  0  0  0  0  0
   49.5616  -29.4447 -102.5582 C   0  0  2  0  0  0  0  0  0  0  0  0
   46.2763  -25.1498 -105.3582 O   0  0  0  0  0  0  0  0  0  0  0  0
   49.5659  -26.1070 -106.6884 N   0  0  0  0  0  0  0  0  0  0  0  0
   49.4298  -27.4556 -106.7143 C   0  0  0  0  0  0  0  0  0  0  0  0
   49.4035  -28.1884 -105.5814 N   0  0  0  0  0  0  0  0  0  0  0  0
   49.6017  -27.6088 -104.3863 C   0  0  0  0  0  0  0  0  0  0  0  0
   49.7921  -26.1800 -104.3154 C   0  0  0  0  0  0  0  0  0  0  0  0
   49.7574  -25.4367 -105.5326 C   0  0  0  0  0  0  0  0  0  0  0  0
   49.9225  -24.0665 -105.5362 N   0  0  0  0  0  0  0  0  0  0  0  0
   49.9709  -25.8653 -103.0271 N   0  0  0  0  0  0  0  0  0  0  0  0
   49.9175  -26.9518 -102.3157 C   0  0  0  0  0  0  0  0  0  0  0  0
   49.6845  -28.0590 -103.0977 N   0  0  0  0  0  0  0  0  0  0  0  0
  2  1  1  1  0  0  0
  2  3  1  0  0  0  0
  2  5  1  0  0  0  0
  3  4  1  0  0  0  0
  3 17  1  0  0  0  0
  5  6  1  0  0  0  0
  7  6  1  1  0  0  0
  7  8  1  0  0  0  0
  7  9  1  0  0  0  0
 10  9  1  6  0  0  0
 10 11  1  0  0  0  0
 10 12  1  0  0  0  0
 11 16  1  0  0  0  0
 12 13  1  1  0  0  0
 12 14  1  0  0  0  0
 14 15  1  6  0  0  0
 14 16  1  0  0  0  0
 16 27  1  1  0  0  0
 18 19  2  0  0  0  0
 18 23  1  0  0  0  0
 19 20  1  0  0  0  0
 20 21  2  0  0  0  0
 21 22  1  0  0  0  0
 21 27  1  0  0  0  0
 22 23  2  0  0  0  0
 22 25  1  0  0  0  0
 23 24  1  0  0  0  0
 25 26  2  0  0  0  0
 26 27  1  0  0  0  0
M  END
>  <CHROM.1>
167.10716149,-56.64289272,-64.96330159,-157.69652561,-156.11530442,67.90880773
-56.75839473,47.70071259,-28.18343269,-103.58305519,1.22735805,-0.27446045
-0.80141188

>  <Name>
ligand

>  <RI>
0

>  <Rbt.Current_Directory>
/home/itssahil/PROJECTS/Mol_Feturizer/Test_systems_manuscript/rnas/4l81

>  <Rbt.Executable>
rbdock ($Id: //depot/dev/client3/rdock/2013.1/src/exe/rbdock.cxx#4 $)

>  <Rbt.Library>
libRbt.so (2013.1, Build901 2013/11/27)

>  <Rbt.Parameter_File>
/export/apps/rDock/src/rDock_2013.1_src/data/scripts/dock_solv.prm

>  <Rbt.Receptor>
prm/pocket_docking_3.prm

>  <SCORE>
-10.7906

>  <SCORE.INTER>
-8.23217

>  <SCORE.INTER.CONST>
1

>  <SCORE.INTER.POLAR>
0

>  <SCORE.INTER.ROT>
7

>  <SCORE.INTER.SOLV>
10.7159

>  <SCORE.INTER.VDW>
-17.3268

>  <SCORE.INTER.norm>
-0.304895

>  <SCORE.INTRA>
-2.55843

>  <SCORE.INTRA.DIHEDRAL>
-0.0768612

>  <SCORE.INTRA.DIHEDRAL.0>
8.34559

>  <SCORE.INTRA.POLAR>
0

>  <SCORE.INTRA.POLAR.0>
0

>  <SCORE.INTRA.REPUL>
0

>  <SCORE.INTRA.REPUL.0>
0

>  <SCORE.INTRA.SOLV>
1.79799

>  <SCORE.INTRA.SOLV.lig_0>
-48.829

>  <SCORE.INTRA.VDW>
-3.41899

>  <SCORE.INTRA.VDW.0>
-1.77092

>  <SCORE.INTRA.norm>
-0.0947567

>  <SCORE.RESTR>
0

>  <SCORE.RESTR.CAVITY>
0

>  <SCORE.RESTR.norm>
0

>  <SCORE.SYSTEM>
0

>  <SCORE.SYSTEM.CONST>
0

>  <SCORE.SYSTEM.DIHEDRAL>
0

>  <SCORE.SYSTEM.SOLV>
0

>  <SCORE.SYSTEM.norm>
0

>  <SCORE.heavy>
27

>  <SCORE.norm>
-0.399652

>  <RMSD>
5.023

$$$$
ligand
 OpenBabel02271912153D
libRbt.so/2013.1/901 2013/11/27
 27 29  0  0  0  0  0  0  0  0999 V2000
   43.5871  -28.6105 -104.8269 N   0  0  0  0  0  0  0  0  0  0  0  0
   44.9851  -28.1920 -104.6751 C   0  0  2  0  0  0  0  0  0  0  0  0
   45.0985  -26.7048 -104.9360 C   0  0  0  0  0  0  0  0  0  0  0  0
   45.0273  -25.9113 -104.0097 O   0  0  0  0  0  0  0  0  0  0  0  0
   45.9015  -28.9385 -105.6541 C   0  0  0  0  0  0  0  0  0  0  0  0
   45.8081  -30.4430 -105.4429 C   0  0  0  0  0  0  0  0  0  0  0  0
   46.8055  -31.0398 -104.0243 S   0  0  2  0  0  0  0  0  0  0  0  0
   47.5941  -32.5585 -104.6499 C   0  0  0  0  0  0  0  0  0  0  0  0
   45.4332  -31.7780 -103.1407 C   0  0  0  0  0  0  0  0  0  0  0  0
   45.1864  -31.1684 -101.7864 C   0  0  1  0  0  0  0  0  0  0  0  0
   46.4632  -30.9372 -101.1673 O   0  0  0  0  0  0  0  0  0  0  0  0
   44.6371  -29.8408 -102.1232 C   0  0  1  0  0  0  0  0  0  0  0  0
   43.2127  -29.8797 -102.0529 O   0  0  0  0  0  0  0  0  0  0  0  0
   45.1797  -28.9789 -101.0255 C   0  0  1  0  0  0  0  0  0  0  0  0
   44.2979  -29.0057  -99.8839 O   0  0  0  0  0  0  0  0  0  0  0  0
   46.5608  -29.5897 -100.6412 C   0  0  2  0  0  0  0  0  0  0  0  0
   45.2945  -26.2898 -106.0648 O   0  0  0  0  0  0  0  0  0  0  0  0
   48.8466  -25.6654 -103.3931 N   0  0  0  0  0  0  0  0  0  0  0  0
   47.5414  -25.7813 -103.0456 C   0  0  0  0  0  0  0  0  0  0  0  0
   47.0935  -26.8154 -102.3033 N   0  0  0  0  0  0  0  0  0  0  0  0
   47.9179  -27.8173 -101.9570 C   0  0  0  0  0  0  0  0  0  0  0  0
   49.3075  -27.7555 -102.3411 C   0  0  0  0  0  0  0  0  0  0  0  0
   49.7505  -26.6171 -103.0781 C   0  0  0  0  0  0  0  0  0  0  0  0
   51.0679  -26.4892 -103.4691 N   0  0  0  0  0  0  0  0  0  0  0  0
   49.8978  -28.8652 -101.8819 N   0  0  0  0  0  0  0  0  0  0  0  0
   49.0111  -29.5927 -101.2702 C   0  0  0  0  0  0  0  0  0  0  0  0
   47.7725  -28.9949 -101.2770 N   0  0  0  0  0  0  0  0  0  0  0  0
  2  1  1  6  0  0  0
  2  3  1  0  0  0  0
  2  5  1  0  0  0  0
  3  4  1  0  0  0  0
  3 17  1  0  0  0  0
  5  6  1  0  0  0  0
  7  6  1  6  0  0  0
  7  8  1  0  0  0  0
  7  9  1  0  0  0  0
 10  9  1  6  0  0  0
 10 11  1  0  0  0  0
 10 12  1  0  0  0  0
 11 16  1  0  0  0  0
 12 13  1  1  0  0  0
 12 14  1  0  0  0  0
 14 15  1  1  0  0  0
 14 16  1  0  0  0  0
 16 27  1  6  0  0  0
 18 19  2  0  0  0  0
 18 23  1  0  0  0  0
 19 20  1  0  0  0  0
 20 21  2  0  0  0  0
 21 22  1  0  0  0  0
 21 27  1  0  0  0  0
 22 23  2  0  0  0  0
 22 25  1  0  0  0  0
 23 24  1  0  0  0  0
 25 26  2  0  0  0  0
 26 27  1  0  0  0  0
M  END
>  <CHROM.1>
92.83441834,-58.44446350,-79.85713772,-137.23159286,-118.52981969,-40.98529295
127.88789949,46.57644705,-28.81788231,-103.03018519,2.46890439,0.43384064
2.59123879

>  <Name>
ligand

>  <RI>
0

>  <Rbt.Current_Directory>
/home/itssahil/PROJECTS/Mol_Feturizer/Test_systems_manuscript/rnas/4l81

>  <Rbt.Executable>
rbdock ($Id: //depot/dev/client3/rdock/2013.1/src/exe/rbdock.cxx#4 $)

>  <Rbt.Library>
libRbt.so (2013.1, Build901 2013/11/27)

>  <Rbt.Parameter_File>
/export/apps/rDock/src/rDock_2013.1_src/data/scripts/dock_solv.prm

>  <Rbt.Receptor>
prm/pocket_docking_2.prm

>  <SCORE>
-0.819186

>  <SCORE.INTER>
-4.15391

>  <SCORE.INTER.CONST>
1

>  <SCORE.INTER.POLAR>
0

>  <SCORE.INTER.ROT>
7

>  <SCORE.INTER.SOLV>
18.7806

>  <SCORE.INTER.VDW>
-17.2961

>  <SCORE.INTER.norm>
-0.153849

>  <SCORE.INTRA>
1.45486

>  <SCORE.INTRA.DIHEDRAL>
5.78064

>  <SCORE.INTRA.DIHEDRAL.0>
8.34559

>  <SCORE.INTRA.POLAR>
0

>  <SCORE.INTRA.POLAR.0>
0

>  <SCORE.INTRA.REPUL>
0

>  <SCORE.INTRA.REPUL.0>
0

>  <SCORE.INTRA.SOLV>
3.17361

>  <SCORE.INTRA.SOLV.lig_0>
-48.829

>  <SCORE.INTRA.VDW>
-3.02226

>  <SCORE.INTRA.VDW.0>
-1.77092

>  <SCORE.INTRA.norm>
0.0538837

>  <SCORE.RESTR>
1.87986

>  <SCORE.RESTR.CAVITY>
1.87986

>  <SCORE.RESTR.norm>
0.0696246

>  <SCORE.SYSTEM>
0

>  <SCORE.SYSTEM.CONST>
0

>  <SCORE.SYSTEM.DIHEDRAL>
0

>  <SCORE.SYSTEM.SOLV>
0

>  <SCORE.SYSTEM.norm>
0

>  <SCORE.heavy>
27

>  <SCORE.norm>
-0.0303402

>  <RMSD>
5.031

$$$$
ligand
 OpenBabel02271912153D
libRbt.so/2013.1/901 2013/11/27
 27 29  0  0  0  0  0  0  0  0999 V2000
   48.4735  -24.0120 -102.4221 N   0  0  0  0  0  0  0  0  0  0  0  0
   48.4625  -24.7081 -103.7136 C   0  0  2  0  0  0  0  0  0  0  0  0
   47.9973  -23.7572 -104.7962 C   0  0  0  0  0  0  0  0  0  0  0  0
   48.3964  -23.8895 -105.9433 O   0  0  0  0  0  0  0  0  0  0  0  0
   47.5261  -25.9237 -103.6853 C   0  0  0  0  0  0  0  0  0  0  0  0
   48.0040  -26.9517 -102.6695 C   0  0  0  0  0  0  0  0  0  0  0  0
   47.1266  -28.5573 -102.7943 S   0  0  2  0  0  0  0  0  0  0  0  0
   47.1843  -28.9522 -104.5720 C   0  0  0  0  0  0  0  0  0  0  0  0
   45.4766  -27.8646 -102.7127 C   0  0  0  0  0  0  0  0  0  0  0  0
   44.3921  -28.8985 -102.5656 C   0  0  1  0  0  0  0  0  0  0  0  0
   44.5259  -29.8354 -103.6478 O   0  0  0  0  0  0  0  0  0  0  0  0
   44.7909  -29.6151 -101.3387 C   0  0  1  0  0  0  0  0  0  0  0  0
   44.0621  -29.1011 -100.2252 O   0  0  0  0  0  0  0  0  0  0  0  0
   44.3578  -31.0187 -101.6293 C   0  0  1  0  0  0  0  0  0  0  0  0
   42.9816  -31.2098 -101.2411 O   0  0  0  0  0  0  0  0  0  0  0  0
   44.5032  -31.2040 -103.1696 C   0  0  2  0  0  0  0  0  0  0  0  0
   47.1972  -22.8745 -104.5397 O   0  0  0  0  0  0  0  0  0  0  0  0
   47.4524  -33.0176 -107.1960 N   0  0  0  0  0  0  0  0  0  0  0  0
   46.1963  -32.5107 -107.2529 C   0  0  0  0  0  0  0  0  0  0  0  0
   45.5695  -32.0419 -106.1536 N   0  0  0  0  0  0  0  0  0  0  0  0
   46.1416  -32.1448 -104.9429 C   0  0  0  0  0  0  0  0  0  0  0  0
   47.4620  -32.7160 -104.8303 C   0  0  0  0  0  0  0  0  0  0  0  0
   48.1109  -33.1483 -106.0250 C   0  0  0  0  0  0  0  0  0  0  0  0
   49.3779  -33.6946 -105.9908 N   0  0  0  0  0  0  0  0  0  0  0  0
   47.7913  -32.7059 -103.5332 N   0  0  0  0  0  0  0  0  0  0  0  0
   46.8076  -32.1983 -102.8520 C   0  0  0  0  0  0  0  0  0  0  0  0
   45.7645  -31.8265 -103.6676 N   0  0  0  0  0  0  0  0  0  0  0  0
  2  1  1  1  0  0  0
  2  3  1  0  0  0  0
  2  5  1  0  0  0  0
  3  4  1  0  0  0  0
  3 17  1  0  0  0  0
  5  6  1  0  0  0  0
  7  6  1  6  0  0  0
  7  8  1  0  0  0  0
  7  9  1  0  0  0  0
 10  9  1  6  0  0  0
 10 11  1  0  0  0  0
 10 12  1  0  0  0  0
 11 16  1  0  0  0  0
 12 13  1  1  0  0  0
 12 14  1  0  0  0  0
 14 15  1  6  0  0  0
 14 16  1  0  0  0  0
 16 27  1  1  0  0  0
 18 19  2  0  0  0  0
 18 23  1  0  0  0  0
 19 20  1  0  0  0  0
 20 21  2  0  0  0  0
 21 22  1  0  0  0  0
 21 27  1  0  0  0  0
 22 23  2  0  0  0  0
 22 25  1  0  0  0  0
 23 24  1  0  0  0  0
 25 26  2  0  0  0  0
 26 27  1  0  0  0  0
M  END
>  <CHROM.1>
150.28102129,-62.72464573,-169.28861782,48.53761851,-170.83636375,-55.33763355
-68.91714203,46.52245338,-29.28110317,-103.76849069,-1.32566894,-0.84214260
-2.85824971

>  <Name>
ligand

>  <RI>
0

>  <Rbt.Current_Directory>
/home/itssahil/PROJECTS/Mol_Feturizer/Test_systems_manuscript/rnas/4l81

>  <Rbt.Executable>
rbdock ($Id: //depot/dev/client3/rdock/2013.1/src/exe/rbdock.cxx#4 $)

>  <Rbt.Library>
libRbt.so (2013.1, Build901 2013/11/27)

>  <Rbt.Parameter_File>
/export/apps/rDock/src/rDock_2013.1_src/data/scripts/dock_solv.prm

>  <Rbt.Receptor>
prm/pocket_docking_7.prm

>  <SCORE>
-10.8019

>  <SCORE.INTER>
-9.39403

>  <SCORE.INTER.CONST>
1

>  <SCORE.INTER.POLAR>
0

>  <SCORE.INTER.ROT>
7

>  <SCORE.INTER.SOLV>
12.1894

>  <SCORE.INTER.VDW>
-18.5925

>  <SCORE.INTER.norm>
-0.347927

>  <SCORE.INTRA>
-1.40782

>  <SCORE.INTRA.DIHEDRAL>
-3.81403

>  <SCORE.INTRA.DIHEDRAL.0>
8.34559

>  <SCORE.INTRA.POLAR>
0

>  <SCORE.INTRA.POLAR.0>
0

>  <SCORE.INTRA.REPUL>
0

>  <SCORE.INTRA.REPUL.0>
0

>  <SCORE.INTRA.SOLV>
-0.306487

>  <SCORE.INTRA.SOLV.lig_0>
-48.829

>  <SCORE.INTRA.VDW>
0.652433

>  <SCORE.INTRA.VDW.0>
-1.77092

>  <SCORE.INTRA.norm>
-0.0521417

>  <SCORE.RESTR>
0

>  <SCORE.RESTR.CAVITY>
0

>  <SCORE.RESTR.norm>
0

>  <SCORE.SYSTEM>
0

>  <SCORE.SYSTEM.CONST>
0

>  <SCORE.SYSTEM.DIHEDRAL>
0

>  <SCORE.SYSTEM.SOLV>
0

>  <SCORE.SYSTEM.norm>
0

>  <SCORE.heavy>
27

>  <SCORE.norm>
-0.400069

>  <RMSD>
5.035

$$$$
ligand
 OpenBabel02271912153D
libRbt.so/2013.1/901 2013/11/27
 27 29  0  0  0  0  0  0  0  0999 V2000
   47.7002  -25.6890 -107.8274 N   0  0  0  0  0  0  0  0  0  0  0  0
   46.3928  -25.8080 -107.1723 C   0  0  2  0  0  0  0  0  0  0  0  0
   46.0010  -24.4709 -106.5796 C   0  0  0  0  0  0  0  0  0  0  0  0
   45.1754  -24.4153 -105.6807 O   0  0  0  0  0  0  0  0  0  0  0  0
   46.4220  -26.8573 -106.0526 C   0  0  0  0  0  0  0  0  0  0  0  0
   46.3553  -28.2649 -106.6280 C   0  0  0  0  0  0  0  0  0  0  0  0
   46.1846  -29.5654 -105.3462 S   0  0  2  0  0  0  0  0  0  0  0  0
   45.6571  -31.0373 -106.2815 C   0  0  0  0  0  0  0  0  0  0  0  0
   44.5849  -29.0203 -104.7525 C   0  0  0  0  0  0  0  0  0  0  0  0
   44.3103  -29.3952 -103.3204 C   0  0  1  0  0  0  0  0  0  0  0  0
   44.5950  -30.7962 -103.1686 O   0  0  0  0  0  0  0  0  0  0  0  0
   45.3662  -28.6708 -102.5870 C   0  0  1  0  0  0  0  0  0  0  0  0
   44.8401  -27.4485 -102.0726 O   0  0  0  0  0  0  0  0  0  0  0  0
   45.6778  -29.6072 -101.4609 C   0  0  1  0  0  0  0  0  0  0  0  0
   44.7960  -29.3621 -100.3457 O   0  0  0  0  0  0  0  0  0  0  0  0
   45.4404  -31.0433 -102.0169 C   0  0  2  0  0  0  0  0  0  0  0  0
   46.5291  -23.4445 -106.9705 O   0  0  0  0  0  0  0  0  0  0  0  0
   50.6806  -31.9024 -102.0079 N   0  0  0  0  0  0  0  0  0  0  0  0
   49.9912  -30.9847 -101.2866 C   0  0  0  0  0  0  0  0  0  0  0  0
   48.6461  -30.8967 -101.3499 N   0  0  0  0  0  0  0  0  0  0  0  0
   47.9492  -31.6638 -102.2039 C   0  0  0  0  0  0  0  0  0  0  0  0
   48.6469  -32.6266 -103.0216 C   0  0  0  0  0  0  0  0  0  0  0  0
   50.0634  -32.7247 -102.8826 C   0  0  0  0  0  0  0  0  0  0  0  0
   50.7919  -33.6305 -103.6265 N   0  0  0  0  0  0  0  0  0  0  0  0
   47.7318  -33.2469 -103.7757 N   0  0  0  0  0  0  0  0  0  0  0  0
   46.5592  -32.7549 -103.5063 C   0  0  0  0  0  0  0  0  0  0  0  0
   46.6284  -31.7798 -102.5388 N   0  0  0  0  0  0  0  0  0  0  0  0
  2  1  1  1  0  0  0
  2  3  1  0  0  0  0
  2  5  1  0  0  0  0
  3  4  1  0  0  0  0
  3 17  1  0  0  0  0
  5  6  1  0  0  0  0
  7  6  1  6  0  0  0
  7  8  1  0  0  0  0
  7  9  1  0  0  0  0
 10  9  1  6  0  0  0
 10 11  1  0  0  0  0
 10 12  1  0  0  0  0
 11 16  1  0  0  0  0
 12 13  1  1  0  0  0
 12 14  1  0  0  0  0
 14 15  1  1  0  0  0
 14 16  1  0  0  0  0
 16 27  1  6  0  0  0
 18 19  2  0  0  0  0
 18 23  1  0  0  0  0
 19 20  1  0  0  0  0
 20 21  2  0  0  0  0
 21 22  1  0  0  0  0
 21 27  1  0  0  0  0
 22 23  2  0  0  0  0
 22 25  1  0  0  0  0
 23 24  1  0  0  0  0
 25 26  2  0  0  0  0
 26 27  1  0  0  0  0
M  END
>  <CHROM.1>
-158.70642958,-77.77997668,-173.13895436,164.39493220,-153.96065785,-49.83978707
140.47513511,46.70563946,-29.43267855,-103.96446549,-1.93925687,-0.58357394
2.40149280

>  <Name>
ligand

>  <RI>
0

>  <Rbt.Current_Directory>
/home/itssahil/PROJECTS/Mol_Feturizer/Test_systems_manuscript/rnas/4l81

>  <Rbt.Executable>
rbdock ($Id: //depot/dev/client3/rdock/2013.1/src/exe/rbdock.cxx#4 $)

>  <Rbt.Library>
libRbt.so (2013.1, Build901 2013/11/27)

>  <Rbt.Parameter_File>
/export/apps/rDock/src/rDock_2013.1_src/data/scripts/dock_solv.prm

>  <Rbt.Receptor>
prm/pocket_docking_4.prm

>  <SCORE>
-11.4727

>  <SCORE.INTER>
-10.4856

>  <SCORE.INTER.CONST>
1

>  <SCORE.INTER.POLAR>
0

>  <SCORE.INTER.ROT>
7

>  <SCORE.INTER.SOLV>
12.4318

>  <SCORE.INTER.VDW>
-19.401

>  <SCORE.INTER.norm>
-0.388357

>  <SCORE.INTRA>
-0.987033

>  <SCORE.INTRA.DIHEDRAL>
-0.561266

>  <SCORE.INTRA.DIHEDRAL.0>
8.34559

>  <SCORE.INTRA.POLAR>
0

>  <SCORE.INTRA.POLAR.0>
0

>  <SCORE.INTRA.REPUL>
0

>  <SCORE.INTRA.REPUL.0>
0

>  <SCORE.INTRA.SOLV>
-0.410525

>  <SCORE.INTRA.SOLV.lig_0>
-48.829

>  <SCORE.INTRA.VDW>
-0.501137

>  <SCORE.INTRA.VDW.0>
-1.77092

>  <SCORE.INTRA.norm>
-0.0365568

>  <SCORE.RESTR>
0

>  <SCORE.RESTR.CAVITY>
0

>  <SCORE.RESTR.norm>
0

>  <SCORE.SYSTEM>
0

>  <SCORE.SYSTEM.CONST>
0

>  <SCORE.SYSTEM.DIHEDRAL>
0

>  <SCORE.SYSTEM.SOLV>
0

>  <SCORE.SYSTEM.norm>
0

>  <SCORE.heavy>
27

>  <SCORE.norm>
-0.424913

>  <RMSD>
5.039

$$$$
ligand
 OpenBabel02271912153D
libRbt.so/2013.1/901 2013/11/27
 27 29  0  0  0  0  0  0  0  0999 V2000
   48.3005  -26.3545 -106.3814 N   0  0  0  0  0  0  0  0  0  0  0  0
   49.2085  -25.3274 -105.8585 C   0  0  2  0  0  0  0  0  0  0  0  0
   50.5744  -25.9352 -105.6187 C   0  0  0  0  0  0  0  0  0  0  0  0
   51.5005  -25.2348 -105.2383 O   0  0  0  0  0  0  0  0  0  0  0  0
   48.6882  -24.7406 -104.5392 C   0  0  0  0  0  0  0  0  0  0  0  0
   48.6628  -25.8013 -103.4478 C   0  0  0  0  0  0  0  0  0  0  0  0
   47.3582  -27.0662 -103.6955 S   0  0  2  0  0  0  0  0  0  0  0  0
   45.8037  -26.1246 -103.5672 C   0  0  0  0  0  0  0  0  0  0  0  0
   47.4288  -27.7223 -102.0301 C   0  0  0  0  0  0  0  0  0  0  0  0
   46.2546  -28.5939 -101.6721 C   0  0  1  0  0  0  0  0  0  0  0  0
   46.1578  -29.6323 -102.6617 O   0  0  0  0  0  0  0  0  0  0  0  0
   46.7011  -29.2437 -100.4246 C   0  0  1  0  0  0  0  0  0  0  0  0
   46.1648  -28.5453  -99.3021 O   0  0  0  0  0  0  0  0  0  0  0  0
   46.0783  -30.6016 -100.5270 C   0  0  1  0  0  0  0  0  0  0  0  0
   44.7407  -30.5823  -99.9867 O   0  0  0  0  0  0  0  0  0  0  0  0
   46.0295  -30.9393 -102.0474 C   0  0  2  0  0  0  0  0  0  0  0  0
   50.7527  -27.1310 -105.7708 O   0  0  0  0  0  0  0  0  0  0  0  0
   51.1709  -32.2670 -102.0876 N   0  0  0  0  0  0  0  0  0  0  0  0
   50.5662  -31.3215 -101.3271 C   0  0  0  0  0  0  0  0  0  0  0  0
   49.2346  -31.1101 -101.3832 N   0  0  0  0  0  0  0  0  0  0  0  0
   48.4724  -31.7752 -102.2665 C   0  0  0  0  0  0  0  0  0  0  0  0
   49.0814  -32.7622 -103.1252 C   0  0  0  0  0  0  0  0  0  0  0  0
   50.4831  -32.9932 -102.9940 C   0  0  0  0  0  0  0  0  0  0  0  0
   51.1278  -33.9294 -103.7767 N   0  0  0  0  0  0  0  0  0  0  0  0
   48.1149  -33.2656 -103.9019 N   0  0  0  0  0  0  0  0  0  0  0  0
   46.9912  -32.6815 -103.6093 C   0  0  0  0  0  0  0  0  0  0  0  0
   47.1469  -31.7576 -102.6024 N   0  0  0  0  0  0  0  0  0  0  0  0
  2  1  1  1  0  0  0
  2  3  1  0  0  0  0
  2  5  1  0  0  0  0
  3  4  1  0  0  0  0
  3 17  1  0  0  0  0
  5  6  1  0  0  0  0
  7  6  1  1  0  0  0
  7  8  1  0  0  0  0
  7  9  1  0  0  0  0
 10  9  1  6  0  0  0
 10 11  1  0  0  0  0
 10 12  1  0  0  0  0
 11 16  1  0  0  0  0
 12 13  1  1  0  0  0
 12 14  1  0  0  0  0
 14 15  1  6  0  0  0
 14 16  1  0  0  0  0
 16 27  1  6  0  0  0
 18 19  2  0  0  0  0
 18 23  1  0  0  0  0
 19 20  1  0  0  0  0
 20 21  2  0  0  0  0
 21 22  1  0  0  0  0
 21 27  1  0  0  0  0
 22 23  2  0  0  0  0
 22 25  1  0  0  0  0
 23 24  1  0  0  0  0
 25 26  2  0  0  0  0
 26 27  1  0  0  0  0
M  END
>  <CHROM.1>
176.71898634,64.69136574,-71.00892497,-63.99951534,165.55062759,54.85541222
78.78258659,48.17761664,-29.18922650,-102.98828904,-1.39349709,-0.60943693
2.80409875

>  <Name>
ligand

>  <RI>
0

>  <Rbt.Current_Directory>
/home/itssahil/PROJECTS/Mol_Feturizer/Test_systems_manuscript/rnas/4l81

>  <Rbt.Executable>
rbdock ($Id: //depot/dev/client3/rdock/2013.1/src/exe/rbdock.cxx#4 $)

>  <Rbt.Library>
libRbt.so (2013.1, Build901 2013/11/27)

>  <Rbt.Parameter_File>
/export/apps/rDock/src/rDock_2013.1_src/data/scripts/dock_solv.prm

>  <Rbt.Receptor>
prm/pocket_docking_6.prm

>  <SCORE>
-15.8813

>  <SCORE.INTER>
-14.2066

>  <SCORE.INTER.CONST>
1

>  <SCORE.INTER.POLAR>
0

>  <SCORE.INTER.ROT>
7

>  <SCORE.INTER.SOLV>
11.2111

>  <SCORE.INTER.VDW>
-21.4748

>  <SCORE.INTER.norm>
-0.526171

>  <SCORE.INTRA>
-1.69533

>  <SCORE.INTRA.DIHEDRAL>
-4.25224

>  <SCORE.INTRA.DIHEDRAL.0>
8.34559

>  <SCORE.INTRA.POLAR>
0

>  <SCORE.INTRA.POLAR.0>
0

>  <SCORE.INTRA.REPUL>
0

>  <SCORE.INTRA.REPUL.0>
0

>  <SCORE.INTRA.SOLV>
1.424

>  <SCORE.INTRA.SOLV.lig_0>
-48.829

>  <SCORE.INTRA.VDW>
-0.28121

>  <SCORE.INTRA.VDW.0>
-1.77092

>  <SCORE.INTRA.norm>
-0.0627899

>  <SCORE.RESTR>
0.0206601

>  <SCORE.RESTR.CAVITY>
0.0206601

>  <SCORE.RESTR.norm>
0.000765188

>  <SCORE.SYSTEM>
0

>  <SCORE.SYSTEM.CONST>
0

>  <SCORE.SYSTEM.DIHEDRAL>
0

>  <SCORE.SYSTEM.SOLV>
0

>  <SCORE.SYSTEM.norm>
0

>  <SCORE.heavy>
27

>  <SCORE.norm>
-0.588196

>  <RMSD>
5.044

$$$$
ligand
 OpenBabel02271912153D
libRbt.so/2013.1/901 2013/11/27
 27 29  0  0  0  0  0  0  0  0999 V2000
   43.7259  -26.6154 -105.2111 N   0  0  0  0  0  0  0  0  0  0  0  0
   44.8533  -26.5574 -104.2739 C   0  0  2  0  0  0  0  0  0  0  0  0
   45.9962  -25.7905 -104.9051 C   0  0  0  0  0  0  0  0  0  0  0  0
   46.4084  -26.1027 -106.0121 O   0  0  0  0  0  0  0  0  0  0  0  0
   45.3446  -27.9633 -103.9029 C   0  0  0  0  0  0  0  0  0  0  0  0
   44.2355  -28.7663 -103.2380 C   0  0  0  0  0  0  0  0  0  0  0  0
   44.7501  -30.4623 -102.7668 S   0  0  2  0  0  0  0  0  0  0  0  0
   43.2940  -31.1400 -101.9066 C   0  0  0  0  0  0  0  0  0  0  0  0
   45.7140  -29.9655 -101.3410 C   0  0  0  0  0  0  0  0  0  0  0  0
   47.1231  -30.4958 -101.3477 C   0  0  1  0  0  0  0  0  0  0  0  0
   47.7853  -29.9745 -102.5125 O   0  0  0  0  0  0  0  0  0  0  0  0
   47.7293  -29.8213 -100.1836 C   0  0  1  0  0  0  0  0  0  0  0  0
   47.7055  -30.6962  -99.0569 O   0  0  0  0  0  0  0  0  0  0  0  0
   49.1411  -29.6061 -100.6340 C   0  0  1  0  0  0  0  0  0  0  0  0
   49.9472  -30.7629 -100.3283 O   0  0  0  0  0  0  0  0  0  0  0  0
   49.0741  -29.4012 -102.1772 C   0  0  2  0  0  0  0  0  0  0  0  0
   46.4912  -24.8371 -104.3300 O   0  0  0  0  0  0  0  0  0  0  0  0
   50.2821  -25.8217 -105.9090 N   0  0  0  0  0  0  0  0  0  0  0  0
   50.6063  -27.1379 -105.8889 C   0  0  0  0  0  0  0  0  0  0  0  0
   50.1989  -27.9543 -104.8946 N   0  0  0  0  0  0  0  0  0  0  0  0
   49.5279  -27.4655 -103.8389 C   0  0  0  0  0  0  0  0  0  0  0  0
   49.1970  -26.0615 -103.7988 C   0  0  0  0  0  0  0  0  0  0  0  0
   49.5991  -25.2451 -104.8975 C   0  0  0  0  0  0  0  0  0  0  0  0
   49.3069  -23.8966 -104.9284 N   0  0  0  0  0  0  0  0  0  0  0  0
   48.5422  -25.8389 -102.6532 N   0  0  0  0  0  0  0  0  0  0  0  0
   48.4511  -26.9561 -101.9951 C   0  0  0  0  0  0  0  0  0  0  0  0
   49.0342  -27.9968 -102.6796 N   0  0  0  0  0  0  0  0  0  0  0  0
  2  1  1  6  0  0  0
  2  3  1  0  0  0  0
  2  5  1  0  0  0  0
  3  4  1  0  0  0  0
  3 17  1  0  0  0  0
  5  6  1  0  0  0  0
  7  6  1  6  0  0  0
  7  8  1  0  0  0  0
  7  9  1  0  0  0  0
 10  9  1  6  0  0  0
 10 11  1  0  0  0  0
 10 12  1  0  0  0  0
 11 16  1  0  0  0  0
 12 13  1  1  0  0  0
 12 14  1  0  0  0  0
 14 15  1  6  0  0  0
 14 16  1  0  0  0  0
 16 27  1  1  0  0  0
 18 19  2  0  0  0  0
 18 23  1  0  0  0  0
 19 20  1  0  0  0  0
 20 21  2  0  0  0  0
 21 22  1  0  0  0  0
 21 27  1  0  0  0  0
 22 23  2  0  0  0  0
 22 25  1  0  0  0  0
 23 24  1  0  0  0  0
 25 26  2  0  0  0  0
 26 27  1  0  0  0  0
M  END
>  <CHROM.1>
-52.37407073,-60.30490422,179.94615547,176.25068612,-126.93114243,61.18383217
-98.16849935,47.37789356,-28.07158418,-103.11639847,1.20805621,-0.17366914
-0.72991514

>  <Name>
ligand

>  <RI>
0

>  <Rbt.Current_Directory>
/home/itssahil/PROJECTS/Mol_Feturizer/Test_systems_manuscript/rnas/4l81

>  <Rbt.Executable>
rbdock ($Id: //depot/dev/client3/rdock/2013.1/src/exe/rbdock.cxx#4 $)

>  <Rbt.Library>
libRbt.so (2013.1, Build901 2013/11/27)

>  <Rbt.Parameter_File>
/export/apps/rDock/src/rDock_2013.1_src/data/scripts/dock_solv.prm

>  <Rbt.Receptor>
prm/pocket_docking_3.prm

>  <SCORE>
-16.7742

>  <SCORE.INTER>
-13.6415

>  <SCORE.INTER.CONST>
1

>  <SCORE.INTER.POLAR>
0

>  <SCORE.INTER.ROT>
7

>  <SCORE.INTER.SOLV>
14.0913

>  <SCORE.INTER.VDW>
-22.0581

>  <SCORE.INTER.norm>
-0.505239

>  <SCORE.INTRA>
-3.13272

>  <SCORE.INTRA.DIHEDRAL>
-0.512207

>  <SCORE.INTRA.DIHEDRAL.0>
8.34559

>  <SCORE.INTRA.POLAR>
0

>  <SCORE.INTRA.POLAR.0>
0

>  <SCORE.INTRA.REPUL>
0

>  <SCORE.INTRA.REPUL.0>
0

>  <SCORE.INTRA.SOLV>
0.689534

>  <SCORE.INTRA.SOLV.lig_0>
-48.829

>  <SCORE.INTRA.VDW>
-3.22139

>  <SCORE.INTRA.VDW.0>
-1.77092

>  <SCORE.INTRA.norm>
-0.116027

>  <SCORE.RESTR>
0

>  <SCORE.RESTR.CAVITY>
0

>  <SCORE.RESTR.norm>
0

>  <SCORE.SYSTEM>
0

>  <SCORE.SYSTEM.CONST>
0

>  <SCORE.SYSTEM.DIHEDRAL>
0

>  <SCORE.SYSTEM.SOLV>
0

>  <SCORE.SYSTEM.norm>
0

>  <SCORE.heavy>
27

>  <SCORE.norm>
-0.621266

>  <RMSD>
5.045

$$$$
ligand
 OpenBabel02271912153D
libRbt.so/2013.1/901 2013/11/27
 27 29  0  0  0  0  0  0  0  0999 V2000
   44.9312  -29.7565 -104.4594 N   0  0  0  0  0  0  0  0  0  0  0  0
   44.4794  -28.8729 -103.3788 C   0  0  2  0  0  0  0  0  0  0  0  0
   45.1952  -27.5425 -103.4815 C   0  0  0  0  0  0  0  0  0  0  0  0
   44.5683  -26.4983 -103.3838 O   0  0  0  0  0  0  0  0  0  0  0  0
   44.7647  -29.4845 -102.0004 C   0  0  0  0  0  0  0  0  0  0  0  0
   46.2440  -29.8089 -101.8479 C   0  0  0  0  0  0  0  0  0  0  0  0
   46.6828  -30.4273 -100.1781 S   0  0  2  0  0  0  0  0  0  0  0  0
   46.1934  -29.0707  -99.0647 C   0  0  0  0  0  0  0  0  0  0  0  0
   48.4326  -30.0669 -100.3096 C   0  0  0  0  0  0  0  0  0  0  0  0
   49.1792  -31.0109 -101.2142 C   0  0  1  0  0  0  0  0  0  0  0  0
   48.6939  -30.8153 -102.5533 O   0  0  0  0  0  0  0  0  0  0  0  0
   50.5527  -30.4721 -101.1830 C   0  0  1  0  0  0  0  0  0  0  0  0
   51.3337  -31.2053 -100.2407 O   0  0  0  0  0  0  0  0  0  0  0  0
   51.0386  -30.7458 -102.5726 C   0  0  1  0  0  0  0  0  0  0  0  0
   51.6065  -32.0695 -102.6542 O   0  0  0  0  0  0  0  0  0  0  0  0
   49.7852  -30.6506 -103.4935 C   0  0  2  0  0  0  0  0  0  0  0  0
   46.4041  -27.5024 -103.6288 O   0  0  0  0  0  0  0  0  0  0  0  0
   50.5976  -25.4141 -103.8366 N   0  0  0  0  0  0  0  0  0  0  0  0
   51.0798  -26.2667 -102.8994 C   0  0  0  0  0  0  0  0  0  0  0  0
   50.8311  -27.5921 -102.9504 N   0  0  0  0  0  0  0  0  0  0  0  0
   50.0176  -28.1005 -103.8902 C   0  0  0  0  0  0  0  0  0  0  0  0
   49.4486  -27.2225 -104.8841 C   0  0  0  0  0  0  0  0  0  0  0  0
   49.7822  -25.8366 -104.8259 C   0  0  0  0  0  0  0  0  0  0  0  0
   49.2812  -24.9431 -105.7507 N   0  0  0  0  0  0  0  0  0  0  0  0
   48.6831  -27.9717 -105.6863 N   0  0  0  0  0  0  0  0  0  0  0  0
   48.7230  -29.2047 -105.2770 C   0  0  0  0  0  0  0  0  0  0  0  0
   49.5360  -29.3478 -104.1769 N   0  0  0  0  0  0  0  0  0  0  0  0
  2  1  1  6  0  0  0
  2  3  1  0  0  0  0
  2  5  1  0  0  0  0
  3  4  1  0  0  0  0
  3 17  1  0  0  0  0
  5  6  1  0  0  0  0
  7  6  1  6  0  0  0
  7  8  1  0  0  0  0
  7  9  1  0  0  0  0
 10  9  1  1  0  0  0
 10 11  1  0  0  0  0
 10 12  1  0  0  0  0
 11 16  1  0  0  0  0
 12 13  1  1  0  0  0
 12 14  1  0  0  0  0
 14 15  1  1  0  0  0
 14 16  1  0  0  0  0
 16 27  1  1  0  0  0
 18 19  2  0  0  0  0
 18 23  1  0  0  0  0
 19 20  1  0  0  0  0
 20 21  2  0  0  0  0
 21 22  1  0  0  0  0
 21 27  1  0  0  0  0
 22 23  2  0  0  0  0
 22 25  1  0  0  0  0
 23 24  1  0  0  0  0
 25 26  2  0  0  0  0
 26 27  1  0  0  0  0
M  END
>  <CHROM.1>
133.78493133,56.26856558,175.67302058,-59.38667964,-73.62423246,65.77766040
94.59459415,48.33565634,-28.93226494,-102.77454055,1.46461918,0.13281981
-0.73374810

>  <Name>
ligand

>  <RI>
0

>  <Rbt.Current_Directory>
/home/itssahil/PROJECTS/Mol_Feturizer/Test_systems_manuscript/rnas/4l81

>  <Rbt.Executable>
rbdock ($Id: //depot/dev/client3/rdock/2013.1/src/exe/rbdock.cxx#4 $)

>  <Rbt.Library>
libRbt.so (2013.1, Build901 2013/11/27)

>  <Rbt.Parameter_File>
/export/apps/rDock/src/rDock_2013.1_src/data/scripts/dock_solv.prm

>  <Rbt.Receptor>
prm/pocket_docking_4.prm

>  <SCORE>
-20.0109

>  <SCORE.INTER>
-16.7169

>  <SCORE.INTER.CONST>
1

>  <SCORE.INTER.POLAR>
0

>  <SCORE.INTER.ROT>
7

>  <SCORE.INTER.SOLV>
9.29736

>  <SCORE.INTER.VDW>
-22.5104

>  <SCORE.INTER.norm>
-0.619143

>  <SCORE.INTRA>
-3.29406

>  <SCORE.INTRA.DIHEDRAL>
-4.46152

>  <SCORE.INTRA.DIHEDRAL.0>
8.34559

>  <SCORE.INTRA.POLAR>
0

>  <SCORE.INTRA.POLAR.0>
0

>  <SCORE.INTRA.REPUL>
0

>  <SCORE.INTRA.REPUL.0>
0

>  <SCORE.INTRA.SOLV>
-0.441751

>  <SCORE.INTRA.SOLV.lig_0>
-48.829

>  <SCORE.INTRA.VDW>
-0.842423

>  <SCORE.INTRA.VDW.0>
-1.77092

>  <SCORE.INTRA.norm>
-0.122002

>  <SCORE.RESTR>
0

>  <SCORE.RESTR.CAVITY>
0

>  <SCORE.RESTR.norm>
0

>  <SCORE.SYSTEM>
0

>  <SCORE.SYSTEM.CONST>
0

>  <SCORE.SYSTEM.DIHEDRAL>
0

>  <SCORE.SYSTEM.SOLV>
0

>  <SCORE.SYSTEM.norm>
0

>  <SCORE.heavy>
27

>  <SCORE.norm>
-0.741145

>  <RMSD>
5.054

$$$$
ligand
 OpenBabel02271912153D
libRbt.so/2013.1/901 2013/11/27
 27 29  0  0  0  0  0  0  0  0999 V2000
   51.0923  -23.6623 -105.6387 N   0  0  0  0  0  0  0  0  0  0  0  0
   50.8737  -24.9398 -104.9510 C   0  0  2  0  0  0  0  0  0  0  0  0
   50.1045  -25.8768 -105.8583 C   0  0  0  0  0  0  0  0  0  0  0  0
   50.4485  -27.0438 -105.9701 O   0  0  0  0  0  0  0  0  0  0  0  0
   50.0810  -24.7464 -103.6511 C   0  0  0  0  0  0  0  0  0  0  0  0
   49.9664  -26.0577 -102.8868 C   0  0  0  0  0  0  0  0  0  0  0  0
   48.4980  -27.0484 -103.3617 S   0  0  2  0  0  0  0  0  0  0  0  0
   47.1190  -25.8611 -103.2706 C   0  0  0  0  0  0  0  0  0  0  0  0
   48.2947  -27.8396 -101.7675 C   0  0  0  0  0  0  0  0  0  0  0  0
   46.9719  -28.5395 -101.6027 C   0  0  1  0  0  0  0  0  0  0  0  0
   46.8418  -29.4941 -102.6698 O   0  0  0  0  0  0  0  0  0  0  0  0
   47.1686  -29.3183 -100.3649 C   0  0  1  0  0  0  0  0  0  0  0  0
   46.6116  -28.6095  -99.2591 O   0  0  0  0  0  0  0  0  0  0  0  0
   46.3707  -30.5569 -100.6323 C   0  0  1  0  0  0  0  0  0  0  0  0
   44.9961  -30.3628 -100.2398 O   0  0  0  0  0  0  0  0  0  0  0  0
   46.4526  -30.7981 -102.1696 C   0  0  2  0  0  0  0  0  0  0  0  0
   49.1186  -25.4842 -106.4573 O   0  0  0  0  0  0  0  0  0  0  0  0
   51.5682  -32.1036 -102.7389 N   0  0  0  0  0  0  0  0  0  0  0  0
   51.0585  -30.9773 -102.1825 C   0  0  0  0  0  0  0  0  0  0  0  0
   49.7284  -30.7852 -102.0603 N   0  0  0  0  0  0  0  0  0  0  0  0
   48.8587  -31.6721 -102.5706 C   0  0  0  0  0  0  0  0  0  0  0  0
   49.3580  -32.8664 -103.2086 C   0  0  0  0  0  0  0  0  0  0  0  0
   50.7707  -33.0562 -103.2669 C   0  0  0  0  0  0  0  0  0  0  0  0
   51.3157  -34.1801 -103.8538 N   0  0  0  0  0  0  0  0  0  0  0  0
   48.2978  -33.5670 -103.6282 N   0  0  0  0  0  0  0  0  0  0  0  0
   47.2144  -32.9189 -103.3193 C   0  0  0  0  0  0  0  0  0  0  0  0
   47.4960  -31.7459 -102.6586 N   0  0  0  0  0  0  0  0  0  0  0  0
  2  1  1  6  0  0  0
  2  3  1  0  0  0  0
  2  5  1  0  0  0  0
  3  4  1  0  0  0  0
  3 17  1  0  0  0  0
  5  6  1  0  0  0  0
  7  6  1  1  0  0  0
  7  8  1  0  0  0  0
  7  9  1  0  0  0  0
 10  9  1  6  0  0  0
 10 11  1  0  0  0  0
 10 12  1  0  0  0  0
 11 16  1  0  0  0  0
 12 13  1  1  0  0  0
 12 14  1  0  0  0  0
 14 15  1  6  0  0  0
 14 16  1  0  0  0  0
 16 27  1  1  0  0  0
 18 19  2  0  0  0  0
 18 23  1  0  0  0  0
 19 20  1  0  0  0  0
 20 21  2  0  0  0  0
 21 22  1  0  0  0  0
 21 27  1  0  0  0  0
 22 23  2  0  0  0  0
 22 25  1  0  0  0  0
 23 24  1  0  0  0  0
 25 26  2  0  0  0  0
 26 27  1  0  0  0  0
M  END
>  <CHROM.1>
135.28637977,-175.02497306,-89.02798675,-49.85298200,166.67225549,56.52917570
50.73974917,48.71028309,-29.06958266,-102.98909912,-1.31022981,-0.69042017
2.95113350

>  <Name>
ligand

>  <RI>
0

>  <Rbt.Current_Directory>
/home/itssahil/PROJECTS/Mol_Feturizer/Test_systems_manuscript/rnas/4l81

>  <Rbt.Executable>
rbdock ($Id: //depot/dev/client3/rdock/2013.1/src/exe/rbdock.cxx#4 $)

>  <Rbt.Library>
libRbt.so (2013.1, Build901 2013/11/27)

>  <Rbt.Parameter_File>
/export/apps/rDock/src/rDock_2013.1_src/data/scripts/dock_solv.prm

>  <Rbt.Receptor>
prm/pocket_docking_4.prm

>  <SCORE>
-15.7659

>  <SCORE.INTER>
-13.1019

>  <SCORE.INTER.CONST>
1

>  <SCORE.INTER.POLAR>
0

>  <SCORE.INTER.ROT>
7

>  <SCORE.INTER.SOLV>
16.8634

>  <SCORE.INTER.VDW>
-22.6224

>  <SCORE.INTER.norm>
-0.485255

>  <SCORE.INTRA>
-2.66404

>  <SCORE.INTRA.DIHEDRAL>
-1.2465

>  <SCORE.INTRA.DIHEDRAL.0>
8.34559

>  <SCORE.INTRA.POLAR>
0

>  <SCORE.INTRA.POLAR.0>
0

>  <SCORE.INTRA.REPUL>
0

>  <SCORE.INTRA.REPUL.0>
0

>  <SCORE.INTRA.SOLV>
-1.15033

>  <SCORE.INTRA.SOLV.lig_0>
-48.829

>  <SCORE.INTRA.VDW>
-1.46563

>  <SCORE.INTRA.VDW.0>
-1.77092

>  <SCORE.INTRA.norm>
-0.0986683

>  <SCORE.RESTR>
0

>  <SCORE.RESTR.CAVITY>
0

>  <SCORE.RESTR.norm>
0

>  <SCORE.SYSTEM>
0

>  <SCORE.SYSTEM.CONST>
0

>  <SCORE.SYSTEM.DIHEDRAL>
0

>  <SCORE.SYSTEM.SOLV>
0

>  <SCORE.SYSTEM.norm>
0

>  <SCORE.heavy>
27

>  <SCORE.norm>
-0.583923

>  <RMSD>
5.055

$$$$
ligand
 OpenBabel02271912153D
libRbt.so/2013.1/901 2013/11/27
 27 29  0  0  0  0  0  0  0  0999 V2000
   48.5225  -28.1830 -107.0252 N   0  0  0  0  0  0  0  0  0  0  0  0
   47.2730  -27.6184 -107.5475 C   0  0  2  0  0  0  0  0  0  0  0  0
   47.5640  -26.8222 -108.8022 C   0  0  0  0  0  0  0  0  0  0  0  0
   48.6855  -26.8270 -109.2867 O   0  0  0  0  0  0  0  0  0  0  0  0
   46.6036  -26.6964 -106.5192 C   0  0  0  0  0  0  0  0  0  0  0  0
   46.2945  -27.4524 -105.2347 C   0  0  0  0  0  0  0  0  0  0  0  0
   45.6614  -26.3745 -103.8929 S   0  0  2  0  0  0  0  0  0  0  0  0
   47.0226  -25.2011 -103.5931 C   0  0  0  0  0  0  0  0  0  0  0  0
   45.9895  -27.5320 -102.5658 C   0  0  0  0  0  0  0  0  0  0  0  0
   44.8720  -28.5123 -102.3267 C   0  0  1  0  0  0  0  0  0  0  0  0
   44.5801  -29.1617 -103.5757 O   0  0  0  0  0  0  0  0  0  0  0  0
   45.5091  -29.5270 -101.4652 C   0  0  1  0  0  0  0  0  0  0  0  0
   45.1917  -29.2635 -100.0995 O   0  0  0  0  0  0  0  0  0  0  0  0
   44.8431  -30.7923 -101.9099 C   0  0  1  0  0  0  0  0  0  0  0  0
   43.6191  -31.0002 -101.1752 O   0  0  0  0  0  0  0  0  0  0  0  0
   44.5254  -30.6025 -103.4236 C   0  0  2  0  0  0  0  0  0  0  0  0
   46.6760  -26.1983 -109.3565 O   0  0  0  0  0  0  0  0  0  0  0  0
   48.8645  -33.4857 -104.4520 N   0  0  0  0  0  0  0  0  0  0  0  0
   48.3121  -33.2245 -103.2418 C   0  0  0  0  0  0  0  0  0  0  0  0
   47.1756  -32.5071 -103.1202 N   0  0  0  0  0  0  0  0  0  0  0  0
   46.5991  -31.9497 -104.1974 C   0  0  0  0  0  0  0  0  0  0  0  0
   47.1768  -32.1676 -105.5018 C   0  0  0  0  0  0  0  0  0  0  0  0
   48.3473  -32.9784 -105.5909 C   0  0  0  0  0  0  0  0  0  0  0  0
   48.9457  -33.2355 -106.8077 N   0  0  0  0  0  0  0  0  0  0  0  0
   46.4219  -31.5069 -106.3875 N   0  0  0  0  0  0  0  0  0  0  0  0
   45.4571  -30.9074 -105.7557 C   0  0  0  0  0  0  0  0  0  0  0  0
   45.5094  -31.1495 -104.4028 N   0  0  0  0  0  0  0  0  0  0  0  0
  2  1  1  1  0  0  0
  2  3  1  0  0  0  0
  2  5  1  0  0  0  0
  3  4  1  0  0  0  0
  3 17  1  0  0  0  0
  5  6  1  0  0  0  0
  7  6  1  6  0  0  0
  7  8  1  0  0  0  0
  7  9  1  0  0  0  0
 10  9  1  6  0  0  0
 10 11  1  0  0  0  0
 10 12  1  0  0  0  0
 11 16  1  0  0  0  0
 12 13  1  1  0  0  0
 12 14  1  0  0  0  0
 14 15  1  1  0  0  0
 14 16  1  0  0  0  0
 16 27  1  6  0  0  0
 18 19  2  0  0  0  0
 18 23  1  0  0  0  0
 19 20  1  0  0  0  0
 20 21  2  0  0  0  0
 21 22  1  0  0  0  0
 21 27  1  0  0  0  0
 22 23  2  0  0  0  0
 22 25  1  0  0  0  0
 23 24  1  0  0  0  0
 25 26  2  0  0  0  0
 26 27  1  0  0  0  0
M  END
>  <CHROM.1>
6.26843860,-59.01440824,173.69184808,-61.30066008,-86.84541158,53.97929424
122.21102065,46.46115643,-29.41970174,-104.66483586,-1.10462194,-1.06067539
2.70306739

>  <Name>
ligand

>  <RI>
0

>  <Rbt.Current_Directory>
/home/itssahil/PROJECTS/Mol_Feturizer/Test_systems_manuscript/rnas/4l81

>  <Rbt.Executable>
rbdock ($Id: //depot/dev/client3/rdock/2013.1/src/exe/rbdock.cxx#4 $)

>  <Rbt.Library>
libRbt.so (2013.1, Build901 2013/11/27)

>  <Rbt.Parameter_File>
/export/apps/rDock/src/rDock_2013.1_src/data/scripts/dock_solv.prm

>  <Rbt.Receptor>
prm/pocket_docking_7.prm

>  <SCORE>
-14.6083

>  <SCORE.INTER>
-11.7525

>  <SCORE.INTER.CONST>
1

>  <SCORE.INTER.POLAR>
0

>  <SCORE.INTER.ROT>
7

>  <SCORE.INTER.SOLV>
9.89412

>  <SCORE.INTER.VDW>
-19.3997

>  <SCORE.INTER.norm>
-0.435279

>  <SCORE.INTRA>
-2.85581

>  <SCORE.INTRA.DIHEDRAL>
-3.59218

>  <SCORE.INTRA.DIHEDRAL.0>
8.34559

>  <SCORE.INTRA.POLAR>
0

>  <SCORE.INTRA.POLAR.0>
0

>  <SCORE.INTRA.REPUL>
0

>  <SCORE.INTRA.REPUL.0>
0

>  <SCORE.INTRA.SOLV>
-0.479215

>  <SCORE.INTRA.SOLV.lig_0>
-48.829

>  <SCORE.INTRA.VDW>
-0.820113

>  <SCORE.INTRA.VDW.0>
-1.77092

>  <SCORE.INTRA.norm>
-0.105771

>  <SCORE.RESTR>
0

>  <SCORE.RESTR.CAVITY>
0

>  <SCORE.RESTR.norm>
0

>  <SCORE.SYSTEM>
0

>  <SCORE.SYSTEM.CONST>
0

>  <SCORE.SYSTEM.DIHEDRAL>
0

>  <SCORE.SYSTEM.SOLV>
0

>  <SCORE.SYSTEM.norm>
0

>  <SCORE.heavy>
27

>  <SCORE.norm>
-0.54105

>  <RMSD>
5.079

$$$$
ligand
 OpenBabel02271912153D
libRbt.so/2013.1/901 2013/11/27
 27 29  0  0  0  0  0  0  0  0999 V2000
   45.4104  -26.2289 -103.3224 N   0  0  0  0  0  0  0  0  0  0  0  0
   45.3351  -27.5774 -103.8955 C   0  0  2  0  0  0  0  0  0  0  0  0
   44.4866  -27.5469 -105.1492 C   0  0  0  0  0  0  0  0  0  0  0  0
   44.5448  -28.4652 -105.9531 O   0  0  0  0  0  0  0  0  0  0  0  0
   44.7184  -28.5728 -102.9034 C   0  0  0  0  0  0  0  0  0  0  0  0
   45.4326  -28.5115 -101.5606 C   0  0  0  0  0  0  0  0  0  0  0  0
   46.1154  -30.1280 -101.0276 S   0  0  2  0  0  0  0  0  0  0  0  0
   46.3123  -29.9487  -99.2252 C   0  0  0  0  0  0  0  0  0  0  0  0
   47.7997  -29.7837 -101.5309 C   0  0  0  0  0  0  0  0  0  0  0  0
   48.7659  -30.8939 -101.2132 C   0  0  1  0  0  0  0  0  0  0  0  0
   48.6045  -31.9179 -102.2094 O   0  0  0  0  0  0  0  0  0  0  0  0
   50.0769  -30.2655 -101.4664 C   0  0  1  0  0  0  0  0  0  0  0  0
   50.6349  -29.8086 -100.2354 O   0  0  0  0  0  0  0  0  0  0  0  0
   50.8845  -31.4075 -102.0010 C   0  0  1  0  0  0  0  0  0  0  0  0
   51.4941  -32.1412 -100.9186 O   0  0  0  0  0  0  0  0  0  0  0  0
   49.8813  -32.3250 -102.7625 C   0  0  2  0  0  0  0  0  0  0  0  0
   43.7161  -26.6246 -105.3502 O   0  0  0  0  0  0  0  0  0  0  0  0
   50.9314  -33.9517 -107.7072 N   0  0  0  0  0  0  0  0  0  0  0  0
   51.3378  -34.5196 -106.5452 C   0  0  0  0  0  0  0  0  0  0  0  0
   50.9640  -34.0275 -105.3456 N   0  0  0  0  0  0  0  0  0  0  0  0
   50.2433  -32.8972 -105.2636 C   0  0  0  0  0  0  0  0  0  0  0  0
   49.8234  -32.2360 -106.4756 C   0  0  0  0  0  0  0  0  0  0  0  0
   50.1940  -32.8211 -107.7229 C   0  0  0  0  0  0  0  0  0  0  0  0
   49.8176  -32.2466 -108.9199 N   0  0  0  0  0  0  0  0  0  0  0  0
   49.1341  -31.1465 -106.1170 N   0  0  0  0  0  0  0  0  0  0  0  0
   49.1014  -31.0759 -104.8195 C   0  0  0  0  0  0  0  0  0  0  0  0
   49.7622  -32.1322 -104.2373 N   0  0  0  0  0  0  0  0  0  0  0  0
  2  1  1  1  0  0  0
  2  3  1  0  0  0  0
  2  5  1  0  0  0  0
  3  4  1  0  0  0  0
  3 17  1  0  0  0  0
  5  6  1  0  0  0  0
  7  6  1  6  0  0  0
  7  8  1  0  0  0  0
  7  9  1  0  0  0  0
 10  9  1  6  0  0  0
 10 11  1  0  0  0  0
 10 12  1  0  0  0  0
 11 16  1  0  0  0  0
 12 13  1  1  0  0  0
 12 14  1  0  0  0  0
 14 15  1  1  0  0  0
 14 16  1  0  0  0  0
 16 27  1  6  0  0  0
 18 19  2  0  0  0  0
 18 23  1  0  0  0  0
 19 20  1  0  0  0  0
 20 21  2  0  0  0  0
 21 22  1  0  0  0  0
 21 27  1  0  0  0  0
 22 23  2  0  0  0  0
 22 25  1  0  0  0  0
 23 24  1  0  0  0  0
 25 26  2  0  0  0  0
 26 27  1  0  0  0  0
M  END
>  <CHROM.1>
162.60726938,-52.06122459,-123.13534591,-158.97848269,177.83428318,78.66303618
-141.71621360,48.19538546,-30.62627751,-103.63523040,2.65431113,-0.68161759
1.42448853

>  <Name>
ligand

>  <RI>
0

>  <Rbt.Current_Directory>
/home/itssahil/PROJECTS/Mol_Feturizer/Test_systems_manuscript/rnas/4l81

>  <Rbt.Executable>
rbdock ($Id: //depot/dev/client3/rdock/2013.1/src/exe/rbdock.cxx#4 $)

>  <Rbt.Library>
libRbt.so (2013.1, Build901 2013/11/27)

>  <Rbt.Parameter_File>
/export/apps/rDock/src/rDock_2013.1_src/data/scripts/dock_solv.prm

>  <Rbt.Receptor>
prm/pocket_docking_8.prm

>  <SCORE>
-12.1082

>  <SCORE.INTER>
-13.2788

>  <SCORE.INTER.CONST>
1

>  <SCORE.INTER.POLAR>
0

>  <SCORE.INTER.ROT>
7

>  <SCORE.INTER.SOLV>
19.2177

>  <SCORE.INTER.VDW>
-23.5251

>  <SCORE.INTER.norm>
-0.491806

>  <SCORE.INTRA>
1.17057

>  <SCORE.INTRA.DIHEDRAL>
3.98283

>  <SCORE.INTRA.DIHEDRAL.0>
8.34559

>  <SCORE.INTRA.POLAR>
0

>  <SCORE.INTRA.POLAR.0>
0

>  <SCORE.INTRA.REPUL>
0

>  <SCORE.INTRA.REPUL.0>
0

>  <SCORE.INTRA.SOLV>
-0.493291

>  <SCORE.INTRA.SOLV.lig_0>
-48.829

>  <SCORE.INTRA.VDW>
-0.574203

>  <SCORE.INTRA.VDW.0>
-1.77092

>  <SCORE.INTRA.norm>
0.0433543

>  <SCORE.RESTR>
0

>  <SCORE.RESTR.CAVITY>
0

>  <SCORE.RESTR.norm>
0

>  <SCORE.SYSTEM>
0

>  <SCORE.SYSTEM.CONST>
0

>  <SCORE.SYSTEM.DIHEDRAL>
0

>  <SCORE.SYSTEM.SOLV>
0

>  <SCORE.SYSTEM.norm>
0

>  <SCORE.heavy>
27

>  <SCORE.norm>
-0.448452

>  <RMSD>
5.081

$$$$
ligand
 OpenBabel02271912153D
libRbt.so/2013.1/901 2013/11/27
 27 29  0  0  0  0  0  0  0  0999 V2000
   48.4019  -28.1707 -106.9470 N   0  0  0  0  0  0  0  0  0  0  0  0
   47.2135  -27.4639 -107.4376 C   0  0  2  0  0  0  0  0  0  0  0  0
   47.5891  -26.6126 -108.6321 C   0  0  0  0  0  0  0  0  0  0  0  0
   46.7599  -26.3631 -109.4940 O   0  0  0  0  0  0  0  0  0  0  0  0
   46.6137  -26.5591 -106.3527 C   0  0  0  0  0  0  0  0  0  0  0  0
   46.2319  -27.3696 -105.1221 C   0  0  0  0  0  0  0  0  0  0  0  0
   45.7368  -26.3308 -103.6941 S   0  0  2  0  0  0  0  0  0  0  0  0
   47.2102  -25.3122 -103.3602 C   0  0  0  0  0  0  0  0  0  0  0  0
   45.9858  -27.6011 -102.4559 C   0  0  0  0  0  0  0  0  0  0  0  0
   44.8169  -28.5382 -102.3058 C   0  0  1  0  0  0  0  0  0  0  0  0
   44.5596  -29.1319 -103.5896 O   0  0  0  0  0  0  0  0  0  0  0  0
   45.3665  -29.6085 -101.4513 C   0  0  1  0  0  0  0  0  0  0  0  0
   44.9935  -29.3770 -100.0939 O   0  0  0  0  0  0  0  0  0  0  0  0
   44.6699  -30.8273 -101.9722 C   0  0  1  0  0  0  0  0  0  0  0  0
   43.4032  -31.0050 -101.3049 O   0  0  0  0  0  0  0  0  0  0  0  0
   44.4359  -30.5731 -103.4916 C   0  0  2  0  0  0  0  0  0  0  0  0
   48.7095  -26.1427 -108.7267 O   0  0  0  0  0  0  0  0  0  0  0  0
   48.7680  -33.5088 -104.3928 N   0  0  0  0  0  0  0  0  0  0  0  0
   48.1817  -33.2434 -103.1997 C   0  0  0  0  0  0  0  0  0  0  0  0
   47.0511  -32.5119 -103.1114 N   0  0  0  0  0  0  0  0  0  0  0  0
   46.5155  -31.9447 -104.2045 C   0  0  0  0  0  0  0  0  0  0  0  0
   47.1306  -32.1669 -105.4909 C   0  0  0  0  0  0  0  0  0  0  0  0
   48.2929  -32.9923 -105.5459 C   0  0  0  0  0  0  0  0  0  0  0  0
   48.9255  -33.2541 -106.7442 N   0  0  0  0  0  0  0  0  0  0  0  0
   46.4120  -31.4945 -106.3977 N   0  0  0  0  0  0  0  0  0  0  0  0
   45.4357  -30.8843 -105.7945 C   0  0  0  0  0  0  0  0  0  0  0  0
   45.4428  -31.1302 -104.4413 N   0  0  0  0  0  0  0  0  0  0  0  0
  2  1  1  1  0  0  0
  2  3  1  0  0  0  0
  2  5  1  0  0  0  0
  3  4  1  0  0  0  0
  3 17  1  0  0  0  0
  5  6  1  0  0  0  0
  7  6  1  6  0  0  0
  7  8  1  0  0  0  0
  7  9  1  0  0  0  0
 10  9  1  6  0  0  0
 10 11  1  0  0  0  0
 10 12  1  0  0  0  0
 11 16  1  0  0  0  0
 12 13  1  1  0  0  0
 12 14  1  0  0  0  0
 14 15  1  1  0  0  0
 14 16  1  0  0  0  0
 16 27  1  6  0  0  0
 18 19  2  0  0  0  0
 18 23  1  0  0  0  0
 19 20  1  0  0  0  0
 20 21  2  0  0  0  0
 21 22  1  0  0  0  0
 21 27  1  0  0  0  0
 22 23  2  0  0  0  0
 22 25  1  0  0  0  0
 23 24  1  0  0  0  0
 25 26  2  0  0  0  0
 26 27  1  0  0  0  0
M  END
>  <CHROM.1>
151.51748833,-58.62593574,171.59909164,-59.84844004,-83.37248497,57.13918369
119.46500998,46.41654299,-29.38968612,-104.60080498,-1.10083355,-1.05544096
2.78081017

>  <Name>
ligand

>  <RI>
0

>  <Rbt.Current_Directory>
/home/itssahil/PROJECTS/Mol_Feturizer/Test_systems_manuscript/rnas/4l81

>  <Rbt.Executable>
rbdock ($Id: //depot/dev/client3/rdock/2013.1/src/exe/rbdock.cxx#4 $)

>  <Rbt.Library>
libRbt.so (2013.1, Build901 2013/11/27)

>  <Rbt.Parameter_File>
/export/apps/rDock/src/rDock_2013.1_src/data/scripts/dock_solv.prm

>  <Rbt.Receptor>
prm/pocket_docking_6.prm

>  <SCORE>
-14.9343

>  <SCORE.INTER>
-11.7312

>  <SCORE.INTER.CONST>
1

>  <SCORE.INTER.POLAR>
0

>  <SCORE.INTER.ROT>
7

>  <SCORE.INTER.SOLV>
9.84051

>  <SCORE.INTER.VDW>
-19.3676

>  <SCORE.INTER.norm>
-0.434489

>  <SCORE.INTRA>
-3.20311

>  <SCORE.INTRA.DIHEDRAL>
-3.86285

>  <SCORE.INTRA.DIHEDRAL.0>
8.34559

>  <SCORE.INTRA.POLAR>
0

>  <SCORE.INTRA.POLAR.0>
0

>  <SCORE.INTRA.REPUL>
0

>  <SCORE.INTRA.REPUL.0>
0

>  <SCORE.INTRA.SOLV>
-0.403572

>  <SCORE.INTRA.SOLV.lig_0>
-48.829

>  <SCORE.INTRA.VDW>
-1.06989

>  <SCORE.INTRA.VDW.0>
-1.77092

>  <SCORE.INTRA.norm>
-0.118634

>  <SCORE.RESTR>
0

>  <SCORE.RESTR.CAVITY>
0

>  <SCORE.RESTR.norm>
0

>  <SCORE.SYSTEM>
0

>  <SCORE.SYSTEM.CONST>
0

>  <SCORE.SYSTEM.DIHEDRAL>
0

>  <SCORE.SYSTEM.SOLV>
0

>  <SCORE.SYSTEM.norm>
0

>  <SCORE.heavy>
27

>  <SCORE.norm>
-0.553123

>  <RMSD>
5.082

$$$$
ligand
 OpenBabel02271912153D
libRbt.so/2013.1/901 2013/11/27
 27 29  0  0  0  0  0  0  0  0999 V2000
   47.9843  -25.8652 -108.3408 N   0  0  0  0  0  0  0  0  0  0  0  0
   47.7719  -26.7599 -107.1975 C   0  0  2  0  0  0  0  0  0  0  0  0
   47.9178  -28.1983 -107.6475 C   0  0  0  0  0  0  0  0  0  0  0  0
   48.1063  -29.0829 -106.8262 O   0  0  0  0  0  0  0  0  0  0  0  0
   46.3752  -26.5693 -106.5906 C   0  0  0  0  0  0  0  0  0  0  0  0
   46.2413  -27.3433 -105.2868 C   0  0  0  0  0  0  0  0  0  0  0  0
   45.5821  -26.3313 -103.9067 S   0  0  2  0  0  0  0  0  0  0  0  0
   46.9140  -25.1366 -103.5629 C   0  0  0  0  0  0  0  0  0  0  0  0
   45.9388  -27.5285 -102.6228 C   0  0  0  0  0  0  0  0  0  0  0  0
   44.8263  -28.5157 -102.3889 C   0  0  1  0  0  0  0  0  0  0  0  0
   44.5523  -29.1754 -103.6366 O   0  0  0  0  0  0  0  0  0  0  0  0
   45.4621  -29.5200 -101.5144 C   0  0  1  0  0  0  0  0  0  0  0  0
   45.1286  -29.2503 -100.1537 O   0  0  0  0  0  0  0  0  0  0  0  0
   44.8104  -30.7932 -101.9577 C   0  0  1  0  0  0  0  0  0  0  0  0
   43.5805  -31.0058 -101.2343 O   0  0  0  0  0  0  0  0  0  0  0  0
   44.5070  -30.6155 -103.4757 C   0  0  2  0  0  0  0  0  0  0  0  0
   47.8155  -28.4890 -108.8264 O   0  0  0  0  0  0  0  0  0  0  0  0
   48.8498  -33.5128 -104.4470 N   0  0  0  0  0  0  0  0  0  0  0  0
   48.2779  -33.2563 -103.2449 C   0  0  0  0  0  0  0  0  0  0  0  0
   47.1428  -32.5343 -103.1385 N   0  0  0  0  0  0  0  0  0  0  0  0
   46.5875  -31.9677 -104.2221 C   0  0  0  0  0  0  0  0  0  0  0  0
   47.1866  -32.1805 -105.5176 C   0  0  0  0  0  0  0  0  0  0  0  0
   48.3547  -32.9962 -105.5915 C   0  0  0  0  0  0  0  0  0  0  0  0
   48.9728  -33.2487 -106.7994 N   0  0  0  0  0  0  0  0  0  0  0  0
   46.4501  -31.5109 -106.4121 N   0  0  0  0  0  0  0  0  0  0  0  0
   45.4773  -30.9107 -105.7933 C   0  0  0  0  0  0  0  0  0  0  0  0
   45.5052  -31.1612 -104.4412 N   0  0  0  0  0  0  0  0  0  0  0  0
  2  1  1  6  0  0  0
  2  3  1  0  0  0  0
  2  5  1  0  0  0  0
  3  4  1  0  0  0  0
  3 17  1  0  0  0  0
  5  6  1  0  0  0  0
  7  6  1  6  0  0  0
  7  8  1  0  0  0  0
  7  9  1  0  0  0  0
 10  9  1  6  0  0  0
 10 11  1  0  0  0  0
 10 12  1  0  0  0  0
 11 16  1  0  0  0  0
 12 13  1  1  0  0  0
 12 14  1  0  0  0  0
 14 15  1  1  0  0  0
 14 16  1  0  0  0  0
 16 27  1  6  0  0  0
 18 19  2  0  0  0  0
 18 23  1  0  0  0  0
 19 20  1  0  0  0  0
 20 21  2  0  0  0  0
 21 22  1  0  0  0  0
 21 27  1  0  0  0  0
 22 23  2  0  0  0  0
 22 25  1  0  0  0  0
 23 24  1  0  0  0  0
 25 26  2  0  0  0  0
 26 27  1  0  0  0  0
M  END
>  <CHROM.1>
162.06675386,-171.44264981,130.06725451,-68.16833609,-88.79325877,56.81830913
123.28977183,46.45945487,-29.52810709,-104.56785813,-1.23980387,-1.03329759
2.79300893

>  <Name>
ligand

>  <RI>
0

>  <Rbt.Current_Directory>
/home/itssahil/PROJECTS/Mol_Feturizer/Test_systems_manuscript/rnas/4l81

>  <Rbt.Executable>
rbdock ($Id: //depot/dev/client3/rdock/2013.1/src/exe/rbdock.cxx#4 $)

>  <Rbt.Library>
libRbt.so (2013.1, Build901 2013/11/27)

>  <Rbt.Parameter_File>
/export/apps/rDock/src/rDock_2013.1_src/data/scripts/dock_solv.prm

>  <Rbt.Receptor>
prm/pocket_docking_7.prm

>  <SCORE>
-13.0468

>  <SCORE.INTER>
-11.5588

>  <SCORE.INTER.CONST>
1

>  <SCORE.INTER.POLAR>
0

>  <SCORE.INTER.ROT>
7

>  <SCORE.INTER.SOLV>
9.44285

>  <SCORE.INTER.VDW>
-19.1202

>  <SCORE.INTER.norm>
-0.428104

>  <SCORE.INTRA>
-1.488

>  <SCORE.INTRA.DIHEDRAL>
1.57483

>  <SCORE.INTRA.DIHEDRAL.0>
8.34559

>  <SCORE.INTRA.POLAR>
0

>  <SCORE.INTRA.POLAR.0>
0

>  <SCORE.INTRA.REPUL>
0

>  <SCORE.INTRA.REPUL.0>
0

>  <SCORE.INTRA.SOLV>
-1.195

>  <SCORE.INTRA.SOLV.lig_0>
-48.829

>  <SCORE.INTRA.VDW>
-1.67791

>  <SCORE.INTRA.VDW.0>
-1.77092

>  <SCORE.INTRA.norm>
-0.055111

>  <SCORE.RESTR>
0

>  <SCORE.RESTR.CAVITY>
0

>  <SCORE.RESTR.norm>
0

>  <SCORE.SYSTEM>
0

>  <SCORE.SYSTEM.CONST>
0

>  <SCORE.SYSTEM.DIHEDRAL>
0

>  <SCORE.SYSTEM.SOLV>
0

>  <SCORE.SYSTEM.norm>
0

>  <SCORE.heavy>
27

>  <SCORE.norm>
-0.483215

>  <RMSD>
5.084

$$$$
ligand
 OpenBabel02271912153D
libRbt.so/2013.1/901 2013/11/27
 27 29  0  0  0  0  0  0  0  0999 V2000
   46.4348  -28.5527 -100.6870 N   0  0  0  0  0  0  0  0  0  0  0  0
   46.4315  -29.8210 -101.4246 C   0  0  2  0  0  0  0  0  0  0  0  0
   45.1085  -30.5260 -101.2113 C   0  0  0  0  0  0  0  0  0  0  0  0
   44.6274  -30.6039 -100.0910 O   0  0  0  0  0  0  0  0  0  0  0  0
   47.5658  -30.7428 -100.9566 C   0  0  0  0  0  0  0  0  0  0  0  0
   48.9241  -30.1347 -101.2762 C   0  0  0  0  0  0  0  0  0  0  0  0
   49.2142  -29.9106 -103.0731 S   0  0  2  0  0  0  0  0  0  0  0  0
   50.3025  -31.3020 -103.5191 C   0  0  0  0  0  0  0  0  0  0  0  0
   50.4532  -28.6294 -102.8943 C   0  0  0  0  0  0  0  0  0  0  0  0
   50.1829  -27.4047 -103.7272 C   0  0  1  0  0  0  0  0  0  0  0  0
   50.0099  -27.8274 -105.0904 O   0  0  0  0  0  0  0  0  0  0  0  0
   48.8545  -26.9742 -103.2499 C   0  0  1  0  0  0  0  0  0  0  0  0
   49.0061  -25.9372 -102.2818 O   0  0  0  0  0  0  0  0  0  0  0  0
   48.2269  -26.4249 -104.4934 C   0  0  1  0  0  0  0  0  0  0  0  0
   48.5708  -25.0334 -104.6566 O   0  0  0  0  0  0  0  0  0  0  0  0
   48.8121  -27.2562 -105.6743 C   0  0  2  0  0  0  0  0  0  0  0  0
   44.4981  -30.9914 -102.1577 O   0  0  0  0  0  0  0  0  0  0  0  0
   44.1216  -29.6853 -106.2189 N   0  0  0  0  0  0  0  0  0  0  0  0
   44.3773  -28.5102 -105.5930 C   0  0  0  0  0  0  0  0  0  0  0  0
   45.6169  -27.9777 -105.5616 N   0  0  0  0  0  0  0  0  0  0  0  0
   46.6619  -28.6445 -106.0781 C   0  0  0  0  0  0  0  0  0  0  0  0
   46.4419  -29.9191 -106.7181 C   0  0  0  0  0  0  0  0  0  0  0  0
   45.1071  -30.4192 -106.7776 C   0  0  0  0  0  0  0  0  0  0  0  0
   44.8243  -31.6266 -107.3834 N   0  0  0  0  0  0  0  0  0  0  0  0
   47.6322  -30.3662 -107.1355 N   0  0  0  0  0  0  0  0  0  0  0  0
   48.5462  -29.5021 -106.8079 C   0  0  0  0  0  0  0  0  0  0  0  0
   48.0075  -28.4151 -106.1599 N   0  0  0  0  0  0  0  0  0  0  0  0
  2  1  1  1  0  0  0
  2  3  1  0  0  0  0
  2  5  1  0  0  0  0
  3  4  1  0  0  0  0
  3 17  1  0  0  0  0
  5  6  1  0  0  0  0
  7  6  1  1  0  0  0
  7  8  1  0  0  0  0
  7  9  1  0  0  0  0
 10  9  1  1  0  0  0
 10 11  1  0  0  0  0
 10 12  1  0  0  0  0
 11 16  1  0  0  0  0
 12 13  1  1  0  0  0
 12 14  1  0  0  0  0
 14 15  1  6  0  0  0
 14 16  1  0  0  0  0
 16 27  1  1  0  0  0
 18 19  2  0  0  0  0
 18 23  1  0  0  0  0
 19 20  1  0  0  0  0
 20 21  2  0  0  0  0
 21 22  1  0  0  0  0
 21 27  1  0  0  0  0
 22 23  2  0  0  0  0
 22 25  1  0  0  0  0
 23 24  1  0  0  0  0
 25 26  2  0  0  0  0
 26 27  1  0  0  0  0
M  END
>  <CHROM.1>
-45.33090814,-64.74811104,-62.52754112,-101.91704457,-128.99203541,-54.03738101
138.04714312,47.47359562,-29.02976520,-103.98695953,0.40868308,0.58393952
1.77126316

>  <Name>
ligand

>  <RI>
0

>  <Rbt.Current_Directory>
/home/itssahil/PROJECTS/Mol_Feturizer/Test_systems_manuscript/rnas/4l81

>  <Rbt.Executable>
rbdock ($Id: //depot/dev/client3/rdock/2013.1/src/exe/rbdock.cxx#4 $)

>  <Rbt.Library>
libRbt.so (2013.1, Build901 2013/11/27)

>  <Rbt.Parameter_File>
/export/apps/rDock/src/rDock_2013.1_src/data/scripts/dock_solv.prm

>  <Rbt.Receptor>
prm/pocket_docking_6.prm

>  <SCORE>
-5.20535

>  <SCORE.INTER>
-4.85519

>  <SCORE.INTER.CONST>
1

>  <SCORE.INTER.POLAR>
0

>  <SCORE.INTER.ROT>
7

>  <SCORE.INTER.SOLV>
17.7187

>  <SCORE.INTER.VDW>
-17.4097

>  <SCORE.INTER.norm>
-0.179822

>  <SCORE.INTRA>
-0.350158

>  <SCORE.INTRA.DIHEDRAL>
2.00794

>  <SCORE.INTRA.DIHEDRAL.0>
8.34559

>  <SCORE.INTRA.POLAR>
0

>  <SCORE.INTRA.POLAR.0>
0

>  <SCORE.INTRA.REPUL>
0

>  <SCORE.INTRA.REPUL.0>
0

>  <SCORE.INTRA.SOLV>
1.07458

>  <SCORE.INTRA.SOLV.lig_0>
-48.829

>  <SCORE.INTRA.VDW>
-1.89142

>  <SCORE.INTRA.VDW.0>
-1.77092

>  <SCORE.INTRA.norm>
-0.0129688

>  <SCORE.RESTR>
0

>  <SCORE.RESTR.CAVITY>
0

>  <SCORE.RESTR.norm>
0

>  <SCORE.SYSTEM>
0

>  <SCORE.SYSTEM.CONST>
0

>  <SCORE.SYSTEM.DIHEDRAL>
0

>  <SCORE.SYSTEM.SOLV>
0

>  <SCORE.SYSTEM.norm>
0

>  <SCORE.heavy>
27

>  <SCORE.norm>
-0.192791

>  <RMSD>
5.094

$$$$
ligand
 OpenBabel02271912153D
libRbt.so/2013.1/901 2013/11/27
 27 29  0  0  0  0  0  0  0  0999 V2000
   43.8853  -29.3759 -104.9169 N   0  0  0  0  0  0  0  0  0  0  0  0
   44.0642  -29.0606 -103.4952 C   0  0  2  0  0  0  0  0  0  0  0  0
   45.0022  -27.8804 -103.3536 C   0  0  0  0  0  0  0  0  0  0  0  0
   44.7982  -27.0326 -102.4978 O   0  0  0  0  0  0  0  0  0  0  0  0
   44.6490  -30.2538 -102.7273 C   0  0  0  0  0  0  0  0  0  0  0  0
   44.8296  -29.9138 -101.2546 C   0  0  0  0  0  0  0  0  0  0  0  0
   46.4796  -30.3750 -100.6005 S   0  0  2  0  0  0  0  0  0  0  0  0
   46.6666  -29.3410  -99.1120 C   0  0  0  0  0  0  0  0  0  0  0  0
   47.4144  -29.3762 -101.7569 C   0  0  0  0  0  0  0  0  0  0  0  0
   48.9063  -29.5144 -101.6089 C   0  0  1  0  0  0  0  0  0  0  0  0
   49.2335  -30.9098 -101.7217 O   0  0  0  0  0  0  0  0  0  0  0  0
   49.4155  -28.8641 -102.8317 C   0  0  1  0  0  0  0  0  0  0  0  0
   49.7943  -27.5204 -102.5376 O   0  0  0  0  0  0  0  0  0  0  0  0
   50.6304  -29.6798 -103.1494 C   0  0  1  0  0  0  0  0  0  0  0  0
   51.7799  -29.1621 -102.4479 O   0  0  0  0  0  0  0  0  0  0  0  0
   50.3186  -31.1255 -102.6588 C   0  0  2  0  0  0  0  0  0  0  0  0
   45.9845  -27.7840 -104.0683 O   0  0  0  0  0  0  0  0  0  0  0  0
   51.1584  -35.0875 -106.0933 N   0  0  0  0  0  0  0  0  0  0  0  0
   52.0779  -34.4385 -105.3375 C   0  0  0  0  0  0  0  0  0  0  0  0
   51.7251  -33.4700 -104.4665 N   0  0  0  0  0  0  0  0  0  0  0  0
   50.4509  -33.0539 -104.3845 C   0  0  0  0  0  0  0  0  0  0  0  0
   49.4449  -33.6891 -105.2011 C   0  0  0  0  0  0  0  0  0  0  0  0
   49.8526  -34.7464 -106.0678 C   0  0  0  0  0  0  0  0  0  0  0  0
   48.9410  -35.4035 -106.8689 N   0  0  0  0  0  0  0  0  0  0  0  0
   48.2782  -33.0906 -104.9337 N   0  0  0  0  0  0  0  0  0  0  0  0
   48.4752  -32.1576 -104.0504 C   0  0  0  0  0  0  0  0  0  0  0  0
   49.7946  -32.0920 -103.6676 N   0  0  0  0  0  0  0  0  0  0  0  0
  2  1  1  6  0  0  0
  2  3  1  0  0  0  0
  2  5  1  0  0  0  0
  3  4  1  0  0  0  0
  3 17  1  0  0  0  0
  5  6  1  0  0  0  0
  7  6  1  6  0  0  0
  7  8  1  0  0  0  0
  7  9  1  0  0  0  0
 10  9  1  6  0  0  0
 10 11  1  0  0  0  0
 10 12  1  0  0  0  0
 11 16  1  0  0  0  0
 12 13  1  1  0  0  0
 12 14  1  0  0  0  0
 14 15  1  1  0  0  0
 14 16  1  0  0  0  0
 16 27  1  6  0  0  0
 18 19  2  0  0  0  0
 18 23  1  0  0  0  0
 19 20  1  0  0  0  0
 20 21  2  0  0  0  0
 21 22  1  0  0  0  0
 21 27  1  0  0  0  0
 22 23  2  0  0  0  0
 22 25  1  0  0  0  0
 23 24  1  0  0  0  0
 25 26  2  0  0  0  0
 26 27  1  0  0  0  0
M  END
>  <CHROM.1>
141.72602840,-179.99912221,-132.15916252,159.33041600,-177.20693844,55.35985488
-148.41828276,48.17701710,-30.77506002,-103.20772747,2.27576515,-0.18650179
0.69646681

>  <Name>
ligand

>  <RI>
0

>  <Rbt.Current_Directory>
/home/itssahil/PROJECTS/Mol_Feturizer/Test_systems_manuscript/rnas/4l81

>  <Rbt.Executable>
rbdock ($Id: //depot/dev/client3/rdock/2013.1/src/exe/rbdock.cxx#4 $)

>  <Rbt.Library>
libRbt.so (2013.1, Build901 2013/11/27)

>  <Rbt.Parameter_File>
/export/apps/rDock/src/rDock_2013.1_src/data/scripts/dock_solv.prm

>  <Rbt.Receptor>
prm/pocket_docking_8.prm

>  <SCORE>
-14.517

>  <SCORE.INTER>
-13.4466

>  <SCORE.INTER.CONST>
1

>  <SCORE.INTER.POLAR>
0

>  <SCORE.INTER.ROT>
7

>  <SCORE.INTER.SOLV>
13.5816

>  <SCORE.INTER.VDW>
-21.7583

>  <SCORE.INTER.norm>
-0.498023

>  <SCORE.INTRA>
-1.07044

>  <SCORE.INTRA.DIHEDRAL>
0.552028

>  <SCORE.INTRA.DIHEDRAL.0>
8.34559

>  <SCORE.INTRA.POLAR>
0

>  <SCORE.INTRA.POLAR.0>
0

>  <SCORE.INTRA.REPUL>
0

>  <SCORE.INTRA.REPUL.0>
0

>  <SCORE.INTRA.SOLV>
-1.28837

>  <SCORE.INTRA.SOLV.lig_0>
-48.829

>  <SCORE.INTRA.VDW>
-0.702267

>  <SCORE.INTRA.VDW.0>
-1.77092

>  <SCORE.INTRA.norm>
-0.0396458

>  <SCORE.RESTR>
0

>  <SCORE.RESTR.CAVITY>
0

>  <SCORE.RESTR.norm>
0

>  <SCORE.SYSTEM>
0

>  <SCORE.SYSTEM.CONST>
0

>  <SCORE.SYSTEM.DIHEDRAL>
0

>  <SCORE.SYSTEM.SOLV>
0

>  <SCORE.SYSTEM.norm>
0

>  <SCORE.heavy>
27

>  <SCORE.norm>
-0.537668

>  <RMSD>
5.094

$$$$
ligand
 OpenBabel02271912153D
libRbt.so/2013.1/901 2013/11/27
 27 29  0  0  0  0  0  0  0  0999 V2000
   46.8103  -30.0757 -100.7752 N   0  0  0  0  0  0  0  0  0  0  0  0
   45.3820  -29.8961 -101.0590 C   0  0  2  0  0  0  0  0  0  0  0  0
   44.9316  -30.9365 -102.0627 C   0  0  0  0  0  0  0  0  0  0  0  0
   43.7562  -31.2645 -102.1222 O   0  0  0  0  0  0  0  0  0  0  0  0
   45.0967  -28.5003 -101.6296 C   0  0  0  0  0  0  0  0  0  0  0  0
   46.0283  -28.1903 -102.7928 C   0  0  0  0  0  0  0  0  0  0  0  0
   45.6314  -26.6127 -103.6396 S   0  0  2  0  0  0  0  0  0  0  0  0
   44.2002  -27.0254 -104.6888 C   0  0  0  0  0  0  0  0  0  0  0  0
   46.9283  -26.7400 -104.8688 C   0  0  0  0  0  0  0  0  0  0  0  0
   48.1793  -25.9828 -104.5103 C   0  0  1  0  0  0  0  0  0  0  0  0
   48.8051  -26.6613 -103.4081 O   0  0  0  0  0  0  0  0  0  0  0  0
   49.0427  -26.2073 -105.6858 C   0  0  1  0  0  0  0  0  0  0  0  0
   48.9550  -25.0876 -106.5655 O   0  0  0  0  0  0  0  0  0  0  0  0
   50.4085  -26.2723 -105.0756 C   0  0  1  0  0  0  0  0  0  0  0  0
   50.9736  -24.9493 -104.9679 O   0  0  0  0  0  0  0  0  0  0  0  0
   50.2166  -26.8826 -103.6547 C   0  0  2  0  0  0  0  0  0  0  0  0
   45.7299  -31.4299 -102.8400 O   0  0  0  0  0  0  0  0  0  0  0  0
   48.6468  -31.8650 -104.6081 N   0  0  0  0  0  0  0  0  0  0  0  0
   48.0223  -30.7172 -104.9690 C   0  0  0  0  0  0  0  0  0  0  0  0
   48.5523  -29.5057 -104.6997 N   0  0  0  0  0  0  0  0  0  0  0  0
   49.6817  -29.3968 -103.9814 C   0  0  0  0  0  0  0  0  0  0  0  0
   50.3586  -30.5927 -103.5408 C   0  0  0  0  0  0  0  0  0  0  0  0
   49.7929  -31.8537 -103.8951 C   0  0  0  0  0  0  0  0  0  0  0  0
   50.3935  -33.0367 -103.5149 N   0  0  0  0  0  0  0  0  0  0  0  0
   51.4386  -30.2082 -102.8505 N   0  0  0  0  0  0  0  0  0  0  0  0
   51.4799  -28.9094 -102.8205 C   0  0  0  0  0  0  0  0  0  0  0  0
   50.4266  -28.3524 -103.5075 N   0  0  0  0  0  0  0  0  0  0  0  0
  2  1  1  6  0  0  0
  2  3  1  0  0  0  0
  2  5  1  0  0  0  0
  3  4  1  0  0  0  0
  3 17  1  0  0  0  0
  5  6  1  0  0  0  0
  7  6  1  1  0  0  0
  7  8  1  0  0  0  0
  7  9  1  0  0  0  0
 10  9  1  6  0  0  0
 10 11  1  0  0  0  0
 10 12  1  0  0  0  0
 11 16  1  0  0  0  0
 12 13  1  6  0  0  0
 12 14  1  0  0  0  0
 14 15  1  1  0  0  0
 14 16  1  0  0  0  0
 16 27  1  6  0  0  0
 18 19  2  0  0  0  0
 18 23  1  0  0  0  0
 19 20  1  0  0  0  0
 20 21  2  0  0  0  0
 21 22  1  0  0  0  0
 21 27  1  0  0  0  0
 22 23  2  0  0  0  0
 22 25  1  0  0  0  0
 23 24  1  0  0  0  0
 25 26  2  0  0  0  0
 26 27  1  0  0  0  0
M  END
>  <CHROM.1>
156.16189742,50.59525059,173.94407898,-78.20669131,-96.49421739,69.80082339
44.32183654,47.96967169,-28.62748947,-103.66604432,-2.32497054,0.22875250
-0.32735848

>  <Name>
ligand

>  <RI>
0

>  <Rbt.Current_Directory>
/home/itssahil/PROJECTS/Mol_Feturizer/Test_systems_manuscript/rnas/4l81

>  <Rbt.Executable>
rbdock ($Id: //depot/dev/client3/rdock/2013.1/src/exe/rbdock.cxx#4 $)

>  <Rbt.Library>
libRbt.so (2013.1, Build901 2013/11/27)

>  <Rbt.Parameter_File>
/export/apps/rDock/src/rDock_2013.1_src/data/scripts/dock_solv.prm

>  <Rbt.Receptor>
prm/pocket_docking_3.prm

>  <SCORE>
-14.1153

>  <SCORE.INTER>
-10.3811

>  <SCORE.INTER.CONST>
1

>  <SCORE.INTER.POLAR>
0

>  <SCORE.INTER.ROT>
7

>  <SCORE.INTER.SOLV>
10.5489

>  <SCORE.INTER.VDW>
-18.7037

>  <SCORE.INTER.norm>
-0.384485

>  <SCORE.INTRA>
-3.7342

>  <SCORE.INTRA.DIHEDRAL>
-1.99057

>  <SCORE.INTRA.DIHEDRAL.0>
8.34559

>  <SCORE.INTRA.POLAR>
0

>  <SCORE.INTRA.POLAR.0>
0

>  <SCORE.INTRA.REPUL>
0

>  <SCORE.INTRA.REPUL.0>
0

>  <SCORE.INTRA.SOLV>
-0.482718

>  <SCORE.INTRA.SOLV.lig_0>
-48.829

>  <SCORE.INTRA.VDW>
-2.49755

>  <SCORE.INTRA.VDW.0>
-1.77092

>  <SCORE.INTRA.norm>
-0.138304

>  <SCORE.RESTR>
0

>  <SCORE.RESTR.CAVITY>
0

>  <SCORE.RESTR.norm>
0

>  <SCORE.SYSTEM>
0

>  <SCORE.SYSTEM.CONST>
0

>  <SCORE.SYSTEM.DIHEDRAL>
0

>  <SCORE.SYSTEM.SOLV>
0

>  <SCORE.SYSTEM.norm>
0

>  <SCORE.heavy>
27

>  <SCORE.norm>
-0.522789

>  <RMSD>
5.105

$$$$
ligand
 OpenBabel02271912153D
libRbt.so/2013.1/901 2013/11/27
 27 29  0  0  0  0  0  0  0  0999 V2000
   50.8247  -24.8163 -105.2870 N   0  0  0  0  0  0  0  0  0  0  0  0
   49.5355  -24.7012 -104.5960 C   0  0  2  0  0  0  0  0  0  0  0  0
   49.7727  -24.4032 -103.1305 C   0  0  0  0  0  0  0  0  0  0  0  0
   50.7190  -24.9087 -102.5459 O   0  0  0  0  0  0  0  0  0  0  0  0
   48.7209  -25.9966 -104.7132 C   0  0  0  0  0  0  0  0  0  0  0  0
   47.2847  -25.7757 -104.2599 C   0  0  0  0  0  0  0  0  0  0  0  0
   46.3167  -27.3283 -104.1338 S   0  0  2  0  0  0  0  0  0  0  0  0
   44.6219  -26.7615 -103.7791 C   0  0  0  0  0  0  0  0  0  0  0  0
   46.8359  -27.7260 -102.4662 C   0  0  0  0  0  0  0  0  0  0  0  0
   45.8954  -28.6538 -101.7439 C   0  0  1  0  0  0  0  0  0  0  0  0
   45.6686  -29.7962 -102.5867 O   0  0  0  0  0  0  0  0  0  0  0  0
   46.7125  -29.1254 -100.6091 C   0  0  1  0  0  0  0  0  0  0  0  0
   46.4027  -28.3609  -99.4451 O   0  0  0  0  0  0  0  0  0  0  0  0
   46.2401  -30.5357 -100.4352 C   0  0  1  0  0  0  0  0  0  0  0  0
   45.0890  -30.5758  -99.5664 O   0  0  0  0  0  0  0  0  0  0  0  0
   45.8468  -31.0364 -101.8574 C   0  0  2  0  0  0  0  0  0  0  0  0
   49.0428  -23.6326 -102.5318 O   0  0  0  0  0  0  0  0  0  0  0  0
   50.9196  -32.3844 -102.6621 N   0  0  0  0  0  0  0  0  0  0  0  0
   50.4309  -31.5069 -101.7516 C   0  0  0  0  0  0  0  0  0  0  0  0
   49.1065  -31.2838 -101.6205 N   0  0  0  0  0  0  0  0  0  0  0  0
   48.2286  -31.8634 -102.4553 C   0  0  0  0  0  0  0  0  0  0  0  0
   48.7086  -32.7736 -103.4669 C   0  0  0  0  0  0  0  0  0  0  0  0
   50.1116  -33.0233 -103.5345 C   0  0  0  0  0  0  0  0  0  0  0  0
   50.6375  -33.8899 -104.4711 N   0  0  0  0  0  0  0  0  0  0  0  0
   47.6442  -33.2005 -104.1565 N   0  0  0  0  0  0  0  0  0  0  0  0
   46.5759  -32.6384 -103.6745 C   0  0  0  0  0  0  0  0  0  0  0  0
   46.8720  -31.8085 -102.6184 N   0  0  0  0  0  0  0  0  0  0  0  0
  2  1  1  6  0  0  0
  2  3  1  0  0  0  0
  2  5  1  0  0  0  0
  3  4  1  0  0  0  0
  3 17  1  0  0  0  0
  5  6  1  0  0  0  0
  7  6  1  1  0  0  0
  7  8  1  0  0  0  0
  7  9  1  0  0  0  0
 10  9  1  6  0  0  0
 10 11  1  0  0  0  0
 10 12  1  0  0  0  0
 11 16  1  0  0  0  0
 12 13  1  1  0  0  0
 12 14  1  0  0  0  0
 14 15  1  1  0  0  0
 14 16  1  0  0  0  0
 16 27  1  6  0  0  0
 18 19  2  0  0  0  0
 18 23  1  0  0  0  0
 19 20  1  0  0  0  0
 20 21  2  0  0  0  0
 21 22  1  0  0  0  0
 21 27  1  0  0  0  0
 22 23  2  0  0  0  0
 22 25  1  0  0  0  0
 23 24  1  0  0  0  0
 25 26  2  0  0  0  0
 26 27  1  0  0  0  0
M  END
>  <CHROM.1>
-36.43496236,-167.92133619,-171.41968883,-173.42149709,157.97356591,51.81918902
93.31695398,47.83799541,-29.01453588,-102.77899255,-1.48445984,-0.46844691
3.03416333

>  <Name>
ligand

>  <RI>
0

>  <Rbt.Current_Directory>
/home/itssahil/PROJECTS/Mol_Feturizer/Test_systems_manuscript/rnas/4l81

>  <Rbt.Executable>
rbdock ($Id: //depot/dev/client3/rdock/2013.1/src/exe/rbdock.cxx#4 $)

>  <Rbt.Library>
libRbt.so (2013.1, Build901 2013/11/27)

>  <Rbt.Parameter_File>
/export/apps/rDock/src/rDock_2013.1_src/data/scripts/dock_solv.prm

>  <Rbt.Receptor>
prm/pocket_docking_4.prm

>  <SCORE>
-14.8282

>  <SCORE.INTER>
-12.2919

>  <SCORE.INTER.CONST>
1

>  <SCORE.INTER.POLAR>
0

>  <SCORE.INTER.ROT>
7

>  <SCORE.INTER.SOLV>
14.6944

>  <SCORE.INTER.VDW>
-21.3594

>  <SCORE.INTER.norm>
-0.455256

>  <SCORE.INTRA>
-2.53633

>  <SCORE.INTRA.DIHEDRAL>
-2.64998

>  <SCORE.INTRA.DIHEDRAL.0>
8.34559

>  <SCORE.INTRA.POLAR>
0

>  <SCORE.INTRA.POLAR.0>
0

>  <SCORE.INTRA.REPUL>
0

>  <SCORE.INTRA.REPUL.0>
0

>  <SCORE.INTRA.SOLV>
-1.23775

>  <SCORE.INTRA.SOLV.lig_0>
-48.829

>  <SCORE.INTRA.VDW>
-0.592471

>  <SCORE.INTRA.VDW.0>
-1.77092

>  <SCORE.INTRA.norm>
-0.0939383

>  <SCORE.RESTR>
0

>  <SCORE.RESTR.CAVITY>
0

>  <SCORE.RESTR.norm>
0

>  <SCORE.SYSTEM>
0

>  <SCORE.SYSTEM.CONST>
0

>  <SCORE.SYSTEM.DIHEDRAL>
0

>  <SCORE.SYSTEM.SOLV>
0

>  <SCORE.SYSTEM.norm>
0

>  <SCORE.heavy>
27

>  <SCORE.norm>
-0.549194

>  <RMSD>
5.115

$$$$
ligand
 OpenBabel02271912153D
libRbt.so/2013.1/901 2013/11/27
 27 29  0  0  0  0  0  0  0  0999 V2000
   46.6874  -26.8868 -107.2771 N   0  0  0  0  0  0  0  0  0  0  0  0
   47.7993  -26.2614 -106.5522 C   0  0  2  0  0  0  0  0  0  0  0  0
   48.7743  -25.6610 -107.5430 C   0  0  0  0  0  0  0  0  0  0  0  0
   48.7825  -26.0409 -108.7042 O   0  0  0  0  0  0  0  0  0  0  0  0
   48.5432  -27.2827 -105.6810 C   0  0  0  0  0  0  0  0  0  0  0  0
   47.6218  -27.8575 -104.6145 C   0  0  0  0  0  0  0  0  0  0  0  0
   47.0112  -26.5992 -103.4282 S   0  0  2  0  0  0  0  0  0  0  0  0
   48.5225  -26.0040 -102.6028 C   0  0  0  0  0  0  0  0  0  0  0  0
   46.4590  -27.7732 -102.1931 C   0  0  0  0  0  0  0  0  0  0  0  0
   45.0554  -28.2707 -102.4148 C   0  0  1  0  0  0  0  0  0  0  0  0
   44.9421  -28.6733 -103.7904 O   0  0  0  0  0  0  0  0  0  0  0  0
   45.0188  -29.5080 -101.6114 C   0  0  1  0  0  0  0  0  0  0  0  0
   44.4218  -29.2387 -100.3439 O   0  0  0  0  0  0  0  0  0  0  0  0
   44.1222  -30.3925 -102.4212 C   0  0  1  0  0  0  0  0  0  0  0  0
   42.7423  -30.1712 -102.0632 O   0  0  0  0  0  0  0  0  0  0  0  0
   44.3529  -29.9927 -103.9094 C   0  0  2  0  0  0  0  0  0  0  0  0
   49.5343  -24.7727 -107.1993 O   0  0  0  0  0  0  0  0  0  0  0  0
   48.3877  -33.4423 -104.0489 N   0  0  0  0  0  0  0  0  0  0  0  0
   47.7871  -32.9150 -102.9538 C   0  0  0  0  0  0  0  0  0  0  0  0
   46.7362  -32.0747 -103.0559 N   0  0  0  0  0  0  0  0  0  0  0  0
   46.3043  -31.6613 -104.2585 C   0  0  0  0  0  0  0  0  0  0  0  0
   46.9414  -32.1656 -105.4511 C   0  0  0  0  0  0  0  0  0  0  0  0
   48.0130  -33.0950 -105.2983 C   0  0  0  0  0  0  0  0  0  0  0  0
   48.6600  -33.6241 -106.3965 N   0  0  0  0  0  0  0  0  0  0  0  0
   46.3316  -31.5988 -106.4988 N   0  0  0  0  0  0  0  0  0  0  0  0
   45.4018  -30.8008 -106.0651 C   0  0  0  0  0  0  0  0  0  0  0  0
   45.3319  -30.8029 -104.6915 N   0  0  0  0  0  0  0  0  0  0  0  0
  2  1  1  6  0  0  0
  2  3  1  0  0  0  0
  2  5  1  0  0  0  0
  3  4  1  0  0  0  0
  3 17  1  0  0  0  0
  5  6  1  0  0  0  0
  7  6  1  6  0  0  0
  7  8  1  0  0  0  0
  7  9  1  0  0  0  0
 10  9  1  6  0  0  0
 10 11  1  0  0  0  0
 10 12  1  0  0  0  0
 11 16  1  0  0  0  0
 12 13  1  1  0  0  0
 12 14  1  0  0  0  0
 14 15  1  1  0  0  0
 14 16  1  0  0  0  0
 16 27  1  1  0  0  0
 18 19  2  0  0  0  0
 18 23  1  0  0  0  0
 19 20  1  0  0  0  0
 20 21  2  0  0  0  0
 21 22  1  0  0  0  0
 21 27  1  0  0  0  0
 22 23  2  0  0  0  0
 22 25  1  0  0  0  0
 23 24  1  0  0  0  0
 25 26  2  0  0  0  0
 26 27  1  0  0  0  0
M  END
>  <CHROM.1>
-20.17476342,-62.42001240,-62.86681422,-63.08908551,-86.76099832,48.66659827
96.43502967,46.68423410,-29.16743234,-104.41864355,-0.85138360,-0.94332423
-3.05708173

>  <Name>
ligand

>  <RI>
0

>  <Rbt.Current_Directory>
/home/itssahil/PROJECTS/Mol_Feturizer/Test_systems_manuscript/rnas/4l81

>  <Rbt.Executable>
rbdock ($Id: //depot/dev/client3/rdock/2013.1/src/exe/rbdock.cxx#4 $)

>  <Rbt.Library>
libRbt.so (2013.1, Build901 2013/11/27)

>  <Rbt.Parameter_File>
/export/apps/rDock/src/rDock_2013.1_src/data/scripts/dock_solv.prm

>  <Rbt.Receptor>
prm/pocket_docking_7.prm

>  <SCORE>
-12.2427

>  <SCORE.INTER>
-8.96917

>  <SCORE.INTER.CONST>
1

>  <SCORE.INTER.POLAR>
0

>  <SCORE.INTER.ROT>
7

>  <SCORE.INTER.SOLV>
11.2651

>  <SCORE.INTER.VDW>
-18.0011

>  <SCORE.INTER.norm>
-0.332192

>  <SCORE.INTRA>
-3.27351

>  <SCORE.INTRA.DIHEDRAL>
-3.40228

>  <SCORE.INTRA.DIHEDRAL.0>
8.34559

>  <SCORE.INTRA.POLAR>
0

>  <SCORE.INTRA.POLAR.0>
0

>  <SCORE.INTRA.REPUL>
0

>  <SCORE.INTRA.REPUL.0>
0

>  <SCORE.INTRA.SOLV>
0.127309

>  <SCORE.INTRA.SOLV.lig_0>
-48.829

>  <SCORE.INTRA.VDW>
-1.63602

>  <SCORE.INTRA.VDW.0>
-1.77092

>  <SCORE.INTRA.norm>
-0.121241

>  <SCORE.RESTR>
0

>  <SCORE.RESTR.CAVITY>
0

>  <SCORE.RESTR.norm>
0

>  <SCORE.SYSTEM>
0

>  <SCORE.SYSTEM.CONST>
0

>  <SCORE.SYSTEM.DIHEDRAL>
0

>  <SCORE.SYSTEM.SOLV>
0

>  <SCORE.SYSTEM.norm>
0

>  <SCORE.heavy>
27

>  <SCORE.norm>
-0.453433

>  <RMSD>
5.115

$$$$
ligand
 OpenBabel02271912153D
libRbt.so/2013.1/901 2013/11/27
 27 29  0  0  0  0  0  0  0  0999 V2000
   49.9687  -25.6228 -104.5475 N   0  0  0  0  0  0  0  0  0  0  0  0
   49.7515  -26.7075 -103.5837 C   0  0  2  0  0  0  0  0  0  0  0  0
   49.3623  -27.9702 -104.3233 C   0  0  0  0  0  0  0  0  0  0  0  0
   49.3167  -29.0389 -103.7328 O   0  0  0  0  0  0  0  0  0  0  0  0
   48.6399  -26.3546 -102.5861 C   0  0  0  0  0  0  0  0  0  0  0  0
   47.3806  -25.9073 -103.3147 C   0  0  0  0  0  0  0  0  0  0  0  0
   46.3979  -27.3017 -103.9880 S   0  0  2  0  0  0  0  0  0  0  0  0
   44.8797  -26.5092 -104.6095 C   0  0  0  0  0  0  0  0  0  0  0  0
   45.7896  -27.8718 -102.4025 C   0  0  0  0  0  0  0  0  0  0  0  0
   44.7613  -28.9666 -102.5062 C   0  0  1  0  0  0  0  0  0  0  0  0
   45.2401  -29.9332 -103.4568 O   0  0  0  0  0  0  0  0  0  0  0  0
   44.8368  -29.6096 -101.1801 C   0  0  1  0  0  0  0  0  0  0  0  0
   43.8002  -29.1016 -100.3417 O   0  0  0  0  0  0  0  0  0  0  0  0
   44.5742  -31.0479 -101.5032 C   0  0  1  0  0  0  0  0  0  0  0  0
   43.1558  -31.3118 -101.5019 O   0  0  0  0  0  0  0  0  0  0  0  0
   45.1541  -31.2814 -102.9305 C   0  0  2  0  0  0  0  0  0  0  0  0
   49.0599  -27.9257 -105.5029 O   0  0  0  0  0  0  0  0  0  0  0  0
   50.2451  -31.2274 -101.4216 N   0  0  0  0  0  0  0  0  0  0  0  0
   49.2554  -30.3901 -101.0249 C   0  0  0  0  0  0  0  0  0  0  0  0
   47.9850  -30.5388 -101.4547 N   0  0  0  0  0  0  0  0  0  0  0  0
   47.6756  -31.4753 -102.3662 C   0  0  0  0  0  0  0  0  0  0  0  0
   48.7069  -32.3626 -102.8475 C   0  0  0  0  0  0  0  0  0  0  0  0
   50.0252  -32.2060 -102.3249 C   0  0  0  0  0  0  0  0  0  0  0  0
   51.0566  -33.0266 -102.7342 N   0  0  0  0  0  0  0  0  0  0  0  0
   48.1413  -33.1848 -103.7390 N   0  0  0  0  0  0  0  0  0  0  0  0
   46.8823  -32.8822 -103.8527 C   0  0  0  0  0  0  0  0  0  0  0  0
   46.5343  -31.8404 -103.0250 N   0  0  0  0  0  0  0  0  0  0  0  0
  2  1  1  6  0  0  0
  2  3  1  0  0  0  0
  2  5  1  0  0  0  0
  3  4  1  0  0  0  0
  3 17  1  0  0  0  0
  5  6  1  0  0  0  0
  7  6  1  1  0  0  0
  7  8  1  0  0  0  0
  7  9  1  0  0  0  0
 10  9  1  1  0  0  0
 10 11  1  0  0  0  0
 10 12  1  0  0  0  0
 11 16  1  0  0  0  0
 12 13  1  1  0  0  0
 12 14  1  0  0  0  0
 14 15  1  6  0  0  0
 14 16  1  0  0  0  0
 16 27  1  1  0  0  0
 18 19  2  0  0  0  0
 18 23  1  0  0  0  0
 19 20  1  0  0  0  0
 20 21  2  0  0  0  0
 21 22  1  0  0  0  0
 21 27  1  0  0  0  0
 22 23  2  0  0  0  0
 22 25  1  0  0  0  0
 23 24  1  0  0  0  0
 25 26  2  0  0  0  0
 26 27  1  0  0  0  0
M  END
>  <CHROM.1>
169.76389152,51.76209869,78.84064314,173.27830095,173.06511389,45.76571968
66.33724147,47.25196898,-29.51902946,-102.91168501,-1.38324953,-0.21547999
2.87024866

>  <Name>
ligand

>  <RI>
0

>  <Rbt.Current_Directory>
/home/itssahil/PROJECTS/Mol_Feturizer/Test_systems_manuscript/rnas/4l81

>  <Rbt.Executable>
rbdock ($Id: //depot/dev/client3/rdock/2013.1/src/exe/rbdock.cxx#4 $)

>  <Rbt.Library>
libRbt.so (2013.1, Build901 2013/11/27)

>  <Rbt.Parameter_File>
/export/apps/rDock/src/rDock_2013.1_src/data/scripts/dock_solv.prm

>  <Rbt.Receptor>
prm/pocket_docking_3.prm

>  <SCORE>
-16.0323

>  <SCORE.INTER>
-12.1551

>  <SCORE.INTER.CONST>
1

>  <SCORE.INTER.POLAR>
0

>  <SCORE.INTER.ROT>
7

>  <SCORE.INTER.SOLV>
13.1303

>  <SCORE.INTER.VDW>
-20.7468

>  <SCORE.INTER.norm>
-0.450188

>  <SCORE.INTRA>
-3.87721

>  <SCORE.INTRA.DIHEDRAL>
-2.95813

>  <SCORE.INTRA.DIHEDRAL.0>
8.34559

>  <SCORE.INTRA.POLAR>
0

>  <SCORE.INTRA.POLAR.0>
0

>  <SCORE.INTRA.REPUL>
0

>  <SCORE.INTRA.REPUL.0>
0

>  <SCORE.INTRA.SOLV>
0.116376

>  <SCORE.INTRA.SOLV.lig_0>
-48.829

>  <SCORE.INTRA.VDW>
-2.45633

>  <SCORE.INTRA.VDW.0>
-1.77092

>  <SCORE.INTRA.norm>
-0.1436

>  <SCORE.RESTR>
0

>  <SCORE.RESTR.CAVITY>
0

>  <SCORE.RESTR.norm>
0

>  <SCORE.SYSTEM>
0

>  <SCORE.SYSTEM.CONST>
0

>  <SCORE.SYSTEM.DIHEDRAL>
0

>  <SCORE.SYSTEM.SOLV>
0

>  <SCORE.SYSTEM.norm>
0

>  <SCORE.heavy>
27

>  <SCORE.norm>
-0.593788

>  <RMSD>
5.118

$$$$
ligand
 OpenBabel02271912153D
libRbt.so/2013.1/901 2013/11/27
 27 29  0  0  0  0  0  0  0  0999 V2000
   48.3587  -28.2438 -106.8652 N   0  0  0  0  0  0  0  0  0  0  0  0
   47.1680  -27.6273 -107.4607 C   0  0  2  0  0  0  0  0  0  0  0  0
   47.5806  -26.7547 -108.6274 C   0  0  0  0  0  0  0  0  0  0  0  0
   46.7729  -26.4726 -109.4996 O   0  0  0  0  0  0  0  0  0  0  0  0
   46.4146  -26.7651 -106.4388 C   0  0  0  0  0  0  0  0  0  0  0  0
   46.0480  -27.5814 -105.2075 C   0  0  0  0  0  0  0  0  0  0  0  0
   45.3797  -26.5645 -103.8353 S   0  0  2  0  0  0  0  0  0  0  0  0
   46.7420  -25.4248 -103.4295 C   0  0  0  0  0  0  0  0  0  0  0  0
   45.6484  -27.7914 -102.5581 C   0  0  0  0  0  0  0  0  0  0  0  0
   44.6106  -28.8820 -102.5377 C   0  0  1  0  0  0  0  0  0  0  0  0
   44.9883  -29.8689 -103.5125 O   0  0  0  0  0  0  0  0  0  0  0  0
   44.8156  -29.5005 -101.2136 C   0  0  1  0  0  0  0  0  0  0  0  0
   43.8700  -28.9710 -100.2859 O   0  0  0  0  0  0  0  0  0  0  0  0
   44.5166  -30.9431 -101.4812 C   0  0  1  0  0  0  0  0  0  0  0  0
   43.1044  -31.1987 -101.3334 O   0  0  0  0  0  0  0  0  0  0  0  0
   44.9502  -31.2065 -102.9546 C   0  0  2  0  0  0  0  0  0  0  0  0
   48.7097  -26.3005 -108.6888 O   0  0  0  0  0  0  0  0  0  0  0  0
   50.0456  -31.6164 -101.5170 N   0  0  0  0  0  0  0  0  0  0  0  0
   49.0840  -30.8495 -100.9469 C   0  0  0  0  0  0  0  0  0  0  0  0
   47.8080  -30.8685 -101.3857 N   0  0  0  0  0  0  0  0  0  0  0  0
   47.4663  -31.5878 -102.4670 C   0  0  0  0  0  0  0  0  0  0  0  0
   48.4677  -32.3874 -103.1306 C   0  0  0  0  0  0  0  0  0  0  0  0
   49.7920  -32.3812 -102.6000 C   0  0  0  0  0  0  0  0  0  0  0  0
   50.7958  -33.1305 -103.1794 N   0  0  0  0  0  0  0  0  0  0  0  0
   47.8734  -32.9913 -104.1664 N   0  0  0  0  0  0  0  0  0  0  0  0
   46.6242  -32.6343 -104.2032 C   0  0  0  0  0  0  0  0  0  0  0  0
   46.3118  -31.7751 -103.1756 N   0  0  0  0  0  0  0  0  0  0  0  0
  2  1  1  1  0  0  0
  2  3  1  0  0  0  0
  2  5  1  0  0  0  0
  3  4  1  0  0  0  0
  3 17  1  0  0  0  0
  5  6  1  0  0  0  0
  7  6  1  6  0  0  0
  7  8  1  0  0  0  0
  7  9  1  0  0  0  0
 10  9  1  1  0  0  0
 10 11  1  0  0  0  0
 10 12  1  0  0  0  0
 11 16  1  0  0  0  0
 12 13  1  1  0  0  0
 12 14  1  0  0  0  0
 14 15  1  6  0  0  0
 14 16  1  0  0  0  0
 16 27  1  1  0  0  0
 18 19  2  0  0  0  0
 18 23  1  0  0  0  0
 19 20  1  0  0  0  0
 20 21  2  0  0  0  0
 21 22  1  0  0  0  0
 21 27  1  0  0  0  0
 22 23  2  0  0  0  0
 22 25  1  0  0  0  0
 23 24  1  0  0  0  0
 25 26  2  0  0  0  0
 26 27  1  0  0  0  0
M  END
>  <CHROM.1>
158.01216783,-55.92216164,171.03765760,-61.10359764,-78.59429212,83.58212859
80.42808482,46.69112809,-29.41555557,-103.83921553,-1.54543385,-0.63521080
2.32532219

>  <Name>
ligand

>  <RI>
0

>  <Rbt.Current_Directory>
/home/itssahil/PROJECTS/Mol_Feturizer/Test_systems_manuscript/rnas/4l81

>  <Rbt.Executable>
rbdock ($Id: //depot/dev/client3/rdock/2013.1/src/exe/rbdock.cxx#4 $)

>  <Rbt.Library>
libRbt.so (2013.1, Build901 2013/11/27)

>  <Rbt.Parameter_File>
/export/apps/rDock/src/rDock_2013.1_src/data/scripts/dock_solv.prm

>  <Rbt.Receptor>
prm/pocket_docking_5.prm

>  <SCORE>
-16.6829

>  <SCORE.INTER>
-14.2251

>  <SCORE.INTER.CONST>
1

>  <SCORE.INTER.POLAR>
0

>  <SCORE.INTER.ROT>
7

>  <SCORE.INTER.SOLV>
13.3999

>  <SCORE.INTER.VDW>
-22.2167

>  <SCORE.INTER.norm>
-0.526857

>  <SCORE.INTRA>
-2.45772

>  <SCORE.INTRA.DIHEDRAL>
-2.49513

>  <SCORE.INTRA.DIHEDRAL.0>
8.34559

>  <SCORE.INTRA.POLAR>
0

>  <SCORE.INTRA.POLAR.0>
0

>  <SCORE.INTRA.REPUL>
0

>  <SCORE.INTRA.REPUL.0>
0

>  <SCORE.INTRA.SOLV>
-0.464257

>  <SCORE.INTRA.SOLV.lig_0>
-48.829

>  <SCORE.INTRA.VDW>
-0.978029

>  <SCORE.INTRA.VDW.0>
-1.77092

>  <SCORE.INTRA.norm>
-0.0910267

>  <SCORE.RESTR>
0

>  <SCORE.RESTR.CAVITY>
0

>  <SCORE.RESTR.norm>
0

>  <SCORE.SYSTEM>
0

>  <SCORE.SYSTEM.CONST>
0

>  <SCORE.SYSTEM.DIHEDRAL>
0

>  <SCORE.SYSTEM.SOLV>
0

>  <SCORE.SYSTEM.norm>
0

>  <SCORE.heavy>
27

>  <SCORE.norm>
-0.617883

>  <RMSD>
5.118

$$$$
ligand
 OpenBabel02271912153D
libRbt.so/2013.1/901 2013/11/27
 27 29  0  0  0  0  0  0  0  0999 V2000
   45.9862  -29.6760 -105.4115 N   0  0  0  0  0  0  0  0  0  0  0  0
   45.5089  -29.6198 -104.0252 C   0  0  2  0  0  0  0  0  0  0  0  0
   43.9950  -29.5953 -104.0126 C   0  0  0  0  0  0  0  0  0  0  0  0
   43.3802  -29.1273 -104.9590 O   0  0  0  0  0  0  0  0  0  0  0  0
   46.0312  -28.3694 -103.3046 C   0  0  0  0  0  0  0  0  0  0  0  0
   45.7527  -28.4499 -101.8103 C   0  0  0  0  0  0  0  0  0  0  0  0
   46.3497  -30.0053 -101.0437 S   0  0  2  0  0  0  0  0  0  0  0  0
   46.2205  -29.6904  -99.2538 C   0  0  0  0  0  0  0  0  0  0  0  0
   48.0923  -29.6554 -101.2666 C   0  0  0  0  0  0  0  0  0  0  0  0
   48.9860  -30.8387 -101.0061 C   0  0  1  0  0  0  0  0  0  0  0  0
   48.7090  -31.8302 -102.0097 O   0  0  0  0  0  0  0  0  0  0  0  0
   50.3285  -30.3036 -101.3045 C   0  0  1  0  0  0  0  0  0  0  0  0
   50.9682  -29.9108 -100.0913 O   0  0  0  0  0  0  0  0  0  0  0  0
   51.0271  -31.4918 -101.8894 C   0  0  1  0  0  0  0  0  0  0  0  0
   51.6244  -32.2874 -100.8446 O   0  0  0  0  0  0  0  0  0  0  0  0
   49.9288  -32.3196 -102.6218 C   0  0  2  0  0  0  0  0  0  0  0  0
   43.3783  -30.0711 -103.0756 O   0  0  0  0  0  0  0  0  0  0  0  0
   50.8368  -33.8220 -107.6335 N   0  0  0  0  0  0  0  0  0  0  0  0
   51.2807  -34.4154 -106.4983 C   0  0  0  0  0  0  0  0  0  0  0  0
   50.9409  -33.9541 -105.2765 N   0  0  0  0  0  0  0  0  0  0  0  0
   50.2179  -32.8300 -105.1458 C   0  0  0  0  0  0  0  0  0  0  0  0
   49.7586  -32.1422 -106.3283 C   0  0  0  0  0  0  0  0  0  0  0  0
   50.0941  -32.6953 -107.5999 C   0  0  0  0  0  0  0  0  0  0  0  0
   49.6791  -32.0944 -108.7709 N   0  0  0  0  0  0  0  0  0  0  0  0
   49.0753  -31.0653 -105.9230 N   0  0  0  0  0  0  0  0  0  0  0  0
   49.0814  -31.0259 -104.6239 C   0  0  0  0  0  0  0  0  0  0  0  0
   49.7644  -32.0923 -104.0873 N   0  0  0  0  0  0  0  0  0  0  0  0
  2  1  1  6  0  0  0
  2  3  1  0  0  0  0
  2  5  1  0  0  0  0
  3  4  1  0  0  0  0
  3 17  1  0  0  0  0
  5  6  1  0  0  0  0
  7  6  1  6  0  0  0
  7  8  1  0  0  0  0
  7  9  1  0  0  0  0
 10  9  1  6  0  0  0
 10 11  1  0  0  0  0
 10 12  1  0  0  0  0
 11 16  1  0  0  0  0
 12 13  1  1  0  0  0
 12 14  1  0  0  0  0
 14 15  1  1  0  0  0
 14 16  1  0  0  0  0
 16 27  1  6  0  0  0
 18 19  2  0  0  0  0
 18 23  1  0  0  0  0
 19 20  1  0  0  0  0
 20 21  2  0  0  0  0
 21 22  1  0  0  0  0
 21 27  1  0  0  0  0
 22 23  2  0  0  0  0
 22 25  1  0  0  0  0
 23 24  1  0  0  0  0
 25 26  2  0  0  0  0
 26 27  1  0  0  0  0
M  END
>  <CHROM.1>
-27.71285503,-169.37558524,52.32558074,168.32671607,-168.37467296,65.68455796
-146.28552481,48.25594017,-30.99331337,-103.48183355,2.44810806,-0.43558659
1.30362958

>  <Name>
ligand

>  <RI>
0

>  <Rbt.Current_Directory>
/home/itssahil/PROJECTS/Mol_Feturizer/Test_systems_manuscript/rnas/4l81

>  <Rbt.Executable>
rbdock ($Id: //depot/dev/client3/rdock/2013.1/src/exe/rbdock.cxx#4 $)

>  <Rbt.Library>
libRbt.so (2013.1, Build901 2013/11/27)

>  <Rbt.Parameter_File>
/export/apps/rDock/src/rDock_2013.1_src/data/scripts/dock_solv.prm

>  <Rbt.Receptor>
prm/pocket_docking_8.prm

>  <SCORE>
-14.82

>  <SCORE.INTER>
-11.9354

>  <SCORE.INTER.CONST>
1

>  <SCORE.INTER.POLAR>
0

>  <SCORE.INTER.ROT>
7

>  <SCORE.INTER.SOLV>
15.2706

>  <SCORE.INTER.VDW>
-21.3138

>  <SCORE.INTER.norm>
-0.442051

>  <SCORE.INTRA>
-2.88457

>  <SCORE.INTRA.DIHEDRAL>
-3.2037

>  <SCORE.INTRA.DIHEDRAL.0>
8.34559

>  <SCORE.INTRA.POLAR>
0

>  <SCORE.INTRA.POLAR.0>
0

>  <SCORE.INTRA.REPUL>
0

>  <SCORE.INTRA.REPUL.0>
0

>  <SCORE.INTRA.SOLV>
-0.339175

>  <SCORE.INTRA.SOLV.lig_0>
-48.829

>  <SCORE.INTRA.VDW>
-1.11314

>  <SCORE.INTRA.VDW.0>
-1.77092

>  <SCORE.INTRA.norm>
-0.106836

>  <SCORE.RESTR>
0

>  <SCORE.RESTR.CAVITY>
0

>  <SCORE.RESTR.norm>
0

>  <SCORE.SYSTEM>
0

>  <SCORE.SYSTEM.CONST>
0

>  <SCORE.SYSTEM.DIHEDRAL>
0

>  <SCORE.SYSTEM.SOLV>
0

>  <SCORE.SYSTEM.norm>
0

>  <SCORE.heavy>
27

>  <SCORE.norm>
-0.548887

>  <RMSD>
5.121

$$$$
ligand
 OpenBabel02271912153D
libRbt.so/2013.1/901 2013/11/27
 27 29  0  0  0  0  0  0  0  0999 V2000
   51.0859  -25.4308 -105.4131 N   0  0  0  0  0  0  0  0  0  0  0  0
   49.8280  -25.1609 -104.7077 C   0  0  2  0  0  0  0  0  0  0  0  0
   50.1141  -24.9140 -103.2414 C   0  0  0  0  0  0  0  0  0  0  0  0
   50.8570  -25.6633 -102.6256 O   0  0  0  0  0  0  0  0  0  0  0  0
   48.8537  -26.3402 -104.8312 C   0  0  0  0  0  0  0  0  0  0  0  0
   47.4698  -25.9540 -104.3287 C   0  0  0  0  0  0  0  0  0  0  0  0
   46.3529  -27.3909 -104.1023 S   0  0  2  0  0  0  0  0  0  0  0  0
   44.7273  -26.6361 -103.7746 C   0  0  0  0  0  0  0  0  0  0  0  0
   46.8484  -27.7367 -102.4159 C   0  0  0  0  0  0  0  0  0  0  0  0
   45.9126  -28.6645 -101.6877 C   0  0  1  0  0  0  0  0  0  0  0  0
   45.6881  -29.8114 -102.5251 O   0  0  0  0  0  0  0  0  0  0  0  0
   46.7336  -29.1283 -100.5526 C   0  0  1  0  0  0  0  0  0  0  0  0
   46.4233  -28.3598  -99.3913 O   0  0  0  0  0  0  0  0  0  0  0  0
   46.2665  -30.5394 -100.3715 C   0  0  1  0  0  0  0  0  0  0  0  0
   45.1173  -30.5798  -99.5003 O   0  0  0  0  0  0  0  0  0  0  0  0
   45.8721  -31.0478 -101.7907 C   0  0  2  0  0  0  0  0  0  0  0  0
   49.6332  -23.9492 -102.6731 O   0  0  0  0  0  0  0  0  0  0  0  0
   50.9504  -32.3628 -102.6155 N   0  0  0  0  0  0  0  0  0  0  0  0
   50.4606  -31.4795 -101.7112 C   0  0  0  0  0  0  0  0  0  0  0  0
   49.1353  -31.2658 -101.5734 N   0  0  0  0  0  0  0  0  0  0  0  0
   48.2566  -31.8616 -102.3959 C   0  0  0  0  0  0  0  0  0  0  0  0
   48.7373  -32.7787 -103.4010 C   0  0  0  0  0  0  0  0  0  0  0  0
   50.1418  -33.0176 -103.4754 C   0  0  0  0  0  0  0  0  0  0  0  0
   50.6685  -33.8899 -104.4063 N   0  0  0  0  0  0  0  0  0  0  0  0
   47.6718  -33.2217 -104.0787 N   0  0  0  0  0  0  0  0  0  0  0  0
   46.6022  -32.6632 -103.5955 C   0  0  0  0  0  0  0  0  0  0  0  0
   46.8985  -31.8196 -102.5504 N   0  0  0  0  0  0  0  0  0  0  0  0
  2  1  1  6  0  0  0
  2  3  1  0  0  0  0
  2  5  1  0  0  0  0
  3  4  1  0  0  0  0
  3 17  1  0  0  0  0
  5  6  1  0  0  0  0
  7  6  1  1  0  0  0
  7  8  1  0  0  0  0
  7  9  1  0  0  0  0
 10  9  1  6  0  0  0
 10 11  1  0  0  0  0
 10 12  1  0  0  0  0
 11 16  1  0  0  0  0
 12 13  1  1  0  0  0
 12 14  1  0  0  0  0
 14 15  1  1  0  0  0
 14 16  1  0  0  0  0
 16 27  1  6  0  0  0
 18 19  2  0  0  0  0
 18 23  1  0  0  0  0
 19 20  1  0  0  0  0
 20 21  2  0  0  0  0
 21 22  1  0  0  0  0
 21 27  1  0  0  0  0
 22 23  2  0  0  0  0
 22 25  1  0  0  0  0
 23 24  1  0  0  0  0
 25 26  2  0  0  0  0
 26 27  1  0  0  0  0
M  END
>  <CHROM.1>
-46.62088113,-169.31314714,-167.51342215,-170.98721917,165.31525322,49.91472757
92.78618493,47.93177017,-29.13227214,-102.76603860,-1.44083942,-0.47176270
3.01445842

>  <Name>
ligand

>  <RI>
0

>  <Rbt.Current_Directory>
/home/itssahil/PROJECTS/Mol_Feturizer/Test_systems_manuscript/rnas/4l81

>  <Rbt.Executable>
rbdock ($Id: //depot/dev/client3/rdock/2013.1/src/exe/rbdock.cxx#4 $)

>  <Rbt.Library>
libRbt.so (2013.1, Build901 2013/11/27)

>  <Rbt.Parameter_File>
/export/apps/rDock/src/rDock_2013.1_src/data/scripts/dock_solv.prm

>  <Rbt.Receptor>
prm/pocket_docking_4.prm

>  <SCORE>
-14.9017

>  <SCORE.INTER>
-12.0525

>  <SCORE.INTER.CONST>
1

>  <SCORE.INTER.POLAR>
0

>  <SCORE.INTER.ROT>
7

>  <SCORE.INTER.SOLV>
16.0373

>  <SCORE.INTER.VDW>
-21.6474

>  <SCORE.INTER.norm>
-0.446388

>  <SCORE.INTRA>
-2.84925

>  <SCORE.INTRA.DIHEDRAL>
-2.6342

>  <SCORE.INTRA.DIHEDRAL.0>
8.34559

>  <SCORE.INTRA.POLAR>
0

>  <SCORE.INTRA.POLAR.0>
0

>  <SCORE.INTRA.REPUL>
0

>  <SCORE.INTRA.REPUL.0>
0

>  <SCORE.INTRA.SOLV>
-1.24947

>  <SCORE.INTRA.SOLV.lig_0>
-48.829

>  <SCORE.INTRA.VDW>
-0.907416

>  <SCORE.INTRA.VDW.0>
-1.77092

>  <SCORE.INTRA.norm>
-0.105528

>  <SCORE.RESTR>
0

>  <SCORE.RESTR.CAVITY>
0

>  <SCORE.RESTR.norm>
0

>  <SCORE.SYSTEM>
0

>  <SCORE.SYSTEM.CONST>
0

>  <SCORE.SYSTEM.DIHEDRAL>
0

>  <SCORE.SYSTEM.SOLV>
0

>  <SCORE.SYSTEM.norm>
0

>  <SCORE.heavy>
27

>  <SCORE.norm>
-0.551916

>  <RMSD>
5.128

$$$$
ligand
 OpenBabel02271912153D
libRbt.so/2013.1/901 2013/11/27
 27 29  0  0  0  0  0  0  0  0999 V2000
   47.7085  -25.5863 -107.8618 N   0  0  0  0  0  0  0  0  0  0  0  0
   47.7117  -26.2509 -106.5537 C   0  0  2  0  0  0  0  0  0  0  0  0
   49.0900  -26.8128 -106.2759 C   0  0  0  0  0  0  0  0  0  0  0  0
   49.5586  -26.7620 -105.1487 O   0  0  0  0  0  0  0  0  0  0  0  0
   46.6906  -27.3956 -106.5058 C   0  0  0  0  0  0  0  0  0  0  0  0
   46.5279  -27.9168 -105.0850 C   0  0  0  0  0  0  0  0  0  0  0  0
   45.5819  -26.7811 -103.9994 S   0  0  2  0  0  0  0  0  0  0  0  0
   46.8013  -25.5154 -103.5191 C   0  0  0  0  0  0  0  0  0  0  0  0
   45.6642  -27.8193 -102.5419 C   0  0  0  0  0  0  0  0  0  0  0  0
   44.6262  -28.9096 -102.5154 C   0  0  1  0  0  0  0  0  0  0  0  0
   45.0007  -29.8992 -103.4888 O   0  0  0  0  0  0  0  0  0  0  0  0
   44.8352  -29.5246 -101.1903 C   0  0  1  0  0  0  0  0  0  0  0  0
   43.8925  -28.9924 -100.2610 O   0  0  0  0  0  0  0  0  0  0  0  0
   44.5350  -30.9678 -101.4532 C   0  0  1  0  0  0  0  0  0  0  0  0
   43.1232  -31.2227 -101.3003 O   0  0  0  0  0  0  0  0  0  0  0  0
   44.9639  -31.2353 -102.9271 C   0  0  2  0  0  0  0  0  0  0  0  0
   49.7282  -27.3490 -107.1648 O   0  0  0  0  0  0  0  0  0  0  0  0
   50.0873  -31.5607 -101.5694 N   0  0  0  0  0  0  0  0  0  0  0  0
   49.1316  -30.7770 -101.0121 C   0  0  0  0  0  0  0  0  0  0  0  0
   47.8479  -30.8202 -101.4260 N   0  0  0  0  0  0  0  0  0  0  0  0
   47.4909  -31.5834 -102.4717 C   0  0  0  0  0  0  0  0  0  0  0  0
   48.4848  -32.4032 -103.1218 C   0  0  0  0  0  0  0  0  0  0  0  0
   49.8186  -32.3689 -102.6166 C   0  0  0  0  0  0  0  0  0  0  0  0
   50.8162  -33.1350 -103.1845 N   0  0  0  0  0  0  0  0  0  0  0  0
   47.8754  -33.0506 -104.1219 N   0  0  0  0  0  0  0  0  0  0  0  0
   46.6235  -32.7021 -104.1494 C   0  0  0  0  0  0  0  0  0  0  0  0
   46.3248  -31.8048 -103.1508 N   0  0  0  0  0  0  0  0  0  0  0  0
  2  1  1  6  0  0  0
  2  3  1  0  0  0  0
  2  5  1  0  0  0  0
  3  4  1  0  0  0  0
  3 17  1  0  0  0  0
  5  6  1  0  0  0  0
  7  6  1  6  0  0  0
  7  8  1  0  0  0  0
  7  9  1  0  0  0  0
 10  9  1  1  0  0  0
 10 11  1  0  0  0  0
 10 12  1  0  0  0  0
 11 16  1  0  0  0  0
 12 13  1  1  0  0  0
 12 14  1  0  0  0  0
 14 15  1  6  0  0  0
 14 16  1  0  0  0  0
 16 27  1  1  0  0  0
 18 19  2  0  0  0  0
 18 23  1  0  0  0  0
 19 20  1  0  0  0  0
 20 21  2  0  0  0  0
 21 22  1  0  0  0  0
 21 27  1  0  0  0  0
 22 23  2  0  0  0  0
 22 25  1  0  0  0  0
 23 24  1  0  0  0  0
 25 26  2  0  0  0  0
 26 27  1  0  0  0  0
M  END
>  <CHROM.1>
141.38953054,-170.12758085,73.70200756,-79.74433464,-82.28893975,72.39989028
78.12084916,46.94709452,-29.39395932,-103.54096501,-1.39262201,-0.46986289
2.56751703

>  <Name>
ligand

>  <RI>
0

>  <Rbt.Current_Directory>
/home/itssahil/PROJECTS/Mol_Feturizer/Test_systems_manuscript/rnas/4l81

>  <Rbt.Executable>
rbdock ($Id: //depot/dev/client3/rdock/2013.1/src/exe/rbdock.cxx#4 $)

>  <Rbt.Library>
libRbt.so (2013.1, Build901 2013/11/27)

>  <Rbt.Parameter_File>
/export/apps/rDock/src/rDock_2013.1_src/data/scripts/dock_solv.prm

>  <Rbt.Receptor>
prm/pocket_docking_4.prm

>  <SCORE>
-16.1802

>  <SCORE.INTER>
-12.7172

>  <SCORE.INTER.CONST>
1

>  <SCORE.INTER.POLAR>
0

>  <SCORE.INTER.ROT>
7

>  <SCORE.INTER.SOLV>
11.9989

>  <SCORE.INTER.VDW>
-20.7444

>  <SCORE.INTER.norm>
-0.471007

>  <SCORE.INTRA>
-3.46302

>  <SCORE.INTRA.DIHEDRAL>
-2.61745

>  <SCORE.INTRA.DIHEDRAL.0>
8.34559

>  <SCORE.INTRA.POLAR>
0

>  <SCORE.INTRA.POLAR.0>
0

>  <SCORE.INTRA.REPUL>
0

>  <SCORE.INTRA.REPUL.0>
0

>  <SCORE.INTRA.SOLV>
-0.855196

>  <SCORE.INTRA.SOLV.lig_0>
-48.829

>  <SCORE.INTRA.VDW>
-1.7267

>  <SCORE.INTRA.VDW.0>
-1.77092

>  <SCORE.INTRA.norm>
-0.12826

>  <SCORE.RESTR>
0

>  <SCORE.RESTR.CAVITY>
0

>  <SCORE.RESTR.norm>
0

>  <SCORE.SYSTEM>
0

>  <SCORE.SYSTEM.CONST>
0

>  <SCORE.SYSTEM.DIHEDRAL>
0

>  <SCORE.SYSTEM.SOLV>
0

>  <SCORE.SYSTEM.norm>
0

>  <SCORE.heavy>
27

>  <SCORE.norm>
-0.599267

>  <RMSD>
5.133

$$$$
ligand
 OpenBabel02271912153D
libRbt.so/2013.1/901 2013/11/27
 27 29  0  0  0  0  0  0  0  0999 V2000
   44.6881  -26.6996 -103.4920 N   0  0  0  0  0  0  0  0  0  0  0  0
   46.1445  -26.8032 -103.6366 C   0  0  2  0  0  0  0  0  0  0  0  0
   46.5156  -26.6977 -105.1009 C   0  0  0  0  0  0  0  0  0  0  0  0
   47.0924  -25.7050 -105.5186 O   0  0  0  0  0  0  0  0  0  0  0  0
   46.6673  -28.1375 -103.0874 C   0  0  0  0  0  0  0  0  0  0  0  0
   46.4390  -28.2314 -101.5854 C   0  0  0  0  0  0  0  0  0  0  0  0
   46.6477  -29.9293 -100.9245 S   0  0  2  0  0  0  0  0  0  0  0  0
   46.1068  -29.7948  -99.1898 C   0  0  0  0  0  0  0  0  0  0  0  0
   48.4178  -29.8074 -100.6782 C   0  0  0  0  0  0  0  0  0  0  0  0
   49.2269  -30.4902 -101.7487 C   0  0  1  0  0  0  0  0  0  0  0  0
   49.0100  -29.7852 -102.9828 O   0  0  0  0  0  0  0  0  0  0  0  0
   50.6152  -30.2023 -101.3396 C   0  0  1  0  0  0  0  0  0  0  0  0
   51.1446  -31.3169 -100.6235 O   0  0  0  0  0  0  0  0  0  0  0  0
   51.3165  -30.0598 -102.6549 C   0  0  1  0  0  0  0  0  0  0  0  0
   51.7681  -31.3469 -103.1248 O   0  0  0  0  0  0  0  0  0  0  0  0
   50.2630  -29.4759 -103.6435 C   0  0  2  0  0  0  0  0  0  0  0  0
   46.2723  -27.6141 -105.8663 O   0  0  0  0  0  0  0  0  0  0  0  0
   49.6254  -25.2746 -106.8279 N   0  0  0  0  0  0  0  0  0  0  0  0
   49.5467  -26.5861 -107.1623 C   0  0  0  0  0  0  0  0  0  0  0  0
   49.6887  -27.5630 -106.2423 N   0  0  0  0  0  0  0  0  0  0  0  0
   50.0029  -27.2659 -104.9709 C   0  0  0  0  0  0  0  0  0  0  0  0
   50.1371  -25.8834 -104.5795 C   0  0  0  0  0  0  0  0  0  0  0  0
   49.9242  -24.8808 -105.5718 C   0  0  0  0  0  0  0  0  0  0  0  0
   50.0270  -23.5394 -105.2638 N   0  0  0  0  0  0  0  0  0  0  0  0
   50.4549  -25.8662 -103.2797 N   0  0  0  0  0  0  0  0  0  0  0  0
   50.5351  -27.0898 -102.8486 C   0  0  0  0  0  0  0  0  0  0  0  0
   50.2592  -27.9975 -103.8444 N   0  0  0  0  0  0  0  0  0  0  0  0
  2  1  1  6  0  0  0
  2  3  1  0  0  0  0
  2  5  1  0  0  0  0
  3  4  1  0  0  0  0
  3 17  1  0  0  0  0
  5  6  1  0  0  0  0
  7  6  1  6  0  0  0
  7  8  1  0  0  0  0
  7  9  1  0  0  0  0
 10  9  1  1  0  0  0
 10 11  1  0  0  0  0
 10 12  1  0  0  0  0
 11 16  1  0  0  0  0
 12 13  1  1  0  0  0
 12 14  1  0  0  0  0
 14 15  1  6  0  0  0
 14 16  1  0  0  0  0
 16 27  1  1  0  0  0
 18 19  2  0  0  0  0
 18 23  1  0  0  0  0
 19 20  1  0  0  0  0
 20 21  2  0  0  0  0
 21 22  1  0  0  0  0
 21 27  1  0  0  0  0
 22 23  2  0  0  0  0
 22 25  1  0  0  0  0
 23 24  1  0  0  0  0
 25 26  2  0  0  0  0
 26 27  1  0  0  0  0
M  END
>  <CHROM.1>
109.88553877,-64.74413528,165.75662307,-172.68909530,-101.71184187,65.79684150
-102.03613600,48.70454304,-28.08457893,-103.38278183,1.54776877,0.23577095
-0.78176538

>  <Name>
ligand

>  <RI>
0

>  <Rbt.Current_Directory>
/home/itssahil/PROJECTS/Mol_Feturizer/Test_systems_manuscript/rnas/4l81

>  <Rbt.Executable>
rbdock ($Id: //depot/dev/client3/rdock/2013.1/src/exe/rbdock.cxx#4 $)

>  <Rbt.Library>
libRbt.so (2013.1, Build901 2013/11/27)

>  <Rbt.Parameter_File>
/export/apps/rDock/src/rDock_2013.1_src/data/scripts/dock_solv.prm

>  <Rbt.Receptor>
prm/pocket_docking_4.prm

>  <SCORE>
-16.1986

>  <SCORE.INTER>
-12.3811

>  <SCORE.INTER.CONST>
1

>  <SCORE.INTER.POLAR>
0

>  <SCORE.INTER.ROT>
7

>  <SCORE.INTER.SOLV>
13.4945

>  <SCORE.INTER.VDW>
-21.0189

>  <SCORE.INTER.norm>
-0.458561

>  <SCORE.INTRA>
-3.81741

>  <SCORE.INTRA.DIHEDRAL>
-0.60446

>  <SCORE.INTRA.DIHEDRAL.0>
8.34559

>  <SCORE.INTRA.POLAR>
0

>  <SCORE.INTRA.POLAR.0>
0

>  <SCORE.INTRA.REPUL>
0

>  <SCORE.INTRA.REPUL.0>
0

>  <SCORE.INTRA.SOLV>
-0.158483

>  <SCORE.INTRA.SOLV.lig_0>
-48.829

>  <SCORE.INTRA.VDW>
-3.43594

>  <SCORE.INTRA.VDW.0>
-1.77092

>  <SCORE.INTRA.norm>
-0.141386

>  <SCORE.RESTR>
0

>  <SCORE.RESTR.CAVITY>
0

>  <SCORE.RESTR.norm>
0

>  <SCORE.SYSTEM>
0

>  <SCORE.SYSTEM.CONST>
0

>  <SCORE.SYSTEM.DIHEDRAL>
0

>  <SCORE.SYSTEM.SOLV>
0

>  <SCORE.SYSTEM.norm>
0

>  <SCORE.heavy>
27

>  <SCORE.norm>
-0.599946

>  <RMSD>
5.137

$$$$
ligand
 OpenBabel02271912153D
libRbt.so/2013.1/901 2013/11/27
 27 29  0  0  0  0  0  0  0  0999 V2000
   48.8379  -25.6303 -103.8176 N   0  0  0  0  0  0  0  0  0  0  0  0
   48.2462  -26.7577 -104.5466 C   0  0  2  0  0  0  0  0  0  0  0  0
   49.3482  -27.6495 -105.0787 C   0  0  0  0  0  0  0  0  0  0  0  0
   50.3037  -27.1627 -105.6642 O   0  0  0  0  0  0  0  0  0  0  0  0
   47.3880  -26.2739 -105.7233 C   0  0  0  0  0  0  0  0  0  0  0  0
   46.7159  -27.4475 -106.4217 C   0  0  0  0  0  0  0  0  0  0  0  0
   45.0967  -27.8980 -105.6880 S   0  0  2  0  0  0  0  0  0  0  0  0
   44.3271  -26.2920 -105.3029 C   0  0  0  0  0  0  0  0  0  0  0  0
   45.7422  -28.2976 -104.0655 C   0  0  0  0  0  0  0  0  0  0  0  0
   44.8960  -29.2818 -103.3024 C   0  0  1  0  0  0  0  0  0  0  0  0
   45.1846  -30.5966 -103.8074 O   0  0  0  0  0  0  0  0  0  0  0  0
   45.4700  -29.2189 -101.9443 C   0  0  1  0  0  0  0  0  0  0  0  0
   44.6862  -28.3455 -101.1329 O   0  0  0  0  0  0  0  0  0  0  0  0
   45.3232  -30.6301 -101.4660 C   0  0  1  0  0  0  0  0  0  0  0  0
   44.0273  -30.8231 -100.8621 O   0  0  0  0  0  0  0  0  0  0  0  0
   45.4560  -31.5297 -102.7314 C   0  0  2  0  0  0  0  0  0  0  0  0
   49.3077  -28.8540 -104.8989 O   0  0  0  0  0  0  0  0  0  0  0  0
   50.6497  -31.8360 -101.6685 N   0  0  0  0  0  0  0  0  0  0  0  0
   49.7277  -31.0428 -101.0695 C   0  0  0  0  0  0  0  0  0  0  0  0
   48.4221  -31.0919 -101.4073 N   0  0  0  0  0  0  0  0  0  0  0  0
   48.0052  -31.8718 -102.4180 C   0  0  0  0  0  0  0  0  0  0  0  0
   48.9600  -32.7027 -103.1113 C   0  0  0  0  0  0  0  0  0  0  0  0
   50.3208  -32.6610 -102.6850 C   0  0  0  0  0  0  0  0  0  0  0  0
   51.2840  -33.4368 -103.2974 N   0  0  0  0  0  0  0  0  0  0  0  0
   48.2937  -33.3659 -104.0636 N   0  0  0  0  0  0  0  0  0  0  0  0
   47.0422  -33.0172 -104.0241 C   0  0  0  0  0  0  0  0  0  0  0  0
   46.8017  -32.1035 -103.0245 N   0  0  0  0  0  0  0  0  0  0  0  0
  2  1  1  6  0  0  0
  2  3  1  0  0  0  0
  2  5  1  0  0  0  0
  3  4  1  0  0  0  0
  3 17  1  0  0  0  0
  5  6  1  0  0  0  0
  7  6  1  6  0  0  0
  7  8  1  0  0  0  0
  7  9  1  0  0  0  0
 10  9  1  6  0  0  0
 10 11  1  0  0  0  0
 10 12  1  0  0  0  0
 11 16  1  0  0  0  0
 12 13  1  1  0  0  0
 12 14  1  0  0  0  0
 14 15  1  6  0  0  0
 14 16  1  0  0  0  0
 16 27  1  6  0  0  0
 18 19  2  0  0  0  0
 18 23  1  0  0  0  0
 19 20  1  0  0  0  0
 20 21  2  0  0  0  0
 21 22  1  0  0  0  0
 21 27  1  0  0  0  0
 22 23  2  0  0  0  0
 22 25  1  0  0  0  0
 23 24  1  0  0  0  0
 25 26  2  0  0  0  0
 26 27  1  0  0  0  0
M  END
>  <CHROM.1>
-47.41651913,-176.73300670,87.91830021,39.73229484,-154.13302550,79.06494292
106.62070865,47.24296353,-29.68185311,-103.57686030,-2.00759772,-0.22624707
2.59882266

>  <Name>
ligand

>  <RI>
0

>  <Rbt.Current_Directory>
/home/itssahil/PROJECTS/Mol_Feturizer/Test_systems_manuscript/rnas/4l81

>  <Rbt.Executable>
rbdock ($Id: //depot/dev/client3/rdock/2013.1/src/exe/rbdock.cxx#4 $)

>  <Rbt.Library>
libRbt.so (2013.1, Build901 2013/11/27)

>  <Rbt.Parameter_File>
/export/apps/rDock/src/rDock_2013.1_src/data/scripts/dock_solv.prm

>  <Rbt.Receptor>
prm/pocket_docking_6.prm

>  <SCORE>
-10.3286

>  <SCORE.INTER>
-11.0886

>  <SCORE.INTER.CONST>
1

>  <SCORE.INTER.POLAR>
0

>  <SCORE.INTER.ROT>
7

>  <SCORE.INTER.SOLV>
12.1852

>  <SCORE.INTER.VDW>
-19.7208

>  <SCORE.INTER.norm>
-0.410688

>  <SCORE.INTRA>
0.759936

>  <SCORE.INTRA.DIHEDRAL>
1.56165

>  <SCORE.INTRA.DIHEDRAL.0>
8.34559

>  <SCORE.INTRA.POLAR>
0

>  <SCORE.INTRA.POLAR.0>
0

>  <SCORE.INTRA.REPUL>
0

>  <SCORE.INTRA.REPUL.0>
0

>  <SCORE.INTRA.SOLV>
-0.804768

>  <SCORE.INTRA.SOLV.lig_0>
-48.829

>  <SCORE.INTRA.VDW>
0.381495

>  <SCORE.INTRA.VDW.0>
-1.77092

>  <SCORE.INTRA.norm>
0.0281458

>  <SCORE.RESTR>
0

>  <SCORE.RESTR.CAVITY>
0

>  <SCORE.RESTR.norm>
0

>  <SCORE.SYSTEM>
0

>  <SCORE.SYSTEM.CONST>
0

>  <SCORE.SYSTEM.DIHEDRAL>
0

>  <SCORE.SYSTEM.SOLV>
0

>  <SCORE.SYSTEM.norm>
0

>  <SCORE.heavy>
27

>  <SCORE.norm>
-0.382542

>  <RMSD>
5.144

$$$$
ligand
 OpenBabel02271912153D
libRbt.so/2013.1/901 2013/11/27
 27 29  0  0  0  0  0  0  0  0999 V2000
   44.3106  -28.4036 -103.2042 N   0  0  0  0  0  0  0  0  0  0  0  0
   45.1349  -28.0400 -102.0461 C   0  0  2  0  0  0  0  0  0  0  0  0
   46.5517  -27.7614 -102.5019 C   0  0  0  0  0  0  0  0  0  0  0  0
   47.4345  -27.5664 -101.6801 O   0  0  0  0  0  0  0  0  0  0  0  0
   45.1617  -29.1659 -101.0035 C   0  0  0  0  0  0  0  0  0  0  0  0
   45.1265  -30.5297 -101.6786 C   0  0  0  0  0  0  0  0  0  0  0  0
   46.4063  -30.7300 -102.9768 S   0  0  2  0  0  0  0  0  0  0  0  0
   46.2344  -32.4672 -103.4986 C   0  0  0  0  0  0  0  0  0  0  0  0
   47.7817  -30.9108 -101.8435 C   0  0  0  0  0  0  0  0  0  0  0  0
   49.0932  -31.2005 -102.5237 C   0  0  1  0  0  0  0  0  0  0  0  0
   49.2097  -30.3173 -103.6521 O   0  0  0  0  0  0  0  0  0  0  0  0
   50.0828  -30.7431 -101.5292 C   0  0  1  0  0  0  0  0  0  0  0  0
   50.5517  -31.8578 -100.7721 O   0  0  0  0  0  0  0  0  0  0  0  0
   51.1852  -30.2109 -102.3916 C   0  0  1  0  0  0  0  0  0  0  0  0
   52.0983  -31.2692 -102.7489 O   0  0  0  0  0  0  0  0  0  0  0  0
   50.4973  -29.6512 -103.6729 C   0  0  2  0  0  0  0  0  0  0  0  0
   46.8293  -27.7623 -103.6885 O   0  0  0  0  0  0  0  0  0  0  0  0
   49.3609  -25.2541 -106.4247 N   0  0  0  0  0  0  0  0  0  0  0  0
   49.6134  -26.4935 -106.9124 C   0  0  0  0  0  0  0  0  0  0  0  0
   49.8491  -27.5428 -106.0972 N   0  0  0  0  0  0  0  0  0  0  0  0
   49.9288  -27.3724 -104.7675 C   0  0  0  0  0  0  0  0  0  0  0  0
   49.7074  -26.0611 -104.2074 C   0  0  0  0  0  0  0  0  0  0  0  0
   49.4065  -24.9909 -105.1015 C   0  0  0  0  0  0  0  0  0  0  0  0
   49.1741  -23.7138 -104.6327 N   0  0  0  0  0  0  0  0  0  0  0  0
   49.8482  -26.1654 -102.8807 N   0  0  0  0  0  0  0  0  0  0  0  0
   50.1393  -27.3966 -102.5827 C   0  0  0  0  0  0  0  0  0  0  0  0
   50.1956  -28.1903 -103.7045 N   0  0  0  0  0  0  0  0  0  0  0  0
  2  1  1  6  0  0  0
  2  3  1  0  0  0  0
  2  5  1  0  0  0  0
  3  4  1  0  0  0  0
  3 17  1  0  0  0  0
  5  6  1  0  0  0  0
  7  6  1  1  0  0  0
  7  8  1  0  0  0  0
  7  9  1  0  0  0  0
 10  9  1  1  0  0  0
 10 11  1  0  0  0  0
 10 12  1  0  0  0  0
 11 16  1  0  0  0  0
 12 13  1  6  0  0  0
 12 14  1  0  0  0  0
 14 15  1  6  0  0  0
 14 16  1  0  0  0  0
 16 27  1  1  0  0  0
 18 19  2  0  0  0  0
 18 23  1  0  0  0  0
 19 20  1  0  0  0  0
 20 21  2  0  0  0  0
 21 22  1  0  0  0  0
 21 27  1  0  0  0  0
 22 23  2  0  0  0  0
 22 25  1  0  0  0  0
 23 24  1  0  0  0  0
 25 26  2  0  0  0  0
 26 27  1  0  0  0  0
M  END
>  <CHROM.1>
-172.92323068,34.81903871,51.93229975,175.13284415,176.15471892,44.64746493
-85.26896571,48.43496348,-28.76450221,-103.23048003,1.97005635,-0.16348573
2.68393465

>  <Name>
ligand

>  <RI>
0

>  <Rbt.Current_Directory>
/home/itssahil/PROJECTS/Mol_Feturizer/Test_systems_manuscript/rnas/4l81

>  <Rbt.Executable>
rbdock ($Id: //depot/dev/client3/rdock/2013.1/src/exe/rbdock.cxx#4 $)

>  <Rbt.Library>
libRbt.so (2013.1, Build901 2013/11/27)

>  <Rbt.Parameter_File>
/export/apps/rDock/src/rDock_2013.1_src/data/scripts/dock_solv.prm

>  <Rbt.Receptor>
prm/pocket_docking_5.prm

>  <SCORE>
-13.4552

>  <SCORE.INTER>
-11.617

>  <SCORE.INTER.CONST>
1

>  <SCORE.INTER.POLAR>
0

>  <SCORE.INTER.ROT>
7

>  <SCORE.INTER.SOLV>
9.17985

>  <SCORE.INTER.VDW>
-19.0713

>  <SCORE.INTER.norm>
-0.430259

>  <SCORE.INTRA>
-1.83817

>  <SCORE.INTRA.DIHEDRAL>
-1.77331

>  <SCORE.INTRA.DIHEDRAL.0>
8.34559

>  <SCORE.INTRA.POLAR>
0

>  <SCORE.INTRA.POLAR.0>
0

>  <SCORE.INTRA.REPUL>
0

>  <SCORE.INTRA.REPUL.0>
0

>  <SCORE.INTRA.SOLV>
1.19208

>  <SCORE.INTRA.SOLV.lig_0>
-48.829

>  <SCORE.INTRA.VDW>
-1.54756

>  <SCORE.INTRA.VDW.0>
-1.77092

>  <SCORE.INTRA.norm>
-0.0680805

>  <SCORE.RESTR>
0

>  <SCORE.RESTR.CAVITY>
0

>  <SCORE.RESTR.norm>
0

>  <SCORE.SYSTEM>
0

>  <SCORE.SYSTEM.CONST>
0

>  <SCORE.SYSTEM.DIHEDRAL>
0

>  <SCORE.SYSTEM.SOLV>
0

>  <SCORE.SYSTEM.norm>
0

>  <SCORE.heavy>
27

>  <SCORE.norm>
-0.498339

>  <RMSD>
5.156

$$$$
ligand
 OpenBabel02271912153D
libRbt.so/2013.1/901 2013/11/27
 27 29  0  0  0  0  0  0  0  0999 V2000
   46.9370  -24.3781 -107.9167 N   0  0  0  0  0  0  0  0  0  0  0  0
   46.6033  -24.7293 -106.5318 C   0  0  2  0  0  0  0  0  0  0  0  0
   46.5930  -23.4766 -105.6813 C   0  0  0  0  0  0  0  0  0  0  0  0
   47.3165  -23.3940 -104.7003 O   0  0  0  0  0  0  0  0  0  0  0  0
   47.6198  -25.7185 -105.9456 C   0  0  0  0  0  0  0  0  0  0  0  0
   47.1114  -26.3046 -104.6360 C   0  0  0  0  0  0  0  0  0  0  0  0
   45.7471  -27.5093 -104.8615 S   0  0  2  0  0  0  0  0  0  0  0  0
   44.2614  -26.4662 -105.0162 C   0  0  0  0  0  0  0  0  0  0  0  0
   45.6070  -27.9447 -103.1296 C   0  0  0  0  0  0  0  0  0  0  0  0
   44.5152  -28.9407 -102.8417 C   0  0  1  0  0  0  0  0  0  0  0  0
   44.5708  -29.9610 -103.8531 O   0  0  0  0  0  0  0  0  0  0  0  0
   44.9715  -29.5689 -101.5868 C   0  0  1  0  0  0  0  0  0  0  0  0
   44.3165  -28.9550 -100.4779 O   0  0  0  0  0  0  0  0  0  0  0  0
   44.4985  -30.9811 -101.7420 C   0  0  1  0  0  0  0  0  0  0  0  0
   43.1437  -31.1121 -101.2638 O   0  0  0  0  0  0  0  0  0  0  0  0
   44.5522  -31.2878 -103.2688 C   0  0  2  0  0  0  0  0  0  0  0  0
   45.8891  -22.5298 -105.9864 O   0  0  0  0  0  0  0  0  0  0  0  0
   47.3921  -33.1499 -107.3512 N   0  0  0  0  0  0  0  0  0  0  0  0
   46.1720  -32.5603 -107.3924 C   0  0  0  0  0  0  0  0  0  0  0  0
   45.5730  -32.0899 -106.2784 N   0  0  0  0  0  0  0  0  0  0  0  0
   46.1325  -32.2718 -105.0712 C   0  0  0  0  0  0  0  0  0  0  0  0
   47.4124  -32.9316 -104.9764 C   0  0  0  0  0  0  0  0  0  0  0  0
   48.0363  -33.3638 -106.1844 C   0  0  0  0  0  0  0  0  0  0  0  0
   49.2647  -33.9925 -106.1672 N   0  0  0  0  0  0  0  0  0  0  0  0
   47.7367  -32.9879 -103.6793 N   0  0  0  0  0  0  0  0  0  0  0  0
   46.7856  -32.4409 -102.9823 C   0  0  0  0  0  0  0  0  0  0  0  0
   45.7721  -31.9737 -103.7862 N   0  0  0  0  0  0  0  0  0  0  0  0
  2  1  1  6  0  0  0
  2  3  1  0  0  0  0
  2  5  1  0  0  0  0
  3  4  1  0  0  0  0
  3 17  1  0  0  0  0
  5  6  1  0  0  0  0
  7  6  1  1  0  0  0
  7  8  1  0  0  0  0
  7  9  1  0  0  0  0
 10  9  1  6  0  0  0
 10 11  1  0  0  0  0
 10 12  1  0  0  0  0
 11 16  1  0  0  0  0
 12 13  1  1  0  0  0
 12 14  1  0  0  0  0
 14 15  1  6  0  0  0
 14 16  1  0  0  0  0
 16 27  1  1  0  0  0
 18 19  2  0  0  0  0
 18 23  1  0  0  0  0
 19 20  1  0  0  0  0
 20 21  2  0  0  0  0
 21 22  1  0  0  0  0
 21 27  1  0  0  0  0
 22 23  2  0  0  0  0
 22 25  1  0  0  0  0
 23 24  1  0  0  0  0
 25 26  2  0  0  0  0
 26 27  1  0  0  0  0
M  END
>  <CHROM.1>
-122.61587180,-167.77477956,72.57404806,-82.48944051,178.43973869,43.29403277
-61.16476065,46.03641926,-29.09760522,-104.54072420,-1.58423826,-0.99292979
2.99784981

>  <Name>
ligand

>  <RI>
0

>  <Rbt.Current_Directory>
/home/itssahil/PROJECTS/Mol_Feturizer/Test_systems_manuscript/rnas/4l81

>  <Rbt.Executable>
rbdock ($Id: //depot/dev/client3/rdock/2013.1/src/exe/rbdock.cxx#4 $)

>  <Rbt.Library>
libRbt.so (2013.1, Build901 2013/11/27)

>  <Rbt.Parameter_File>
/export/apps/rDock/src/rDock_2013.1_src/data/scripts/dock_solv.prm

>  <Rbt.Receptor>
prm/pocket_docking_6.prm

>  <SCORE>
-12.7062

>  <SCORE.INTER>
-11.8424

>  <SCORE.INTER.CONST>
1

>  <SCORE.INTER.POLAR>
0

>  <SCORE.INTER.ROT>
7

>  <SCORE.INTER.SOLV>
10.6079

>  <SCORE.INTER.VDW>
-19.6976

>  <SCORE.INTER.norm>
-0.438607

>  <SCORE.INTRA>
-0.863831

>  <SCORE.INTRA.DIHEDRAL>
-2.48986

>  <SCORE.INTRA.DIHEDRAL.0>
8.34559

>  <SCORE.INTRA.POLAR>
0

>  <SCORE.INTRA.POLAR.0>
0

>  <SCORE.INTRA.REPUL>
0

>  <SCORE.INTRA.REPUL.0>
0

>  <SCORE.INTRA.SOLV>
-0.879472

>  <SCORE.INTRA.SOLV.lig_0>
-48.829

>  <SCORE.INTRA.VDW>
0.820835

>  <SCORE.INTRA.VDW.0>
-1.77092

>  <SCORE.INTRA.norm>
-0.0319937

>  <SCORE.RESTR>
0

>  <SCORE.RESTR.CAVITY>
0

>  <SCORE.RESTR.norm>
0

>  <SCORE.SYSTEM>
0

>  <SCORE.SYSTEM.CONST>
0

>  <SCORE.SYSTEM.DIHEDRAL>
0

>  <SCORE.SYSTEM.SOLV>
0

>  <SCORE.SYSTEM.norm>
0

>  <SCORE.heavy>
27

>  <SCORE.norm>
-0.470601

>  <RMSD>
5.158

$$$$
ligand
 OpenBabel02271912153D
libRbt.so/2013.1/901 2013/11/27
 27 29  0  0  0  0  0  0  0  0999 V2000
   49.7252  -24.7595 -105.0211 N   0  0  0  0  0  0  0  0  0  0  0  0
   50.0216  -25.8733 -105.9290 C   0  0  2  0  0  0  0  0  0  0  0  0
   49.2803  -25.6724 -107.2339 C   0  0  0  0  0  0  0  0  0  0  0  0
   48.8592  -24.5664 -107.5374 O   0  0  0  0  0  0  0  0  0  0  0  0
   49.5997  -27.2177 -105.3208 C   0  0  0  0  0  0  0  0  0  0  0  0
   48.1216  -27.2073 -104.9574 C   0  0  0  0  0  0  0  0  0  0  0  0
   47.5311  -28.8037 -104.2744 S   0  0  2  0  0  0  0  0  0  0  0  0
   47.5034  -29.9154 -105.7177 C   0  0  0  0  0  0  0  0  0  0  0  0
   45.7988  -28.3496 -104.2348 C   0  0  0  0  0  0  0  0  0  0  0  0
   44.9408  -29.3019 -103.4448 C   0  0  1  0  0  0  0  0  0  0  0  0
   45.2301  -30.6355 -103.8973 O   0  0  0  0  0  0  0  0  0  0  0  0
   45.5002  -29.1902 -102.0839 C   0  0  1  0  0  0  0  0  0  0  0  0
   44.7109  -28.2846 -101.3142 O   0  0  0  0  0  0  0  0  0  0  0  0
   45.3431  -30.5821 -101.5548 C   0  0  1  0  0  0  0  0  0  0  0  0
   44.0400  -30.7482 -100.9584 O   0  0  0  0  0  0  0  0  0  0  0  0
   45.4863  -31.5287 -102.7843 C   0  0  2  0  0  0  0  0  0  0  0  0
   49.1270  -26.6028 -108.0057 O   0  0  0  0  0  0  0  0  0  0  0  0
   50.6501  -31.8760 -101.5957 N   0  0  0  0  0  0  0  0  0  0  0  0
   49.7218  -31.0697 -101.0247 C   0  0  0  0  0  0  0  0  0  0  0  0
   48.4243  -31.1090 -101.3932 N   0  0  0  0  0  0  0  0  0  0  0  0
   48.0240  -31.8925 -102.4077 C   0  0  0  0  0  0  0  0  0  0  0  0
   48.9869  -32.7376 -103.0719 C   0  0  0  0  0  0  0  0  0  0  0  0
   50.3376  -32.7056 -102.6137 C   0  0  0  0  0  0  0  0  0  0  0  0
   51.3075  -33.4951 -103.1972 N   0  0  0  0  0  0  0  0  0  0  0  0
   48.3371  -33.4017 -104.0350 N   0  0  0  0  0  0  0  0  0  0  0  0
   47.0885  -33.0409 -104.0278 C   0  0  0  0  0  0  0  0  0  0  0  0
   46.8331  -32.1175 -103.0410 N   0  0  0  0  0  0  0  0  0  0  0  0
  2  1  1  1  0  0  0
  2  3  1  0  0  0  0
  2  5  1  0  0  0  0
  3  4  1  0  0  0  0
  3 17  1  0  0  0  0
  5  6  1  0  0  0  0
  7  6  1  6  0  0  0
  7  8  1  0  0  0  0
  7  9  1  0  0  0  0
 10  9  1  6  0  0  0
 10 11  1  0  0  0  0
 10 12  1  0  0  0  0
 11 16  1  0  0  0  0
 12 13  1  1  0  0  0
 12 14  1  0  0  0  0
 14 15  1  6  0  0  0
 14 16  1  0  0  0  0
 16 27  1  6  0  0  0
 18 19  2  0  0  0  0
 18 23  1  0  0  0  0
 19 20  1  0  0  0  0
 20 21  2  0  0  0  0
 21 22  1  0  0  0  0
 21 27  1  0  0  0  0
 22 23  2  0  0  0  0
 22 25  1  0  0  0  0
 23 24  1  0  0  0  0
 25 26  2  0  0  0  0
 26 27  1  0  0  0  0
M  END
>  <CHROM.1>
18.88763253,56.64121981,178.09504774,-72.10758407,-167.54776619,-49.98990605
108.51598877,47.73395234,-29.60735557,-103.79251852,-1.34488637,-0.35343673
2.61671053

>  <Name>
ligand

>  <RI>
0

>  <Rbt.Current_Directory>
/home/itssahil/PROJECTS/Mol_Feturizer/Test_systems_manuscript/rnas/4l81

>  <Rbt.Executable>
rbdock ($Id: //depot/dev/client3/rdock/2013.1/src/exe/rbdock.cxx#4 $)

>  <Rbt.Library>
libRbt.so (2013.1, Build901 2013/11/27)

>  <Rbt.Parameter_File>
/export/apps/rDock/src/rDock_2013.1_src/data/scripts/dock_solv.prm

>  <Rbt.Receptor>
prm/pocket_docking_6.prm

>  <SCORE>
-12.2226

>  <SCORE.INTER>
-9.50662

>  <SCORE.INTER.CONST>
1

>  <SCORE.INTER.POLAR>
0

>  <SCORE.INTER.ROT>
7

>  <SCORE.INTER.SOLV>
11.081

>  <SCORE.INTER.VDW>
-18.2981

>  <SCORE.INTER.norm>
-0.352097

>  <SCORE.INTRA>
-2.71795

>  <SCORE.INTRA.DIHEDRAL>
-3.60215

>  <SCORE.INTRA.DIHEDRAL.0>
8.34559

>  <SCORE.INTRA.POLAR>
0

>  <SCORE.INTRA.POLAR.0>
0

>  <SCORE.INTRA.REPUL>
0

>  <SCORE.INTRA.REPUL.0>
0

>  <SCORE.INTRA.SOLV>
-0.262708

>  <SCORE.INTRA.SOLV.lig_0>
-48.829

>  <SCORE.INTRA.VDW>
-0.785518

>  <SCORE.INTRA.VDW.0>
-1.77092

>  <SCORE.INTRA.norm>
-0.100665

>  <SCORE.RESTR>
0.00196338

>  <SCORE.RESTR.CAVITY>
0.00196338

>  <SCORE.RESTR.norm>
7.27177e-05

>  <SCORE.SYSTEM>
0

>  <SCORE.SYSTEM.CONST>
0

>  <SCORE.SYSTEM.DIHEDRAL>
0

>  <SCORE.SYSTEM.SOLV>
0

>  <SCORE.SYSTEM.norm>
0

>  <SCORE.heavy>
27

>  <SCORE.norm>
-0.452689

>  <RMSD>
5.159

$$$$
ligand
 OpenBabel02271912153D
libRbt.so/2013.1/901 2013/11/27
 27 29  0  0  0  0  0  0  0  0999 V2000
   45.7512  -31.4081 -102.2540 N   0  0  0  0  0  0  0  0  0  0  0  0
   45.6577  -30.0236 -102.7305 C   0  0  2  0  0  0  0  0  0  0  0  0
   44.7566  -29.2312 -101.8070 C   0  0  0  0  0  0  0  0  0  0  0  0
   45.0806  -28.1101 -101.4453 O   0  0  0  0  0  0  0  0  0  0  0  0
   45.0882  -29.9597 -104.1542 C   0  0  0  0  0  0  0  0  0  0  0  0
   45.8179  -28.9117 -104.9826 C   0  0  0  0  0  0  0  0  0  0  0  0
   45.6609  -27.2142 -104.3064 S   0  0  2  0  0  0  0  0  0  0  0  0
   44.2162  -26.5264 -105.1778 C   0  0  0  0  0  0  0  0  0  0  0  0
   46.9616  -26.5020 -105.3113 C   0  0  0  0  0  0  0  0  0  0  0  0
   47.9709  -25.7099 -104.5235 C   0  0  1  0  0  0  0  0  0  0  0  0
   48.3019  -26.4646 -103.3454 O   0  0  0  0  0  0  0  0  0  0  0  0
   49.1625  -25.7461 -105.3932 C   0  0  1  0  0  0  0  0  0  0  0  0
   49.2345  -24.5437 -106.1576 O   0  0  0  0  0  0  0  0  0  0  0  0
   50.2843  -25.7899 -104.4024 C   0  0  1  0  0  0  0  0  0  0  0  0
   50.6628  -24.4532 -104.0134 O   0  0  0  0  0  0  0  0  0  0  0  0
   49.7371  -26.5652 -103.1665 C   0  0  2  0  0  0  0  0  0  0  0  0
   43.6877  -29.6907 -101.4445 O   0  0  0  0  0  0  0  0  0  0  0  0
   49.5183  -31.1625 -100.5179 N   0  0  0  0  0  0  0  0  0  0  0  0
   49.0874  -29.9463 -100.1017 C   0  0  0  0  0  0  0  0  0  0  0  0
   49.1637  -28.8568 -100.8943 N   0  0  0  0  0  0  0  0  0  0  0  0
   49.7552  -28.9257 -102.0980 C   0  0  0  0  0  0  0  0  0  0  0  0
   50.2654  -30.1925 -102.5645 C   0  0  0  0  0  0  0  0  0  0  0  0
   50.1142  -31.3304 -101.7174 C   0  0  0  0  0  0  0  0  0  0  0  0
   50.5703  -32.5738 -102.1053 N   0  0  0  0  0  0  0  0  0  0  0  0
   50.8019  -29.9855 -103.7728 N   0  0  0  0  0  0  0  0  0  0  0  0
   50.6775  -28.7287 -104.0802 C   0  0  0  0  0  0  0  0  0  0  0  0
   50.0329  -28.0256 -103.0893 N   0  0  0  0  0  0  0  0  0  0  0  0
  2  1  1  1  0  0  0
  2  3  1  0  0  0  0
  2  5  1  0  0  0  0
  3  4  1  0  0  0  0
  3 17  1  0  0  0  0
  5  6  1  0  0  0  0
  7  6  1  6  0  0  0
  7  8  1  0  0  0  0
  7  9  1  0  0  0  0
 10  9  1  6  0  0  0
 10 11  1  0  0  0  0
 10 12  1  0  0  0  0
 11 16  1  0  0  0  0
 12 13  1  1  0  0  0
 12 14  1  0  0  0  0
 14 15  1  1  0  0  0
 14 16  1  0  0  0  0
 16 27  1  6  0  0  0
 18 19  2  0  0  0  0
 18 23  1  0  0  0  0
 19 20  1  0  0  0  0
 20 21  2  0  0  0  0
 21 22  1  0  0  0  0
 21 27  1  0  0  0  0
 22 23  2  0  0  0  0
 22 25  1  0  0  0  0
 23 24  1  0  0  0  0
 25 26  2  0  0  0  0
 26 27  1  0  0  0  0
M  END
>  <CHROM.1>
135.88810539,-139.95891645,-61.28491421,-92.87552258,-129.76276925,44.19293336
-71.08087491,47.89738559,-28.26766067,-103.25269854,1.73629899,0.05797127
2.57003705

>  <Name>
ligand

>  <RI>
0

>  <Rbt.Current_Directory>
/home/itssahil/PROJECTS/Mol_Feturizer/Test_systems_manuscript/rnas/4l81

>  <Rbt.Executable>
rbdock ($Id: //depot/dev/client3/rdock/2013.1/src/exe/rbdock.cxx#4 $)

>  <Rbt.Library>
libRbt.so (2013.1, Build901 2013/11/27)

>  <Rbt.Parameter_File>
/export/apps/rDock/src/rDock_2013.1_src/data/scripts/dock_solv.prm

>  <Rbt.Receptor>
prm/pocket_docking_3.prm

>  <SCORE>
-7.34729

>  <SCORE.INTER>
-7.46658

>  <SCORE.INTER.CONST>
1

>  <SCORE.INTER.POLAR>
0

>  <SCORE.INTER.ROT>
7

>  <SCORE.INTER.SOLV>
12.8202

>  <SCORE.INTER.VDW>
-17.5178

>  <SCORE.INTER.norm>
-0.27654

>  <SCORE.INTRA>
0.119282

>  <SCORE.INTRA.DIHEDRAL>
5.85904

>  <SCORE.INTRA.DIHEDRAL.0>
8.34559

>  <SCORE.INTRA.POLAR>
0

>  <SCORE.INTRA.POLAR.0>
0

>  <SCORE.INTRA.REPUL>
0

>  <SCORE.INTRA.REPUL.0>
0

>  <SCORE.INTRA.SOLV>
-1.05497

>  <SCORE.INTRA.SOLV.lig_0>
-48.829

>  <SCORE.INTRA.VDW>
-2.28275

>  <SCORE.INTRA.VDW.0>
-1.77092

>  <SCORE.INTRA.norm>
0.00441784

>  <SCORE.RESTR>
0

>  <SCORE.RESTR.CAVITY>
0

>  <SCORE.RESTR.norm>
0

>  <SCORE.SYSTEM>
0

>  <SCORE.SYSTEM.CONST>
0

>  <SCORE.SYSTEM.DIHEDRAL>
0

>  <SCORE.SYSTEM.SOLV>
0

>  <SCORE.SYSTEM.norm>
0

>  <SCORE.heavy>
27

>  <SCORE.norm>
-0.272122

>  <RMSD>
5.162

$$$$
ligand
 OpenBabel02271912153D
libRbt.so/2013.1/901 2013/11/27
 27 29  0  0  0  0  0  0  0  0999 V2000
   49.8161  -24.6461 -104.7277 N   0  0  0  0  0  0  0  0  0  0  0  0
   50.1693  -25.7730 -105.5985 C   0  0  2  0  0  0  0  0  0  0  0  0
   49.4914  -25.6052 -106.9420 C   0  0  0  0  0  0  0  0  0  0  0  0
   49.1350  -24.4982 -107.3165 O   0  0  0  0  0  0  0  0  0  0  0  0
   49.7326  -27.1108 -104.9862 C   0  0  0  0  0  0  0  0  0  0  0  0
   48.2383  -27.1115 -104.6967 C   0  0  0  0  0  0  0  0  0  0  0  0
   47.6236  -28.7171 -104.0584 S   0  0  2  0  0  0  0  0  0  0  0  0
   47.7042  -29.8240 -105.5034 C   0  0  0  0  0  0  0  0  0  0  0  0
   45.8870  -28.2839 -104.1314 C   0  0  0  0  0  0  0  0  0  0  0  0
   44.9871  -29.2685 -103.4330 C   0  0  1  0  0  0  0  0  0  0  0  0
   45.2866  -30.5788 -103.9431 O   0  0  0  0  0  0  0  0  0  0  0  0
   45.4851  -29.2350 -102.0443 C   0  0  1  0  0  0  0  0  0  0  0  0
   44.6685  -28.3641 -101.2633 O   0  0  0  0  0  0  0  0  0  0  0  0
   45.2938  -30.6516 -101.5984 C   0  0  1  0  0  0  0  0  0  0  0  0
   43.9639  -30.8364 -101.0708 O   0  0  0  0  0  0  0  0  0  0  0  0
   45.4855  -31.5326 -102.8693 C   0  0  2  0  0  0  0  0  0  0  0  0
   49.3259  -26.5657 -107.6735 O   0  0  0  0  0  0  0  0  0  0  0  0
   50.6333  -31.8374 -101.6022 N   0  0  0  0  0  0  0  0  0  0  0  0
   49.6939  -31.0251 -101.0585 C   0  0  0  0  0  0  0  0  0  0  0  0
   48.4018  -31.0763 -101.4445 N   0  0  0  0  0  0  0  0  0  0  0  0
   48.0191  -31.8791 -102.4507 C   0  0  0  0  0  0  0  0  0  0  0  0
   48.9946  -32.7316 -103.0864 C   0  0  0  0  0  0  0  0  0  0  0  0
   50.3386  -32.6858 -102.6098 C   0  0  0  0  0  0  0  0  0  0  0  0
   51.3198  -33.4813 -103.1657 N   0  0  0  0  0  0  0  0  0  0  0  0
   48.3612  -33.4152 -104.0467 N   0  0  0  0  0  0  0  0  0  0  0  0
   47.1111  -33.0595 -104.0635 C   0  0  0  0  0  0  0  0  0  0  0  0
   46.8381  -32.1201 -103.0967 N   0  0  0  0  0  0  0  0  0  0  0  0
  2  1  1  1  0  0  0
  2  3  1  0  0  0  0
  2  5  1  0  0  0  0
  3  4  1  0  0  0  0
  3 17  1  0  0  0  0
  5  6  1  0  0  0  0
  7  6  1  6  0  0  0
  7  8  1  0  0  0  0
  7  9  1  0  0  0  0
 10  9  1  6  0  0  0
 10 11  1  0  0  0  0
 10 12  1  0  0  0  0
 11 16  1  0  0  0  0
 12 13  1  1  0  0  0
 12 14  1  0  0  0  0
 14 15  1  6  0  0  0
 14 16  1  0  0  0  0
 16 27  1  1  0  0  0
 18 19  2  0  0  0  0
 18 23  1  0  0  0  0
 19 20  1  0  0  0  0
 20 21  2  0  0  0  0
 21 22  1  0  0  0  0
 21 27  1  0  0  0  0
 22 23  2  0  0  0  0
 22 25  1  0  0  0  0
 23 24  1  0  0  0  0
 25 26  2  0  0  0  0
 26 27  1  0  0  0  0
M  END
>  <CHROM.1>
22.63830225,56.65907942,176.44451208,-71.05953122,-169.06802552,-52.41335844
104.01458294,47.79241210,-29.57618179,-103.70232890,-1.30076843,-0.32996198
2.67447963

>  <Name>
ligand

>  <RI>
0

>  <Rbt.Current_Directory>
/home/itssahil/PROJECTS/Mol_Feturizer/Test_systems_manuscript/rnas/4l81

>  <Rbt.Executable>
rbdock ($Id: //depot/dev/client3/rdock/2013.1/src/exe/rbdock.cxx#4 $)

>  <Rbt.Library>
libRbt.so (2013.1, Build901 2013/11/27)

>  <Rbt.Parameter_File>
/export/apps/rDock/src/rDock_2013.1_src/data/scripts/dock_solv.prm

>  <Rbt.Receptor>
prm/pocket_docking_4.prm

>  <SCORE>
-12.3911

>  <SCORE.INTER>
-9.57321

>  <SCORE.INTER.CONST>
1

>  <SCORE.INTER.POLAR>
0

>  <SCORE.INTER.ROT>
7

>  <SCORE.INTER.SOLV>
11.142

>  <SCORE.INTER.VDW>
-18.3628

>  <SCORE.INTER.norm>
-0.354563

>  <SCORE.INTRA>
-2.81792

>  <SCORE.INTRA.DIHEDRAL>
-3.88277

>  <SCORE.INTRA.DIHEDRAL.0>
8.34559

>  <SCORE.INTRA.POLAR>
0

>  <SCORE.INTRA.POLAR.0>
0

>  <SCORE.INTRA.REPUL>
0

>  <SCORE.INTRA.REPUL.0>
0

>  <SCORE.INTRA.SOLV>
-0.250982

>  <SCORE.INTRA.SOLV.lig_0>
-48.829

>  <SCORE.INTRA.VDW>
-0.751043

>  <SCORE.INTRA.VDW.0>
-1.77092

>  <SCORE.INTRA.norm>
-0.104367

>  <SCORE.RESTR>
0

>  <SCORE.RESTR.CAVITY>
0

>  <SCORE.RESTR.norm>
0

>  <SCORE.SYSTEM>
0

>  <SCORE.SYSTEM.CONST>
0

>  <SCORE.SYSTEM.DIHEDRAL>
0

>  <SCORE.SYSTEM.SOLV>
0

>  <SCORE.SYSTEM.norm>
0

>  <SCORE.heavy>
27

>  <SCORE.norm>
-0.458931

>  <RMSD>
5.163

$$$$
ligand
 OpenBabel02271912153D
libRbt.so/2013.1/901 2013/11/27
 27 29  0  0  0  0  0  0  0  0999 V2000
   49.2899  -25.7494 -105.2578 N   0  0  0  0  0  0  0  0  0  0  0  0
   48.0340  -25.4316 -105.9465 C   0  0  2  0  0  0  0  0  0  0  0  0
   48.3154  -24.4990 -107.1057 C   0  0  0  0  0  0  0  0  0  0  0  0
   49.3386  -23.8315 -107.1230 O   0  0  0  0  0  0  0  0  0  0  0  0
   47.0323  -24.7571 -104.9994 C   0  0  0  0  0  0  0  0  0  0  0  0
   46.6747  -25.6801 -103.8431 C   0  0  0  0  0  0  0  0  0  0  0  0
   45.8801  -27.2429 -104.3812 S   0  0  2  0  0  0  0  0  0  0  0  0
   44.1784  -26.7475 -104.8035 C   0  0  0  0  0  0  0  0  0  0  0  0
   45.5890  -27.8718 -102.7294 C   0  0  0  0  0  0  0  0  0  0  0  0
   44.6132  -29.0174 -102.6805 C   0  0  1  0  0  0  0  0  0  0  0  0
   45.0736  -30.0286 -103.5928 O   0  0  0  0  0  0  0  0  0  0  0  0
   44.8131  -29.5563 -101.3213 C   0  0  1  0  0  0  0  0  0  0  0  0
   43.8126  -29.0358 -100.4476 O   0  0  0  0  0  0  0  0  0  0  0  0
   44.6025  -31.0251 -101.5222 C   0  0  1  0  0  0  0  0  0  0  0  0
   43.2030  -31.3530 -101.3990 O   0  0  0  0  0  0  0  0  0  0  0  0
   45.0933  -31.3367 -102.9679 C   0  0  2  0  0  0  0  0  0  0  0  0
   47.5418  -24.4314 -108.0448 O   0  0  0  0  0  0  0  0  0  0  0  0
   50.1443  -31.4384 -101.3323 N   0  0  0  0  0  0  0  0  0  0  0  0
   49.1227  -30.7099 -100.8190 C   0  0  0  0  0  0  0  0  0  0  0  0
   47.8672  -30.8077 -101.3040 N   0  0  0  0  0  0  0  0  0  0  0  0
   47.6054  -31.5709 -102.3775 C   0  0  0  0  0  0  0  0  0  0  0  0
   48.6720  -32.3323 -102.9819 C   0  0  0  0  0  0  0  0  0  0  0  0
   49.9728  -32.2423 -102.4030 C   0  0  0  0  0  0  0  0  0  0  0  0
   51.0360  -32.9511 -102.9245 N   0  0  0  0  0  0  0  0  0  0  0  0
   48.1504  -32.9926 -104.0224 N   0  0  0  0  0  0  0  0  0  0  0  0
   46.8865  -32.7037 -104.1149 C   0  0  0  0  0  0  0  0  0  0  0  0
   46.4904  -31.8372 -103.1230 N   0  0  0  0  0  0  0  0  0  0  0  0
  2  1  1  1  0  0  0
  2  3  1  0  0  0  0
  2  5  1  0  0  0  0
  3  4  1  0  0  0  0
  3 17  1  0  0  0  0
  5  6  1  0  0  0  0
  7  6  1  1  0  0  0
  7  8  1  0  0  0  0
  7  9  1  0  0  0  0
 10  9  1  1  0  0  0
 10 11  1  0  0  0  0
 10 12  1  0  0  0  0
 11 16  1  0  0  0  0
 12 13  1  1  0  0  0
 12 14  1  0  0  0  0
 14 15  1  6  0  0  0
 14 16  1  0  0  0  0
 16 27  1  1  0  0  0
 18 19  2  0  0  0  0
 18 23  1  0  0  0  0
 19 20  1  0  0  0  0
 20 21  2  0  0  0  0
 21 22  1  0  0  0  0
 21 27  1  0  0  0  0
 22 23  2  0  0  0  0
 22 25  1  0  0  0  0
 23 24  1  0  0  0  0
 25 26  2  0  0  0  0
 26 27  1  0  0  0  0
M  END
>  <CHROM.1>
-21.18472494,-61.42009314,-61.20392690,-75.91432705,164.96998171,53.86496363
81.96763797,46.88709944,-28.97524773,-103.54054580,-1.50578481,-0.30604156
2.62604285

>  <Name>
ligand

>  <RI>
0

>  <Rbt.Current_Directory>
/home/itssahil/PROJECTS/Mol_Feturizer/Test_systems_manuscript/rnas/4l81

>  <Rbt.Executable>
rbdock ($Id: //depot/dev/client3/rdock/2013.1/src/exe/rbdock.cxx#4 $)

>  <Rbt.Library>
libRbt.so (2013.1, Build901 2013/11/27)

>  <Rbt.Parameter_File>
/export/apps/rDock/src/rDock_2013.1_src/data/scripts/dock_solv.prm

>  <Rbt.Receptor>
prm/pocket_docking_6.prm

>  <SCORE>
-16.1703

>  <SCORE.INTER>
-12.965

>  <SCORE.INTER.CONST>
1

>  <SCORE.INTER.POLAR>
0

>  <SCORE.INTER.ROT>
7

>  <SCORE.INTER.SOLV>
11.9279

>  <SCORE.INTER.VDW>
-20.886

>  <SCORE.INTER.norm>
-0.480185

>  <SCORE.INTRA>
-3.20529

>  <SCORE.INTRA.DIHEDRAL>
-4.60587

>  <SCORE.INTRA.DIHEDRAL.0>
8.34559

>  <SCORE.INTRA.POLAR>
0

>  <SCORE.INTRA.POLAR.0>
0

>  <SCORE.INTRA.REPUL>
0

>  <SCORE.INTRA.REPUL.0>
0

>  <SCORE.INTRA.SOLV>
0.0730643

>  <SCORE.INTRA.SOLV.lig_0>
-48.829

>  <SCORE.INTRA.VDW>
-0.938888

>  <SCORE.INTRA.VDW.0>
-1.77092

>  <SCORE.INTRA.norm>
-0.118715

>  <SCORE.RESTR>
0

>  <SCORE.RESTR.CAVITY>
0

>  <SCORE.RESTR.norm>
0

>  <SCORE.SYSTEM>
0

>  <SCORE.SYSTEM.CONST>
0

>  <SCORE.SYSTEM.DIHEDRAL>
0

>  <SCORE.SYSTEM.SOLV>
0

>  <SCORE.SYSTEM.norm>
0

>  <SCORE.heavy>
27

>  <SCORE.norm>
-0.5989

>  <RMSD>
5.165

$$$$
ligand
 OpenBabel02271912153D
libRbt.so/2013.1/901 2013/11/27
 27 29  0  0  0  0  0  0  0  0999 V2000
   43.9292  -30.9691 -100.8766 N   0  0  0  0  0  0  0  0  0  0  0  0
   45.1029  -30.1985 -101.3023 C   0  0  2  0  0  0  0  0  0  0  0  0
   46.0920  -30.1114 -100.1591 C   0  0  0  0  0  0  0  0  0  0  0  0
   47.1880  -30.6430 -100.2530 O   0  0  0  0  0  0  0  0  0  0  0  0
   44.7132  -28.7771 -101.7303 C   0  0  0  0  0  0  0  0  0  0  0  0
   45.8359  -28.1236 -102.5235 C   0  0  0  0  0  0  0  0  0  0  0  0
   45.3420  -26.5440 -103.3137 S   0  0  2  0  0  0  0  0  0  0  0  0
   44.2957  -27.0613 -104.7128 C   0  0  0  0  0  0  0  0  0  0  0  0
   46.8836  -26.2951 -104.1914 C   0  0  0  0  0  0  0  0  0  0  0  0
   48.0204  -25.8567 -103.3068 C   0  0  1  0  0  0  0  0  0  0  0  0
   48.3989  -26.9759 -102.4876 O   0  0  0  0  0  0  0  0  0  0  0  0
   49.1198  -25.6507 -104.2694 C   0  0  1  0  0  0  0  0  0  0  0  0
   49.2145  -24.2659 -104.5993 O   0  0  0  0  0  0  0  0  0  0  0  0
   50.3217  -26.0719 -103.4818 C   0  0  1  0  0  0  0  0  0  0  0  0
   50.8380  -24.9603 -102.7209 O   0  0  0  0  0  0  0  0  0  0  0  0
   49.8323  -27.1922 -102.5156 C   0  0  2  0  0  0  0  0  0  0  0  0
   45.8164  -29.4838  -99.1516 O   0  0  0  0  0  0  0  0  0  0  0  0
   48.5955  -31.1822 -105.7940 N   0  0  0  0  0  0  0  0  0  0  0  0
   48.0614  -29.9365 -105.7682 C   0  0  0  0  0  0  0  0  0  0  0  0
   48.4971  -28.9950 -104.9052 N   0  0  0  0  0  0  0  0  0  0  0  0
   49.4211  -29.2920 -103.9770 C   0  0  0  0  0  0  0  0  0  0  0  0
   49.9876  -30.6188 -103.9414 C   0  0  0  0  0  0  0  0  0  0  0  0
   49.5381  -31.5671 -104.9078 C   0  0  0  0  0  0  0  0  0  0  0  0
   50.0448  -32.8505 -104.9367 N   0  0  0  0  0  0  0  0  0  0  0  0
   50.8669  -30.6498 -102.9331 N   0  0  0  0  0  0  0  0  0  0  0  0
   50.8843  -29.4871 -102.3523 C   0  0  0  0  0  0  0  0  0  0  0  0
   50.0187  -28.6054 -102.9565 N   0  0  0  0  0  0  0  0  0  0  0  0
  2  1  1  1  0  0  0
  2  3  1  0  0  0  0
  2  5  1  0  0  0  0
  3  4  1  0  0  0  0
  3 17  1  0  0  0  0
  5  6  1  0  0  0  0
  7  6  1  1  0  0  0
  7  8  1  0  0  0  0
  7  9  1  0  0  0  0
 10  9  1  6  0  0  0
 10 11  1  0  0  0  0
 10 12  1  0  0  0  0
 11 16  1  0  0  0  0
 12 13  1  1  0  0  0
 12 14  1  0  0  0  0
 14 15  1  1  0  0  0
 14 16  1  0  0  0  0
 16 27  1  6  0  0  0
 18 19  2  0  0  0  0
 18 23  1  0  0  0  0
 19 20  1  0  0  0  0
 20 21  2  0  0  0  0
 21 22  1  0  0  0  0
 21 27  1  0  0  0  0
 22 23  2  0  0  0  0
 22 25  1  0  0  0  0
 23 24  1  0  0  0  0
 25 26  2  0  0  0  0
 26 27  1  0  0  0  0
M  END
>  <CHROM.1>
114.94115020,-164.12905564,170.07437239,-74.33632616,-74.36022125,70.95622156
45.64816895,47.86860589,-28.44478581,-103.08395242,-2.63631958,0.46134188
-0.14595449

>  <Name>
ligand

>  <RI>
0

>  <Rbt.Current_Directory>
/home/itssahil/PROJECTS/Mol_Feturizer/Test_systems_manuscript/rnas/4l81

>  <Rbt.Executable>
rbdock ($Id: //depot/dev/client3/rdock/2013.1/src/exe/rbdock.cxx#4 $)

>  <Rbt.Library>
libRbt.so (2013.1, Build901 2013/11/27)

>  <Rbt.Parameter_File>
/export/apps/rDock/src/rDock_2013.1_src/data/scripts/dock_solv.prm

>  <Rbt.Receptor>
prm/pocket_docking_4.prm

>  <SCORE>
-15.2285

>  <SCORE.INTER>
-11.4162

>  <SCORE.INTER.CONST>
1

>  <SCORE.INTER.POLAR>
0

>  <SCORE.INTER.ROT>
7

>  <SCORE.INTER.SOLV>
15.7152

>  <SCORE.INTER.VDW>
-21.1159

>  <SCORE.INTER.norm>
-0.422822

>  <SCORE.INTRA>
-3.81235

>  <SCORE.INTRA.DIHEDRAL>
-3.10873

>  <SCORE.INTRA.DIHEDRAL.0>
8.34559

>  <SCORE.INTRA.POLAR>
0

>  <SCORE.INTRA.POLAR.0>
0

>  <SCORE.INTRA.REPUL>
0

>  <SCORE.INTRA.REPUL.0>
0

>  <SCORE.INTRA.SOLV>
-1.19369

>  <SCORE.INTRA.SOLV.lig_0>
-48.829

>  <SCORE.INTRA.VDW>
-1.66113

>  <SCORE.INTRA.VDW.0>
-1.77092

>  <SCORE.INTRA.norm>
-0.141198

>  <SCORE.RESTR>
0

>  <SCORE.RESTR.CAVITY>
0

>  <SCORE.RESTR.norm>
0

>  <SCORE.SYSTEM>
0

>  <SCORE.SYSTEM.CONST>
0

>  <SCORE.SYSTEM.DIHEDRAL>
0

>  <SCORE.SYSTEM.SOLV>
0

>  <SCORE.SYSTEM.norm>
0

>  <SCORE.heavy>
27

>  <SCORE.norm>
-0.56402

>  <RMSD>
5.166

$$$$
ligand
 OpenBabel02271912153D
libRbt.so/2013.1/901 2013/11/27
 27 29  0  0  0  0  0  0  0  0999 V2000
   48.6475  -28.3738 -106.7757 N   0  0  0  0  0  0  0  0  0  0  0  0
   47.4240  -27.9362 -107.4571 C   0  0  2  0  0  0  0  0  0  0  0  0
   47.7905  -27.1465 -108.6960 C   0  0  0  0  0  0  0  0  0  0  0  0
   47.8165  -27.6936 -109.7881 O   0  0  0  0  0  0  0  0  0  0  0  0
   46.5607  -27.0546 -106.5444 C   0  0  0  0  0  0  0  0  0  0  0  0
   46.1861  -27.7983 -105.2702 C   0  0  0  0  0  0  0  0  0  0  0  0
   45.3544  -26.7360 -104.0280 S   0  0  2  0  0  0  0  0  0  0  0  0
   46.6181  -25.4976 -103.5927 C   0  0  0  0  0  0  0  0  0  0  0  0
   45.5781  -27.8623 -102.6532 C   0  0  0  0  0  0  0  0  0  0  0  0
   44.5732  -28.9829 -102.6184 C   0  0  1  0  0  0  0  0  0  0  0  0
   44.9987  -29.9865 -103.5558 O   0  0  0  0  0  0  0  0  0  0  0  0
   44.7715  -29.5551 -101.2727 C   0  0  1  0  0  0  0  0  0  0  0  0
   43.7930  -29.0272 -100.3786 O   0  0  0  0  0  0  0  0  0  0  0  0
   44.5208  -31.0135 -101.5017 C   0  0  1  0  0  0  0  0  0  0  0  0
   43.1144  -31.3075 -101.3717 O   0  0  0  0  0  0  0  0  0  0  0  0
   44.9899  -31.3074 -102.9583 C   0  0  2  0  0  0  0  0  0  0  0  0
   48.0296  -25.9541 -108.6189 O   0  0  0  0  0  0  0  0  0  0  0  0
   50.0910  -31.4333 -101.4883 N   0  0  0  0  0  0  0  0  0  0  0  0
   49.1003  -30.6638 -100.9742 C   0  0  0  0  0  0  0  0  0  0  0  0
   47.8276  -30.7589 -101.4124 N   0  0  0  0  0  0  0  0  0  0  0  0
   47.5162  -31.5632 -102.4418 C   0  0  0  0  0  0  0  0  0  0  0  0
   48.5481  -32.3704 -103.0468 C   0  0  0  0  0  0  0  0  0  0  0  0
   49.8692  -32.2799 -102.5160 C   0  0  0  0  0  0  0  0  0  0  0  0
   50.9015  -33.0309 -103.0405 N   0  0  0  0  0  0  0  0  0  0  0  0
   47.9799  -33.0655 -104.0391 N   0  0  0  0  0  0  0  0  0  0  0  0
   46.7189  -32.7571 -104.1024 C   0  0  0  0  0  0  0  0  0  0  0  0
   46.3719  -31.8406 -103.1373 N   0  0  0  0  0  0  0  0  0  0  0  0
  2  1  1  1  0  0  0
  2  3  1  0  0  0  0
  2  5  1  0  0  0  0
  3  4  1  0  0  0  0
  3 17  1  0  0  0  0
  5  6  1  0  0  0  0
  7  6  1  6  0  0  0
  7  8  1  0  0  0  0
  7  9  1  0  0  0  0
 10  9  1  1  0  0  0
 10 11  1  0  0  0  0
 10 12  1  0  0  0  0
 11 16  1  0  0  0  0
 12 13  1  1  0  0  0
 12 14  1  0  0  0  0
 14 15  1  6  0  0  0
 14 16  1  0  0  0  0
 16 27  1  1  0  0  0
 18 19  2  0  0  0  0
 18 23  1  0  0  0  0
 19 20  1  0  0  0  0
 20 21  2  0  0  0  0
 21 22  1  0  0  0  0
 21 27  1  0  0  0  0
 22 23  2  0  0  0  0
 22 25  1  0  0  0  0
 23 24  1  0  0  0  0
 25 26  2  0  0  0  0
 26 27  1  0  0  0  0
M  END
>  <CHROM.1>
96.76639609,-58.19492422,171.95604640,-63.46797409,-80.35346656,80.21615661
77.98023036,46.75054919,-29.52313023,-103.87192356,-1.48234977,-0.61933049
2.30217705

>  <Name>
ligand

>  <RI>
0

>  <Rbt.Current_Directory>
/home/itssahil/PROJECTS/Mol_Feturizer/Test_systems_manuscript/rnas/4l81

>  <Rbt.Executable>
rbdock ($Id: //depot/dev/client3/rdock/2013.1/src/exe/rbdock.cxx#4 $)

>  <Rbt.Library>
libRbt.so (2013.1, Build901 2013/11/27)

>  <Rbt.Parameter_File>
/export/apps/rDock/src/rDock_2013.1_src/data/scripts/dock_solv.prm

>  <Rbt.Receptor>
prm/pocket_docking_8.prm

>  <SCORE>
-16.5073

>  <SCORE.INTER>
-14.1291

>  <SCORE.INTER.CONST>
1

>  <SCORE.INTER.POLAR>
0

>  <SCORE.INTER.ROT>
7

>  <SCORE.INTER.SOLV>
13.6473

>  <SCORE.INTER.VDW>
-22.2352

>  <SCORE.INTER.norm>
-0.5233

>  <SCORE.INTRA>
-2.37817

>  <SCORE.INTRA.DIHEDRAL>
-2.85501

>  <SCORE.INTRA.DIHEDRAL.0>
8.34559

>  <SCORE.INTRA.POLAR>
0

>  <SCORE.INTRA.POLAR.0>
0

>  <SCORE.INTRA.REPUL>
0

>  <SCORE.INTRA.REPUL.0>
0

>  <SCORE.INTRA.SOLV>
-0.527621

>  <SCORE.INTRA.SOLV.lig_0>
-48.829

>  <SCORE.INTRA.VDW>
-0.686858

>  <SCORE.INTRA.VDW.0>
-1.77092

>  <SCORE.INTRA.norm>
-0.0880804

>  <SCORE.RESTR>
0

>  <SCORE.RESTR.CAVITY>
0

>  <SCORE.RESTR.norm>
0

>  <SCORE.SYSTEM>
0

>  <SCORE.SYSTEM.CONST>
0

>  <SCORE.SYSTEM.DIHEDRAL>
0

>  <SCORE.SYSTEM.SOLV>
0

>  <SCORE.SYSTEM.norm>
0

>  <SCORE.heavy>
27

>  <SCORE.norm>
-0.611381

>  <RMSD>
5.167

$$$$
ligand
 OpenBabel02271912153D
libRbt.so/2013.1/901 2013/11/27
 27 29  0  0  0  0  0  0  0  0999 V2000
   48.3916  -24.0782 -108.3700 N   0  0  0  0  0  0  0  0  0  0  0  0
   48.5346  -25.5192 -108.1339 C   0  0  2  0  0  0  0  0  0  0  0  0
   47.6076  -26.2774 -109.0604 C   0  0  0  0  0  0  0  0  0  0  0  0
   48.0533  -26.8437 -110.0470 O   0  0  0  0  0  0  0  0  0  0  0  0
   48.1931  -25.8843 -106.6829 C   0  0  0  0  0  0  0  0  0  0  0  0
   49.2728  -25.3884 -105.7314 C   0  0  0  0  0  0  0  0  0  0  0  0
   48.9603  -25.8386 -103.9813 S   0  0  2  0  0  0  0  0  0  0  0  0
   50.5734  -25.5945 -103.1703 C   0  0  0  0  0  0  0  0  0  0  0  0
   49.0385  -27.6098 -104.2371 C   0  0  0  0  0  0  0  0  0  0  0  0
   47.7013  -28.2405 -104.5219 C   0  0  1  0  0  0  0  0  0  0  0  0
   47.9380  -29.5165 -105.1404 O   0  0  0  0  0  0  0  0  0  0  0  0
   47.1797  -28.5200 -103.1700 C   0  0  1  0  0  0  0  0  0  0  0  0
   46.2882  -27.4783 -102.7756 O   0  0  0  0  0  0  0  0  0  0  0  0
   46.4193  -29.7936 -103.3742 C   0  0  1  0  0  0  0  0  0  0  0  0
   45.0672  -29.5097 -103.7897 O   0  0  0  0  0  0  0  0  0  0  0  0
   47.1677  -30.5658 -104.5019 C   0  0  2  0  0  0  0  0  0  0  0  0
   46.4172  -26.3569 -108.8123 O   0  0  0  0  0  0  0  0  0  0  0  0
   51.9875  -31.8188 -102.6587 N   0  0  0  0  0  0  0  0  0  0  0  0
   51.5056  -30.5841 -102.9434 C   0  0  0  0  0  0  0  0  0  0  0  0
   50.2388  -30.3973 -103.3692 N   0  0  0  0  0  0  0  0  0  0  0  0
   49.4360  -31.4463 -103.6109 C   0  0  0  0  0  0  0  0  0  0  0  0
   49.9218  -32.7819 -103.3607 C   0  0  0  0  0  0  0  0  0  0  0  0
   51.2487  -32.9307 -102.8583 C   0  0  0  0  0  0  0  0  0  0  0  0
   51.7732  -34.1784 -102.5879 N   0  0  0  0  0  0  0  0  0  0  0  0
   48.9392  -33.6307 -103.6846 N   0  0  0  0  0  0  0  0  0  0  0  0
   47.9172  -32.9502 -104.1111 C   0  0  0  0  0  0  0  0  0  0  0  0
   48.1609  -31.5969 -104.0817 N   0  0  0  0  0  0  0  0  0  0  0  0
  2  1  1  1  0  0  0
  2  3  1  0  0  0  0
  2  5  1  0  0  0  0
  3  4  1  0  0  0  0
  3 17  1  0  0  0  0
  5  6  1  0  0  0  0
  7  6  1  6  0  0  0
  7  8  1  0  0  0  0
  7  9  1  0  0  0  0
 10  9  1  1  0  0  0
 10 11  1  0  0  0  0
 10 12  1  0  0  0  0
 11 16  1  0  0  0  0
 12 13  1  6  0  0  0
 12 14  1  0  0  0  0
 14 15  1  6  0  0  0
 14 16  1  0  0  0  0
 16 27  1  1  0  0  0
 18 19  2  0  0  0  0
 18 23  1  0  0  0  0
 19 20  1  0  0  0  0
 20 21  2  0  0  0  0
 21 22  1  0  0  0  0
 21 27  1  0  0  0  0
 22 23  2  0  0  0  0
 22 25  1  0  0  0  0
 23 24  1  0  0  0  0
 25 26  2  0  0  0  0
 26 27  1  0  0  0  0
M  END
>  <CHROM.1>
103.69645290,-71.25194503,-178.05990157,163.48557291,-92.12856355,160.78669855
36.06726268,48.62122101,-28.84067920,-104.77692655,-1.89809942,0.72679581
2.80111707

>  <Name>
ligand

>  <RI>
0

>  <Rbt.Current_Directory>
/home/itssahil/PROJECTS/Mol_Feturizer/Test_systems_manuscript/rnas/4l81

>  <Rbt.Executable>
rbdock ($Id: //depot/dev/client3/rdock/2013.1/src/exe/rbdock.cxx#4 $)

>  <Rbt.Library>
libRbt.so (2013.1, Build901 2013/11/27)

>  <Rbt.Parameter_File>
/export/apps/rDock/src/rDock_2013.1_src/data/scripts/dock_solv.prm

>  <Rbt.Receptor>
prm/pocket_docking_5.prm

>  <SCORE>
-5.66677

>  <SCORE.INTER>
-3.65604

>  <SCORE.INTER.CONST>
1

>  <SCORE.INTER.POLAR>
0

>  <SCORE.INTER.ROT>
7

>  <SCORE.INTER.SOLV>
10.475

>  <SCORE.INTER.VDW>
-14.1957

>  <SCORE.INTER.norm>
-0.135409

>  <SCORE.INTRA>
-2.01072

>  <SCORE.INTRA.DIHEDRAL>
-1.64468

>  <SCORE.INTRA.DIHEDRAL.0>
8.34559

>  <SCORE.INTRA.POLAR>
0

>  <SCORE.INTRA.POLAR.0>
0

>  <SCORE.INTRA.REPUL>
0

>  <SCORE.INTRA.REPUL.0>
0

>  <SCORE.INTRA.SOLV>
-0.520751

>  <SCORE.INTRA.SOLV.lig_0>
-48.829

>  <SCORE.INTRA.VDW>
-0.928006

>  <SCORE.INTRA.VDW.0>
-1.77092

>  <SCORE.INTRA.norm>
-0.0744713

>  <SCORE.RESTR>
0

>  <SCORE.RESTR.CAVITY>
0

>  <SCORE.RESTR.norm>
0

>  <SCORE.SYSTEM>
0

>  <SCORE.SYSTEM.CONST>
0

>  <SCORE.SYSTEM.DIHEDRAL>
0

>  <SCORE.SYSTEM.SOLV>
0

>  <SCORE.SYSTEM.norm>
0

>  <SCORE.heavy>
27

>  <SCORE.norm>
-0.20988

>  <RMSD>
5.170

$$$$
ligand
 OpenBabel02271912153D
libRbt.so/2013.1/901 2013/11/27
 27 29  0  0  0  0  0  0  0  0999 V2000
   45.0140  -31.6318 -103.4312 N   0  0  0  0  0  0  0  0  0  0  0  0
   44.9550  -31.0820 -102.0722 C   0  0  2  0  0  0  0  0  0  0  0  0
   43.6572  -30.3235 -101.8900 C   0  0  0  0  0  0  0  0  0  0  0  0
   42.6616  -30.6492 -102.5187 O   0  0  0  0  0  0  0  0  0  0  0  0
   46.1280  -30.1297 -101.8030 C   0  0  0  0  0  0  0  0  0  0  0  0
   46.6137  -29.4901 -103.0960 C   0  0  0  0  0  0  0  0  0  0  0  0
   45.7483  -27.9247 -103.5009 S   0  0  2  0  0  0  0  0  0  0  0  0
   44.2395  -28.4681 -104.3658 C   0  0  0  0  0  0  0  0  0  0  0  0
   46.7606  -27.5253 -104.9237 C   0  0  0  0  0  0  0  0  0  0  0  0
   47.8289  -26.5032 -104.6395 C   0  0  1  0  0  0  0  0  0  0  0  0
   48.3721  -26.7829 -103.3381 O   0  0  0  0  0  0  0  0  0  0  0  0
   48.8792  -26.8512 -105.6159 C   0  0  1  0  0  0  0  0  0  0  0  0
   48.7697  -26.0050 -106.7593 O   0  0  0  0  0  0  0  0  0  0  0  0
   50.1357  -26.5358 -104.8650 C   0  0  1  0  0  0  0  0  0  0  0  0
   50.4916  -25.1489 -105.0422 O   0  0  0  0  0  0  0  0  0  0  0  0
   49.8214  -26.8133 -103.3642 C   0  0  2  0  0  0  0  0  0  0  0  0
   43.5864  -29.4051 -101.0922 O   0  0  0  0  0  0  0  0  0  0  0  0
   49.0461  -30.7579  -99.8948 N   0  0  0  0  0  0  0  0  0  0  0  0
   48.3689  -29.5867  -99.9811 C   0  0  0  0  0  0  0  0  0  0  0  0
   48.6392  -28.6796 -100.9430 N   0  0  0  0  0  0  0  0  0  0  0  0
   49.6562  -28.8715 -101.7988 C   0  0  0  0  0  0  0  0  0  0  0  0
   50.4306  -30.0865 -101.7169 C   0  0  0  0  0  0  0  0  0  0  0  0
   50.0753  -31.0434 -100.7202 C   0  0  0  0  0  0  0  0  0  0  0  0
   50.7674  -32.2306 -100.5926 N   0  0  0  0  0  0  0  0  0  0  0  0
   51.3718  -30.0240 -102.6662 N   0  0  0  0  0  0  0  0  0  0  0  0
   51.2528  -28.8984 -103.3051 C   0  0  0  0  0  0  0  0  0  0  0  0
   50.2071  -28.1480 -102.8201 N   0  0  0  0  0  0  0  0  0  0  0  0
  2  1  1  6  0  0  0
  2  3  1  0  0  0  0
  2  5  1  0  0  0  0
  3  4  1  0  0  0  0
  3 17  1  0  0  0  0
  5  6  1  0  0  0  0
  7  6  1  6  0  0  0
  7  8  1  0  0  0  0
  7  9  1  0  0  0  0
 10  9  1  6  0  0  0
 10 11  1  0  0  0  0
 10 12  1  0  0  0  0
 11 16  1  0  0  0  0
 12 13  1  6  0  0  0
 12 14  1  0  0  0  0
 14 15  1  1  0  0  0
 14 16  1  0  0  0  0
 16 27  1  6  0  0  0
 18 19  2  0  0  0  0
 18 23  1  0  0  0  0
 19 20  1  0  0  0  0
 20 21  2  0  0  0  0
 21 22  1  0  0  0  0
 21 27  1  0  0  0  0
 22 23  2  0  0  0  0
 22 25  1  0  0  0  0
 23 24  1  0  0  0  0
 25 26  2  0  0  0  0
 26 27  1  0  0  0  0
M  END
>  <CHROM.1>
29.15095163,27.54909891,89.30070662,-84.74412553,-100.31312980,39.49304096
-38.41733270,47.73210536,-28.78465721,-102.92355106,2.61567948,0.12240097
2.37869802

>  <Name>
ligand

>  <RI>
0

>  <Rbt.Current_Directory>
/home/itssahil/PROJECTS/Mol_Feturizer/Test_systems_manuscript/rnas/4l81

>  <Rbt.Executable>
rbdock ($Id: //depot/dev/client3/rdock/2013.1/src/exe/rbdock.cxx#4 $)

>  <Rbt.Library>
libRbt.so (2013.1, Build901 2013/11/27)

>  <Rbt.Parameter_File>
/export/apps/rDock/src/rDock_2013.1_src/data/scripts/dock_solv.prm

>  <Rbt.Receptor>
prm/pocket_docking_2.prm

>  <SCORE>
-4.89454

>  <SCORE.INTER>
-8.28183

>  <SCORE.INTER.CONST>
1

>  <SCORE.INTER.POLAR>
0

>  <SCORE.INTER.ROT>
7

>  <SCORE.INTER.SOLV>
17.1007

>  <SCORE.INTER.VDW>
-19.4881

>  <SCORE.INTER.norm>
-0.306734

>  <SCORE.INTRA>
2.95038

>  <SCORE.INTRA.DIHEDRAL>
5.27476

>  <SCORE.INTRA.DIHEDRAL.0>
8.34559

>  <SCORE.INTRA.POLAR>
0

>  <SCORE.INTRA.POLAR.0>
0

>  <SCORE.INTRA.REPUL>
0

>  <SCORE.INTRA.REPUL.0>
0

>  <SCORE.INTRA.SOLV>
1.36471

>  <SCORE.INTRA.SOLV.lig_0>
-48.829

>  <SCORE.INTRA.VDW>
-0.36936

>  <SCORE.INTRA.VDW.0>
-1.77092

>  <SCORE.INTRA.norm>
0.109273

>  <SCORE.RESTR>
0.436918

>  <SCORE.RESTR.CAVITY>
0.436918

>  <SCORE.RESTR.norm>
0.0161822

>  <SCORE.SYSTEM>
0

>  <SCORE.SYSTEM.CONST>
0

>  <SCORE.SYSTEM.DIHEDRAL>
0

>  <SCORE.SYSTEM.SOLV>
0

>  <SCORE.SYSTEM.norm>
0

>  <SCORE.heavy>
27

>  <SCORE.norm>
-0.181279

>  <RMSD>
5.174

$$$$
ligand
 OpenBabel02271912153D
libRbt.so/2013.1/901 2013/11/27
 27 29  0  0  0  0  0  0  0  0999 V2000
   49.3864  -25.8001 -104.9170 N   0  0  0  0  0  0  0  0  0  0  0  0
   48.2113  -25.5726 -105.7655 C   0  0  2  0  0  0  0  0  0  0  0  0
   48.6101  -24.7463 -106.9700 C   0  0  0  0  0  0  0  0  0  0  0  0
   49.6607  -24.1226 -106.9667 O   0  0  0  0  0  0  0  0  0  0  0  0
   47.1047  -24.8332 -105.0012 C   0  0  0  0  0  0  0  0  0  0  0  0
   46.6011  -25.6700 -103.8338 C   0  0  0  0  0  0  0  0  0  0  0  0
   45.8413  -27.2565 -104.3527 S   0  0  2  0  0  0  0  0  0  0  0  0
   44.1347  -26.8007 -104.7993 C   0  0  0  0  0  0  0  0  0  0  0  0
   45.5461  -27.8629 -102.6932 C   0  0  0  0  0  0  0  0  0  0  0  0
   44.5614  -29.0002 -102.6300 C   0  0  1  0  0  0  0  0  0  0  0  0
   44.9994  -30.0147 -103.5498 O   0  0  0  0  0  0  0  0  0  0  0  0
   44.7775  -29.5417 -101.2744 C   0  0  1  0  0  0  0  0  0  0  0  0
   43.7949  -29.0133 -100.3852 O   0  0  0  0  0  0  0  0  0  0  0  0
   44.5515  -31.0085 -101.4727 C   0  0  1  0  0  0  0  0  0  0  0  0
   43.1512  -31.3246 -101.3284 O   0  0  0  0  0  0  0  0  0  0  0  0
   45.0175  -31.3233 -102.9260 C   0  0  2  0  0  0  0  0  0  0  0  0
   47.9043  -24.7230 -107.9631 O   0  0  0  0  0  0  0  0  0  0  0  0
   50.0944  -31.4591 -101.3753 N   0  0  0  0  0  0  0  0  0  0  0  0
   49.0874  -30.7205 -100.8477 C   0  0  0  0  0  0  0  0  0  0  0  0
   47.8232  -30.8102 -101.3111 N   0  0  0  0  0  0  0  0  0  0  0  0
   47.5372  -31.5753 -102.3771 C   0  0  0  0  0  0  0  0  0  0  0  0
   48.5874  -32.3475 -102.9963 C   0  0  0  0  0  0  0  0  0  0  0  0
   49.8985  -32.2657 -102.4398 C   0  0  0  0  0  0  0  0  0  0  0  0
   50.9471  -32.9850 -102.9763 N   0  0  0  0  0  0  0  0  0  0  0  0
   48.0431  -33.0075 -104.0253 N   0  0  0  0  0  0  0  0  0  0  0  0
   46.7801  -32.7090 -104.0976 C   0  0  0  0  0  0  0  0  0  0  0  0
   46.4077  -31.8355 -103.1026 N   0  0  0  0  0  0  0  0  0  0  0  0
  2  1  1  1  0  0  0
  2  3  1  0  0  0  0
  2  5  1  0  0  0  0
  3  4  1  0  0  0  0
  3 17  1  0  0  0  0
  5  6  1  0  0  0  0
  7  6  1  1  0  0  0
  7  8  1  0  0  0  0
  7  9  1  0  0  0  0
 10  9  1  1  0  0  0
 10 11  1  0  0  0  0
 10 12  1  0  0  0  0
 11 16  1  0  0  0  0
 12 13  1  1  0  0  0
 12 14  1  0  0  0  0
 14 15  1  6  0  0  0
 14 16  1  0  0  0  0
 16 27  1  1  0  0  0
 18 19  2  0  0  0  0
 18 23  1  0  0  0  0
 19 20  1  0  0  0  0
 20 21  2  0  0  0  0
 21 22  1  0  0  0  0
 21 27  1  0  0  0  0
 22 23  2  0  0  0  0
 22 25  1  0  0  0  0
 23 24  1  0  0  0  0
 25 26  2  0  0  0  0
 26 27  1  0  0  0  0
M  END
>  <CHROM.1>
-17.05174077,-63.13639984,-62.25035535,-82.84518219,163.31714805,52.74279036
81.69534509,46.88938702,-29.01808706,-103.49571589,-1.45124885,-0.31363923
2.64168620

>  <Name>
ligand

>  <RI>
0

>  <Rbt.Current_Directory>
/home/itssahil/PROJECTS/Mol_Feturizer/Test_systems_manuscript/rnas/4l81

>  <Rbt.Executable>
rbdock ($Id: //depot/dev/client3/rdock/2013.1/src/exe/rbdock.cxx#4 $)

>  <Rbt.Library>
libRbt.so (2013.1, Build901 2013/11/27)

>  <Rbt.Parameter_File>
/export/apps/rDock/src/rDock_2013.1_src/data/scripts/dock_solv.prm

>  <Rbt.Receptor>
prm/pocket_docking_5.prm

>  <SCORE>
-16.297

>  <SCORE.INTER>
-13.4053

>  <SCORE.INTER.CONST>
1

>  <SCORE.INTER.POLAR>
0

>  <SCORE.INTER.ROT>
7

>  <SCORE.INTER.SOLV>
11.9561

>  <SCORE.INTER.VDW>
-21.1889

>  <SCORE.INTER.norm>
-0.496494

>  <SCORE.INTRA>
-2.89165

>  <SCORE.INTRA.DIHEDRAL>
-4.06516

>  <SCORE.INTRA.DIHEDRAL.0>
8.34559

>  <SCORE.INTRA.POLAR>
0

>  <SCORE.INTRA.POLAR.0>
0

>  <SCORE.INTRA.REPUL>
0

>  <SCORE.INTRA.REPUL.0>
0

>  <SCORE.INTRA.SOLV>
0.0288326

>  <SCORE.INTRA.SOLV.lig_0>
-48.829

>  <SCORE.INTRA.VDW>
-0.873493

>  <SCORE.INTRA.VDW.0>
-1.77092

>  <SCORE.INTRA.norm>
-0.107098

>  <SCORE.RESTR>
0

>  <SCORE.RESTR.CAVITY>
0

>  <SCORE.RESTR.norm>
0

>  <SCORE.SYSTEM>
0

>  <SCORE.SYSTEM.CONST>
0

>  <SCORE.SYSTEM.DIHEDRAL>
0

>  <SCORE.SYSTEM.SOLV>
0

>  <SCORE.SYSTEM.norm>
0

>  <SCORE.heavy>
27

>  <SCORE.norm>
-0.603593

>  <RMSD>
5.174

$$$$
ligand
 OpenBabel02271912153D
libRbt.so/2013.1/901 2013/11/27
 27 29  0  0  0  0  0  0  0  0999 V2000
   49.5820  -27.3314 -104.7997 N   0  0  0  0  0  0  0  0  0  0  0  0
   48.9772  -27.2371 -103.4663 C   0  0  2  0  0  0  0  0  0  0  0  0
   49.4484  -25.9689 -102.7863 C   0  0  0  0  0  0  0  0  0  0  0  0
   50.6401  -25.7035 -102.7387 O   0  0  0  0  0  0  0  0  0  0  0  0
   49.3596  -28.4396 -102.5928 C   0  0  0  0  0  0  0  0  0  0  0  0
   48.5856  -28.4246 -101.2822 C   0  0  0  0  0  0  0  0  0  0  0  0
   48.4940  -30.0687 -100.4747 S   0  0  2  0  0  0  0  0  0  0  0  0
   50.1672  -30.7570 -100.6890 C   0  0  0  0  0  0  0  0  0  0  0  0
   47.6740  -30.8907 -101.8388 C   0  0  0  0  0  0  0  0  0  0  0  0
   46.1760  -30.9483 -101.6993 C   0  0  1  0  0  0  0  0  0  0  0  0
   45.6962  -29.6031 -101.5345 O   0  0  0  0  0  0  0  0  0  0  0  0
   45.7418  -31.3872 -103.0396 C   0  0  1  0  0  0  0  0  0  0  0  0
   45.5143  -32.7957 -103.0322 O   0  0  0  0  0  0  0  0  0  0  0  0
   44.4439  -30.6607 -103.2126 C   0  0  1  0  0  0  0  0  0  0  0  0
   43.3590  -31.4320 -102.6564 O   0  0  0  0  0  0  0  0  0  0  0  0
   44.5937  -29.3201 -102.4326 C   0  0  2  0  0  0  0  0  0  0  0  0
   48.6427  -25.1879 -102.3112 O   0  0  0  0  0  0  0  0  0  0  0  0
   46.5193  -27.1774 -106.8934 N   0  0  0  0  0  0  0  0  0  0  0  0
   46.3344  -28.4922 -106.6196 C   0  0  0  0  0  0  0  0  0  0  0  0
   45.7933  -28.9054 -105.4545 N   0  0  0  0  0  0  0  0  0  0  0  0
   45.4999  -28.0237 -104.4849 C   0  0  0  0  0  0  0  0  0  0  0  0
   45.7192  -26.6165 -104.7178 C   0  0  0  0  0  0  0  0  0  0  0  0
   46.2413  -26.2188 -105.9846 C   0  0  0  0  0  0  0  0  0  0  0  0
   46.4660  -24.8890 -106.2776 N   0  0  0  0  0  0  0  0  0  0  0  0
   45.3548  -25.9670 -103.6060 N   0  0  0  0  0  0  0  0  0  0  0  0
   44.9479  -26.8325 -102.7257 C   0  0  0  0  0  0  0  0  0  0  0  0
   45.0072  -28.1174 -103.2128 N   0  0  0  0  0  0  0  0  0  0  0  0
  2  1  1  6  0  0  0
  2  3  1  0  0  0  0
  2  5  1  0  0  0  0
  3  4  1  0  0  0  0
  3 17  1  0  0  0  0
  5  6  1  0  0  0  0
  7  6  1  6  0  0  0
  7  8  1  0  0  0  0
  7  9  1  0  0  0  0
 10  9  1  6  0  0  0
 10 11  1  0  0  0  0
 10 12  1  0  0  0  0
 11 16  1  0  0  0  0
 12 13  1  1  0  0  0
 12 14  1  0  0  0  0
 14 15  1  1  0  0  0
 14 16  1  0  0  0  0
 16 27  1  6  0  0  0
 18 19  2  0  0  0  0
 18 23  1  0  0  0  0
 19 20  1  0  0  0  0
 20 21  2  0  0  0  0
 21 22  1  0  0  0  0
 21 27  1  0  0  0  0
 22 23  2  0  0  0  0
 22 25  1  0  0  0  0
 23 24  1  0  0  0  0
 25 26  2  0  0  0  0
 26 27  1  0  0  0  0
M  END
>  <CHROM.1>
-50.29577051,-172.61842837,158.72585354,41.52380917,-95.35313686,55.98434755
101.09345953,46.95983197,-28.54186001,-103.16146437,-1.23975147,0.51408673
2.50072440

>  <Name>
ligand

>  <RI>
0

>  <Rbt.Current_Directory>
/home/itssahil/PROJECTS/Mol_Feturizer/Test_systems_manuscript/rnas/4l81

>  <Rbt.Executable>
rbdock ($Id: //depot/dev/client3/rdock/2013.1/src/exe/rbdock.cxx#4 $)

>  <Rbt.Library>
libRbt.so (2013.1, Build901 2013/11/27)

>  <Rbt.Parameter_File>
/export/apps/rDock/src/rDock_2013.1_src/data/scripts/dock_solv.prm

>  <Rbt.Receptor>
prm/pocket_docking_5.prm

>  <SCORE>
-15.8281

>  <SCORE.INTER>
-13.3112

>  <SCORE.INTER.CONST>
1

>  <SCORE.INTER.POLAR>
0

>  <SCORE.INTER.ROT>
7

>  <SCORE.INTER.SOLV>
9.51795

>  <SCORE.INTER.VDW>
-20.3135

>  <SCORE.INTER.norm>
-0.493009

>  <SCORE.INTRA>
-2.51688

>  <SCORE.INTRA.DIHEDRAL>
-1.04974

>  <SCORE.INTRA.DIHEDRAL.0>
8.34559

>  <SCORE.INTRA.POLAR>
0

>  <SCORE.INTRA.POLAR.0>
0

>  <SCORE.INTRA.REPUL>
0

>  <SCORE.INTRA.REPUL.0>
0

>  <SCORE.INTRA.SOLV>
-0.206139

>  <SCORE.INTRA.SOLV.lig_0>
-48.829

>  <SCORE.INTRA.VDW>
-1.88894

>  <SCORE.INTRA.VDW.0>
-1.77092

>  <SCORE.INTRA.norm>
-0.0932178

>  <SCORE.RESTR>
0

>  <SCORE.RESTR.CAVITY>
0

>  <SCORE.RESTR.norm>
0

>  <SCORE.SYSTEM>
0

>  <SCORE.SYSTEM.CONST>
0

>  <SCORE.SYSTEM.DIHEDRAL>
0

>  <SCORE.SYSTEM.SOLV>
0

>  <SCORE.SYSTEM.norm>
0

>  <SCORE.heavy>
27

>  <SCORE.norm>
-0.586227

>  <RMSD>
5.181

$$$$
ligand
 OpenBabel02271912153D
libRbt.so/2013.1/901 2013/11/27
 27 29  0  0  0  0  0  0  0  0999 V2000
   48.0211  -26.8693 -106.5744 N   0  0  0  0  0  0  0  0  0  0  0  0
   48.8285  -25.8243 -105.9349 C   0  0  2  0  0  0  0  0  0  0  0  0
   50.1048  -26.4327 -105.3930 C   0  0  0  0  0  0  0  0  0  0  0  0
   50.1172  -27.5917 -105.0064 O   0  0  0  0  0  0  0  0  0  0  0  0
   48.0676  -25.1580 -104.7807 C   0  0  0  0  0  0  0  0  0  0  0  0
   47.6814  -26.1831 -103.7238 C   0  0  0  0  0  0  0  0  0  0  0  0
   46.4058  -27.3699 -104.2962 S   0  0  2  0  0  0  0  0  0  0  0  0
   44.9955  -26.3116 -104.7547 C   0  0  0  0  0  0  0  0  0  0  0  0
   45.8706  -27.8588 -102.6580 C   0  0  0  0  0  0  0  0  0  0  0  0
   44.8285  -28.9455 -102.6603 C   0  0  1  0  0  0  0  0  0  0  0  0
   45.2571  -29.9659 -103.5778 O   0  0  0  0  0  0  0  0  0  0  0  0
   44.9546  -29.5189 -101.3064 C   0  0  1  0  0  0  0  0  0  0  0  0
   43.9597  -28.9557 -100.4529 O   0  0  0  0  0  0  0  0  0  0  0  0
   44.6649  -30.9690 -101.5417 C   0  0  1  0  0  0  0  0  0  0  0  0
   43.2455  -31.2159 -101.4666 O   0  0  0  0  0  0  0  0  0  0  0  0
   45.1810  -31.2837 -102.9779 C   0  0  2  0  0  0  0  0  0  0  0  0
   51.1357  -25.7835 -105.3688 O   0  0  0  0  0  0  0  0  0  0  0  0
   50.2975  -31.3206 -101.5570 N   0  0  0  0  0  0  0  0  0  0  0  0
   49.3278  -30.4717 -101.1362 C   0  0  0  0  0  0  0  0  0  0  0  0
   48.0480  -30.5972 -101.5453 N   0  0  0  0  0  0  0  0  0  0  0  0
   47.7086  -31.5210 -102.4589 C   0  0  0  0  0  0  0  0  0  0  0  0
   48.7177  -32.4197 -102.9654 C   0  0  0  0  0  0  0  0  0  0  0  0
   50.0470  -32.2879 -102.4645 C   0  0  0  0  0  0  0  0  0  0  0  0
   51.0584  -33.1206 -102.8984 N   0  0  0  0  0  0  0  0  0  0  0  0
   48.1241  -33.2255 -103.8538 N   0  0  0  0  0  0  0  0  0  0  0  0
   46.8682  -32.9028 -103.9432 C   0  0  0  0  0  0  0  0  0  0  0  0
   46.5506  -31.8629 -103.1010 N   0  0  0  0  0  0  0  0  0  0  0  0
  2  1  1  1  0  0  0
  2  3  1  0  0  0  0
  2  5  1  0  0  0  0
  3  4  1  0  0  0  0
  3 17  1  0  0  0  0
  5  6  1  0  0  0  0
  7  6  1  1  0  0  0
  7  8  1  0  0  0  0
  7  9  1  0  0  0  0
 10  9  1  1  0  0  0
 10 11  1  0  0  0  0
 10 12  1  0  0  0  0
 11 16  1  0  0  0  0
 12 13  1  1  0  0  0
 12 14  1  0  0  0  0
 14 15  1  6  0  0  0
 14 16  1  0  0  0  0
 16 27  1  1  0  0  0
 18 19  2  0  0  0  0
 18 23  1  0  0  0  0
 19 20  1  0  0  0  0
 20 21  2  0  0  0  0
 21 22  1  0  0  0  0
 21 27  1  0  0  0  0
 22 23  2  0  0  0  0
 22 25  1  0  0  0  0
 23 24  1  0  0  0  0
 25 26  2  0  0  0  0
 26 27  1  0  0  0  0
M  END
>  <CHROM.1>
-30.79712519,59.16399296,-68.71624575,-58.56245400,-176.36345150,46.25270027
70.13605410,47.31929796,-29.30937620,-103.33419997,1.23605498,0.27671287
-0.40930022

>  <Name>
ligand

>  <RI>
0

>  <Rbt.Current_Directory>
/home/itssahil/PROJECTS/Mol_Feturizer/Test_systems_manuscript/rnas/4l81

>  <Rbt.Executable>
rbdock ($Id: //depot/dev/client3/rdock/2013.1/src/exe/rbdock.cxx#4 $)

>  <Rbt.Library>
libRbt.so (2013.1, Build901 2013/11/27)

>  <Rbt.Parameter_File>
/export/apps/rDock/src/rDock_2013.1_src/data/scripts/dock_solv.prm

>  <Rbt.Receptor>
prm/pocket_docking_3.prm

>  <SCORE>
-13.6178

>  <SCORE.INTER>
-12.1287

>  <SCORE.INTER.CONST>
1

>  <SCORE.INTER.POLAR>
0

>  <SCORE.INTER.ROT>
7

>  <SCORE.INTER.SOLV>
11.3282

>  <SCORE.INTER.VDW>
-20.1285

>  <SCORE.INTER.norm>
-0.449211

>  <SCORE.INTRA>
-1.49324

>  <SCORE.INTRA.DIHEDRAL>
-3.43812

>  <SCORE.INTRA.DIHEDRAL.0>
8.34559

>  <SCORE.INTRA.POLAR>
0

>  <SCORE.INTRA.POLAR.0>
0

>  <SCORE.INTRA.REPUL>
0

>  <SCORE.INTRA.REPUL.0>
0

>  <SCORE.INTRA.SOLV>
1.72826

>  <SCORE.INTRA.SOLV.lig_0>
-48.829

>  <SCORE.INTRA.VDW>
-0.638312

>  <SCORE.INTRA.VDW.0>
-1.77092

>  <SCORE.INTRA.norm>
-0.0553052

>  <SCORE.RESTR>
0.00418481

>  <SCORE.RESTR.CAVITY>
0.00418481

>  <SCORE.RESTR.norm>
0.000154993

>  <SCORE.SYSTEM>
0

>  <SCORE.SYSTEM.CONST>
0

>  <SCORE.SYSTEM.DIHEDRAL>
0

>  <SCORE.SYSTEM.SOLV>
0

>  <SCORE.SYSTEM.norm>
0

>  <SCORE.heavy>
27

>  <SCORE.norm>
-0.504361

>  <RMSD>
5.184

$$$$
ligand
 OpenBabel02271912153D
libRbt.so/2013.1/901 2013/11/27
 27 29  0  0  0  0  0  0  0  0999 V2000
   45.2747  -30.4361 -100.0401 N   0  0  0  0  0  0  0  0  0  0  0  0
   44.5379  -29.9403 -101.2080 C   0  0  2  0  0  0  0  0  0  0  0  0
   43.7464  -31.0742 -101.8248 C   0  0  0  0  0  0  0  0  0  0  0  0
   44.3076  -31.9097 -102.5174 O   0  0  0  0  0  0  0  0  0  0  0  0
   45.4893  -29.3662 -102.2666 C   0  0  0  0  0  0  0  0  0  0  0  0
   45.3077  -27.8607 -102.3982 C   0  0  0  0  0  0  0  0  0  0  0  0
   44.9643  -27.3187 -104.1163 S   0  0  2  0  0  0  0  0  0  0  0  0
   44.0643  -28.7236 -104.8484 C   0  0  0  0  0  0  0  0  0  0  0  0
   46.6032  -27.6750 -104.7455 C   0  0  0  0  0  0  0  0  0  0  0  0
   47.6068  -26.5864 -104.4726 C   0  0  1  0  0  0  0  0  0  0  0  0
   48.1700  -26.8217 -103.1709 O   0  0  0  0  0  0  0  0  0  0  0  0
   48.6739  -26.8762 -105.4498 C   0  0  1  0  0  0  0  0  0  0  0  0
   48.5090  -26.0475 -106.5993 O   0  0  0  0  0  0  0  0  0  0  0  0
   49.9105  -26.4776 -104.7054 C   0  0  1  0  0  0  0  0  0  0  0  0
   50.1792  -25.0728 -104.8944 O   0  0  0  0  0  0  0  0  0  0  0  0
   49.6183  -26.7623 -103.2015 C   0  0  2  0  0  0  0  0  0  0  0  0
   42.5519  -31.1814 -101.6088 O   0  0  0  0  0  0  0  0  0  0  0  0
   48.9116  -30.8854  -99.9306 N   0  0  0  0  0  0  0  0  0  0  0  0
   48.1229  -29.7910 -100.0650 C   0  0  0  0  0  0  0  0  0  0  0  0
   48.3941  -28.8273 -100.9699 N   0  0  0  0  0  0  0  0  0  0  0  0
   49.5125  -28.8795 -101.7115 C   0  0  0  0  0  0  0  0  0  0  0  0
   50.4026  -30.0068 -101.5716 C   0  0  0  0  0  0  0  0  0  0  0  0
   50.0492  -31.0303 -100.6427 C   0  0  0  0  0  0  0  0  0  0  0  0
   50.8499  -32.1404 -100.4660 N   0  0  0  0  0  0  0  0  0  0  0  0
   51.4282  -29.8111 -102.4087 N   0  0  0  0  0  0  0  0  0  0  0  0
   51.2557  -28.6831 -103.0310 C   0  0  0  0  0  0  0  0  0  0  0  0
   50.0875  -28.0662 -102.6485 N   0  0  0  0  0  0  0  0  0  0  0  0
  2  1  1  1  0  0  0
  2  3  1  0  0  0  0
  2  5  1  0  0  0  0
  3  4  1  0  0  0  0
  3 17  1  0  0  0  0
  5  6  1  0  0  0  0
  7  6  1  1  0  0  0
  7  8  1  0  0  0  0
  7  9  1  0  0  0  0
 10  9  1  6  0  0  0
 10 11  1  0  0  0  0
 10 12  1  0  0  0  0
 11 16  1  0  0  0  0
 12 13  1  6  0  0  0
 12 14  1  0  0  0  0
 14 15  1  1  0  0  0
 14 16  1  0  0  0  0
 16 27  1  6  0  0  0
 18 19  2  0  0  0  0
 18 23  1  0  0  0  0
 19 20  1  0  0  0  0
 20 21  2  0  0  0  0
 21 22  1  0  0  0  0
 21 27  1  0  0  0  0
 22 23  2  0  0  0  0
 22 25  1  0  0  0  0
 23 24  1  0  0  0  0
 25 26  2  0  0  0  0
 26 27  1  0  0  0  0
M  END
>  <CHROM.1>
-77.35897508,-112.52660104,-125.62785596,30.96204875,-82.38080510,86.66632631
-31.09287202,47.52188519,-28.72399138,-102.77207634,-2.54614194,-0.12668058
-0.76141321

>  <Name>
ligand

>  <RI>
0

>  <Rbt.Current_Directory>
/home/itssahil/PROJECTS/Mol_Feturizer/Test_systems_manuscript/rnas/4l81

>  <Rbt.Executable>
rbdock ($Id: //depot/dev/client3/rdock/2013.1/src/exe/rbdock.cxx#4 $)

>  <Rbt.Library>
libRbt.so (2013.1, Build901 2013/11/27)

>  <Rbt.Parameter_File>
/export/apps/rDock/src/rDock_2013.1_src/data/scripts/dock_solv.prm

>  <Rbt.Receptor>
prm/pocket_docking_2.prm

>  <SCORE>
-5.81319

>  <SCORE.INTER>
-10.7149

>  <SCORE.INTER.CONST>
1

>  <SCORE.INTER.POLAR>
0

>  <SCORE.INTER.ROT>
7

>  <SCORE.INTER.SOLV>
21.2494

>  <SCORE.INTER.VDW>
-22.4931

>  <SCORE.INTER.norm>
-0.396847

>  <SCORE.INTRA>
4.27173

>  <SCORE.INTRA.DIHEDRAL>
9.6712

>  <SCORE.INTRA.DIHEDRAL.0>
8.34559

>  <SCORE.INTRA.POLAR>
0

>  <SCORE.INTRA.POLAR.0>
0

>  <SCORE.INTRA.REPUL>
0

>  <SCORE.INTRA.REPUL.0>
0

>  <SCORE.INTRA.SOLV>
0.076019

>  <SCORE.INTRA.SOLV.lig_0>
-48.829

>  <SCORE.INTRA.VDW>
-0.601876

>  <SCORE.INTRA.VDW.0>
-1.77092

>  <SCORE.INTRA.norm>
0.158212

>  <SCORE.RESTR>
0.629945

>  <SCORE.RESTR.CAVITY>
0.629945

>  <SCORE.RESTR.norm>
0.0233313

>  <SCORE.SYSTEM>
0

>  <SCORE.SYSTEM.CONST>
0

>  <SCORE.SYSTEM.DIHEDRAL>
0

>  <SCORE.SYSTEM.SOLV>
0

>  <SCORE.SYSTEM.norm>
0

>  <SCORE.heavy>
27

>  <SCORE.norm>
-0.215303

>  <RMSD>
5.189

$$$$
ligand
 OpenBabel02271912153D
libRbt.so/2013.1/901 2013/11/27
 27 29  0  0  0  0  0  0  0  0999 V2000
   48.9515  -28.1129 -101.5608 N   0  0  0  0  0  0  0  0  0  0  0  0
   49.4229  -27.6199 -102.8598 C   0  0  2  0  0  0  0  0  0  0  0  0
   49.8077  -26.1605 -102.7369 C   0  0  0  0  0  0  0  0  0  0  0  0
   50.9663  -25.8138 -102.9104 O   0  0  0  0  0  0  0  0  0  0  0  0
   48.3386  -27.7578 -103.9370 C   0  0  0  0  0  0  0  0  0  0  0  0
   47.9942  -29.2214 -104.1742 C   0  0  0  0  0  0  0  0  0  0  0  0
   46.7143  -29.4659 -105.4647 S   0  0  2  0  0  0  0  0  0  0  0  0
   47.1486  -28.2495 -106.7498 C   0  0  0  0  0  0  0  0  0  0  0  0
   45.4333  -28.5402 -104.6216 C   0  0  0  0  0  0  0  0  0  0  0  0
   44.7550  -29.3100 -103.5197 C   0  0  1  0  0  0  0  0  0  0  0  0
   44.9868  -30.7097 -103.7520 O   0  0  0  0  0  0  0  0  0  0  0  0
   45.5502  -28.9448 -102.3315 C   0  0  1  0  0  0  0  0  0  0  0  0
   44.8942  -27.8969 -101.6195 O   0  0  0  0  0  0  0  0  0  0  0  0
   45.5232  -30.2059 -101.5247 C   0  0  1  0  0  0  0  0  0  0  0  0
   44.3546  -30.2359 -100.6793 O   0  0  0  0  0  0  0  0  0  0  0  0
   45.4613  -31.3742 -102.5539 C   0  0  2  0  0  0  0  0  0  0  0  0
   48.9610  -25.3175 -102.4973 O   0  0  0  0  0  0  0  0  0  0  0  0
   50.6798  -32.0047 -101.8003 N   0  0  0  0  0  0  0  0  0  0  0  0
   49.8423  -31.1713 -101.1354 C   0  0  0  0  0  0  0  0  0  0  0  0
   48.5190  -31.1372 -101.3975 N   0  0  0  0  0  0  0  0  0  0  0  0
   47.9995  -31.8709 -102.3952 C   0  0  0  0  0  0  0  0  0  0  0  0
   48.8620  -32.7419 -103.1567 C   0  0  0  0  0  0  0  0  0  0  0  0
   50.2450  -32.7883 -102.8097 C   0  0  0  0  0  0  0  0  0  0  0  0
   51.1238  -33.6066 -103.4900 N   0  0  0  0  0  0  0  0  0  0  0  0
   48.1042  -33.3457 -104.0796 N   0  0  0  0  0  0  0  0  0  0  0  0
   46.8799  -32.9254 -103.9615 C   0  0  0  0  0  0  0  0  0  0  0  0
   46.7516  -32.0196 -102.9344 N   0  0  0  0  0  0  0  0  0  0  0  0
  2  1  1  1  0  0  0
  2  3  1  0  0  0  0
  2  5  1  0  0  0  0
  3  4  1  0  0  0  0
  3 17  1  0  0  0  0
  5  6  1  0  0  0  0
  7  6  1  1  0  0  0
  7  8  1  0  0  0  0
  7  9  1  0  0  0  0
 10  9  1  6  0  0  0
 10 11  1  0  0  0  0
 10 12  1  0  0  0  0
 11 16  1  0  0  0  0
 12 13  1  1  0  0  0
 12 14  1  0  0  0  0
 14 15  1  1  0  0  0
 14 16  1  0  0  0  0
 16 27  1  6  0  0  0
 18 19  2  0  0  0  0
 18 23  1  0  0  0  0
 19 20  1  0  0  0  0
 20 21  2  0  0  0  0
 21 22  1  0  0  0  0
 21 27  1  0  0  0  0
 22 23  2  0  0  0  0
 22 25  1  0  0  0  0
 23 24  1  0  0  0  0
 25 26  2  0  0  0  0
 26 27  1  0  0  0  0
M  END
>  <CHROM.1>
116.06176857,-63.57234005,-179.39889083,40.14758641,-79.09725498,-20.14434247
122.89432542,47.62574877,-29.83447330,-103.10835540,-1.60018088,0.10575781
3.08933067

>  <Name>
ligand

>  <RI>
0

>  <Rbt.Current_Directory>
/home/itssahil/PROJECTS/Mol_Feturizer/Test_systems_manuscript/rnas/4l81

>  <Rbt.Executable>
rbdock ($Id: //depot/dev/client3/rdock/2013.1/src/exe/rbdock.cxx#4 $)

>  <Rbt.Library>
libRbt.so (2013.1, Build901 2013/11/27)

>  <Rbt.Parameter_File>
/export/apps/rDock/src/rDock_2013.1_src/data/scripts/dock_solv.prm

>  <Rbt.Receptor>
prm/pocket_docking_5.prm

>  <SCORE>
-9.73472

>  <SCORE.INTER>
-9.3781

>  <SCORE.INTER.CONST>
1

>  <SCORE.INTER.POLAR>
0

>  <SCORE.INTER.ROT>
7

>  <SCORE.INTER.SOLV>
13.1083

>  <SCORE.INTER.VDW>
-18.8882

>  <SCORE.INTER.norm>
-0.347337

>  <SCORE.INTRA>
-0.35663

>  <SCORE.INTRA.DIHEDRAL>
-0.545538

>  <SCORE.INTRA.DIHEDRAL.0>
8.34559

>  <SCORE.INTRA.POLAR>
0

>  <SCORE.INTRA.POLAR.0>
0

>  <SCORE.INTRA.REPUL>
0

>  <SCORE.INTRA.REPUL.0>
0

>  <SCORE.INTRA.SOLV>
2.03138

>  <SCORE.INTRA.SOLV.lig_0>
-48.829

>  <SCORE.INTRA.VDW>
-1.09955

>  <SCORE.INTRA.VDW.0>
-1.77092

>  <SCORE.INTRA.norm>
-0.0132085

>  <SCORE.RESTR>
0

>  <SCORE.RESTR.CAVITY>
0

>  <SCORE.RESTR.norm>
0

>  <SCORE.SYSTEM>
0

>  <SCORE.SYSTEM.CONST>
0

>  <SCORE.SYSTEM.DIHEDRAL>
0

>  <SCORE.SYSTEM.SOLV>
0

>  <SCORE.SYSTEM.norm>
0

>  <SCORE.heavy>
27

>  <SCORE.norm>
-0.360545

>  <RMSD>
5.189

$$$$
ligand
 OpenBabel02271912153D
libRbt.so/2013.1/901 2013/11/27
 27 29  0  0  0  0  0  0  0  0999 V2000
   48.0330  -27.2800 -109.9500 N   0  0  0  0  0  0  0  0  0  0  0  0
   47.5903  -26.5915 -108.7323 C   0  0  2  0  0  0  0  0  0  0  0  0
   47.8923  -25.1124 -108.8500 C   0  0  0  0  0  0  0  0  0  0  0  0
   47.0473  -24.2862 -108.5401 O   0  0  0  0  0  0  0  0  0  0  0  0
   48.2987  -27.1449 -107.4884 C   0  0  0  0  0  0  0  0  0  0  0  0
   47.6845  -26.5754 -106.2174 C   0  0  0  0  0  0  0  0  0  0  0  0
   48.7243  -26.8357 -104.7293 S   0  0  2  0  0  0  0  0  0  0  0  0
   50.4204  -26.5283 -105.3195 C   0  0  0  0  0  0  0  0  0  0  0  0
   48.7150  -28.6248 -104.8171 C   0  0  0  0  0  0  0  0  0  0  0  0
   47.8639  -29.2788 -103.7612 C   0  0  1  0  0  0  0  0  0  0  0  0
   47.5605  -30.6128 -104.2029 O   0  0  0  0  0  0  0  0  0  0  0  0
   48.7997  -29.4147 -102.6283 C   0  0  1  0  0  0  0  0  0  0  0  0
   48.6065  -28.3357 -101.7152 O   0  0  0  0  0  0  0  0  0  0  0  0
   48.3611  -30.7010 -101.9997 C   0  0  1  0  0  0  0  0  0  0  0  0
   47.3078  -30.4591 -101.0440 O   0  0  0  0  0  0  0  0  0  0  0  0
   47.8255  -31.5882 -103.1634 C   0  0  2  0  0  0  0  0  0  0  0  0
   48.9894  -24.7347 -109.2222 O   0  0  0  0  0  0  0  0  0  0  0  0
   49.0260  -35.0478 -107.0090 N   0  0  0  0  0  0  0  0  0  0  0  0
   47.8830  -34.3328 -106.8662 C   0  0  0  0  0  0  0  0  0  0  0  0
   47.7193  -33.4495 -105.8592 N   0  0  0  0  0  0  0  0  0  0  0  0
   48.6574  -33.3143 -104.9077 C   0  0  0  0  0  0  0  0  0  0  0  0
   49.8732  -34.0864 -104.9976 C   0  0  0  0  0  0  0  0  0  0  0  0
   50.0286  -34.9676 -106.1088 C   0  0  0  0  0  0  0  0  0  0  0  0
   51.1700  -35.7281 -106.2617 N   0  0  0  0  0  0  0  0  0  0  0  0
   50.6251  -33.7709 -103.9365 N   0  0  0  0  0  0  0  0  0  0  0  0
   49.9889  -32.8985 -103.2129 C   0  0  0  0  0  0  0  0  0  0  0  0
   48.7723  -32.5721 -103.7650 N   0  0  0  0  0  0  0  0  0  0  0  0
  2  1  1  6  0  0  0
  2  3  1  0  0  0  0
  2  5  1  0  0  0  0
  3  4  1  0  0  0  0
  3 17  1  0  0  0  0
  5  6  1  0  0  0  0
  7  6  1  6  0  0  0
  7  8  1  0  0  0  0
  7  9  1  0  0  0  0
 10  9  1  6  0  0  0
 10 11  1  0  0  0  0
 10 12  1  0  0  0  0
 11 16  1  0  0  0  0
 12 13  1  1  0  0  0
 12 14  1  0  0  0  0
 14 15  1  1  0  0  0
 14 16  1  0  0  0  0
 16 27  1  6  0  0  0
 18 19  2  0  0  0  0
 18 23  1  0  0  0  0
 19 20  1  0  0  0  0
 20 21  2  0  0  0  0
 21 22  1  0  0  0  0
 21 27  1  0  0  0  0
 22 23  2  0  0  0  0
 22 25  1  0  0  0  0
 23 24  1  0  0  0  0
 25 26  2  0  0  0  0
 26 27  1  0  0  0  0
M  END
>  <CHROM.1>
134.26328094,-171.45086235,-165.18638960,40.44024782,-107.26416530,160.14101730
-55.06686280,48.63058122,-29.86926633,-105.34352684,-2.53258940,-1.41739418
1.82964497

>  <Name>
ligand

>  <RI>
0

>  <Rbt.Current_Directory>
/home/itssahil/PROJECTS/Mol_Feturizer/Test_systems_manuscript/rnas/4l81

>  <Rbt.Executable>
rbdock ($Id: //depot/dev/client3/rdock/2013.1/src/exe/rbdock.cxx#4 $)

>  <Rbt.Library>
libRbt.so (2013.1, Build901 2013/11/27)

>  <Rbt.Parameter_File>
/export/apps/rDock/src/rDock_2013.1_src/data/scripts/dock_solv.prm

>  <Rbt.Receptor>
prm/pocket_docking_7.prm

>  <SCORE>
-4.01486

>  <SCORE.INTER>
-4.31393

>  <SCORE.INTER.CONST>
1

>  <SCORE.INTER.POLAR>
0

>  <SCORE.INTER.ROT>
7

>  <SCORE.INTER.SOLV>
9.68125

>  <SCORE.INTER.VDW>
-14.3697

>  <SCORE.INTER.norm>
-0.159775

>  <SCORE.INTRA>
0.299069

>  <SCORE.INTRA.DIHEDRAL>
0.734326

>  <SCORE.INTRA.DIHEDRAL.0>
8.34559

>  <SCORE.INTRA.POLAR>
0

>  <SCORE.INTRA.POLAR.0>
0

>  <SCORE.INTRA.REPUL>
0

>  <SCORE.INTRA.REPUL.0>
0

>  <SCORE.INTRA.SOLV>
-1.19657

>  <SCORE.INTRA.SOLV.lig_0>
-48.829

>  <SCORE.INTRA.VDW>
0.530193

>  <SCORE.INTRA.VDW.0>
-1.77092

>  <SCORE.INTRA.norm>
0.0110766

>  <SCORE.RESTR>
0

>  <SCORE.RESTR.CAVITY>
0

>  <SCORE.RESTR.norm>
0

>  <SCORE.SYSTEM>
0

>  <SCORE.SYSTEM.CONST>
0

>  <SCORE.SYSTEM.DIHEDRAL>
0

>  <SCORE.SYSTEM.SOLV>
0

>  <SCORE.SYSTEM.norm>
0

>  <SCORE.heavy>
27

>  <SCORE.norm>
-0.148698

>  <RMSD>
5.189

$$$$
ligand
 OpenBabel02271912153D
libRbt.so/2013.1/901 2013/11/27
 27 29  0  0  0  0  0  0  0  0999 V2000
   49.0113  -23.9105 -103.0022 N   0  0  0  0  0  0  0  0  0  0  0  0
   49.9769  -24.9582 -103.3525 C   0  0  2  0  0  0  0  0  0  0  0  0
   50.1373  -25.0150 -104.8571 C   0  0  0  0  0  0  0  0  0  0  0  0
   49.3117  -24.4827 -105.5836 O   0  0  0  0  0  0  0  0  0  0  0  0
   49.5161  -26.3334 -102.8506 C   0  0  0  0  0  0  0  0  0  0  0  0
   48.0327  -26.5397 -103.1227 C   0  0  0  0  0  0  0  0  0  0  0  0
   47.4797  -28.2679 -102.8566 S   0  0  2  0  0  0  0  0  0  0  0  0
   47.8875  -29.1055 -104.4223 C   0  0  0  0  0  0  0  0  0  0  0  0
   45.7427  -27.9460 -103.1530 C   0  0  0  0  0  0  0  0  0  0  0  0
   44.8550  -29.1365 -102.9052 C   0  0  1  0  0  0  0  0  0  0  0  0
   45.3978  -30.2509 -103.6334 O   0  0  0  0  0  0  0  0  0  0  0  0
   45.0828  -29.4192 -101.4748 C   0  0  1  0  0  0  0  0  0  0  0  0
   44.0385  -28.8341 -100.6986 O   0  0  0  0  0  0  0  0  0  0  0  0
   44.9845  -30.9124 -101.4211 C   0  0  1  0  0  0  0  0  0  0  0  0
   43.6124  -31.3188 -101.2380 O   0  0  0  0  0  0  0  0  0  0  0  0
   45.5099  -31.4281 -102.7945 C   0  0  2  0  0  0  0  0  0  0  0  0
   51.1062  -25.5621 -105.3538 O   0  0  0  0  0  0  0  0  0  0  0  0
   50.4718  -31.1515 -100.9234 N   0  0  0  0  0  0  0  0  0  0  0  0
   49.3822  -30.4758 -100.4827 C   0  0  0  0  0  0  0  0  0  0  0  0
   48.1605  -30.6697 -101.0220 N   0  0  0  0  0  0  0  0  0  0  0  0
   48.0002  -31.4805 -102.0805 C   0  0  0  0  0  0  0  0  0  0  0  0
   49.1410  -32.1888 -102.6089 C   0  0  0  0  0  0  0  0  0  0  0  0
   50.4039  -31.9969 -101.9735 C   0  0  0  0  0  0  0  0  0  0  0  0
   51.5340  -32.6506 -102.4211 N   0  0  0  0  0  0  0  0  0  0  0  0
   48.7135  -32.9128 -103.6500 N   0  0  0  0  0  0  0  0  0  0  0  0
   47.4398  -32.7097 -103.8107 C   0  0  0  0  0  0  0  0  0  0  0  0
   46.9418  -31.8411 -102.8677 N   0  0  0  0  0  0  0  0  0  0  0  0
  2  1  1  6  0  0  0
  2  3  1  0  0  0  0
  2  5  1  0  0  0  0
  3  4  1  0  0  0  0
  3 17  1  0  0  0  0
  5  6  1  0  0  0  0
  7  6  1  6  0  0  0
  7  8  1  0  0  0  0
  7  9  1  0  0  0  0
 10  9  1  6  0  0  0
 10 11  1  0  0  0  0
 10 12  1  0  0  0  0
 11 16  1  0  0  0  0
 12 13  1  1  0  0  0
 12 14  1  0  0  0  0
 14 15  1  6  0  0  0
 14 16  1  0  0  0  0
 16 27  1  1  0  0  0
 18 19  2  0  0  0  0
 18 23  1  0  0  0  0
 19 20  1  0  0  0  0
 20 21  2  0  0  0  0
 21 22  1  0  0  0  0
 21 27  1  0  0  0  0
 22 23  2  0  0  0  0
 22 25  1  0  0  0  0
 23 24  1  0  0  0  0
 25 26  2  0  0  0  0
 26 27  1  0  0  0  0
M  END
>  <CHROM.1>
-16.38451616,43.50314702,168.68680530,-83.71983919,-174.63814540,-51.26692837
90.40746331,47.78513884,-29.19518585,-102.79266328,1.14587061,0.17343101
-0.24714955

>  <Name>
ligand

>  <RI>
0

>  <Rbt.Current_Directory>
/home/itssahil/PROJECTS/Mol_Feturizer/Test_systems_manuscript/rnas/4l81

>  <Rbt.Executable>
rbdock ($Id: //depot/dev/client3/rdock/2013.1/src/exe/rbdock.cxx#4 $)

>  <Rbt.Library>
libRbt.so (2013.1, Build901 2013/11/27)

>  <Rbt.Parameter_File>
/export/apps/rDock/src/rDock_2013.1_src/data/scripts/dock_solv.prm

>  <Rbt.Receptor>
prm/pocket_docking_3.prm

>  <SCORE>
-13.1962

>  <SCORE.INTER>
-10.7895

>  <SCORE.INTER.CONST>
1

>  <SCORE.INTER.POLAR>
0

>  <SCORE.INTER.ROT>
7

>  <SCORE.INTER.SOLV>
13.7917

>  <SCORE.INTER.VDW>
-20.0569

>  <SCORE.INTER.norm>
-0.399611

>  <SCORE.INTRA>
-2.40666

>  <SCORE.INTRA.DIHEDRAL>
-2.21657

>  <SCORE.INTRA.DIHEDRAL.0>
8.34559

>  <SCORE.INTRA.POLAR>
0

>  <SCORE.INTRA.POLAR.0>
0

>  <SCORE.INTRA.REPUL>
0

>  <SCORE.INTRA.REPUL.0>
0

>  <SCORE.INTRA.SOLV>
-0.0958243

>  <SCORE.INTRA.SOLV.lig_0>
-48.829

>  <SCORE.INTRA.VDW>
-1.25047

>  <SCORE.INTRA.VDW.0>
-1.77092

>  <SCORE.INTRA.norm>
-0.0891357

>  <SCORE.RESTR>
0

>  <SCORE.RESTR.CAVITY>
0

>  <SCORE.RESTR.norm>
0

>  <SCORE.SYSTEM>
0

>  <SCORE.SYSTEM.CONST>
0

>  <SCORE.SYSTEM.DIHEDRAL>
0

>  <SCORE.SYSTEM.SOLV>
0

>  <SCORE.SYSTEM.norm>
0

>  <SCORE.heavy>
27

>  <SCORE.norm>
-0.488746

>  <RMSD>
5.205

$$$$
ligand
 OpenBabel02271912153D
libRbt.so/2013.1/901 2013/11/27
 27 29  0  0  0  0  0  0  0  0999 V2000
   47.9228  -29.4282 -107.1537 N   0  0  0  0  0  0  0  0  0  0  0  0
   48.0576  -27.9675 -107.1241 C   0  0  2  0  0  0  0  0  0  0  0  0
   49.2680  -27.5885 -106.2970 C   0  0  0  0  0  0  0  0  0  0  0  0
   49.9131  -26.5887 -106.5743 O   0  0  0  0  0  0  0  0  0  0  0  0
   46.8143  -27.3036 -106.5168 C   0  0  0  0  0  0  0  0  0  0  0  0
   46.5052  -27.8860 -105.1449 C   0  0  0  0  0  0  0  0  0  0  0  0
   45.3912  -26.8292 -104.1422 S   0  0  2  0  0  0  0  0  0  0  0  0
   46.4525  -25.4430 -103.6210 C   0  0  0  0  0  0  0  0  0  0  0  0
   45.4852  -27.8294 -102.6592 C   0  0  0  0  0  0  0  0  0  0  0  0
   44.4533  -28.9242 -102.6004 C   0  0  1  0  0  0  0  0  0  0  0  0
   44.7827  -29.8956 -103.6078 O   0  0  0  0  0  0  0  0  0  0  0  0
   44.7291  -29.5608 -101.2979 C   0  0  1  0  0  0  0  0  0  0  0  0
   43.8316  -29.0483 -100.3145 O   0  0  0  0  0  0  0  0  0  0  0  0
   44.4210  -31.0005 -101.5704 C   0  0  1  0  0  0  0  0  0  0  0  0
   43.0194  -31.2637 -101.3528 O   0  0  0  0  0  0  0  0  0  0  0  0
   44.7779  -31.2412 -103.0680 C   0  0  2  0  0  0  0  0  0  0  0  0
   49.5883  -28.2575 -105.3301 O   0  0  0  0  0  0  0  0  0  0  0  0
   49.9166  -31.7539 -101.8315 N   0  0  0  0  0  0  0  0  0  0  0  0
   48.9794  -31.0176 -101.1854 C   0  0  0  0  0  0  0  0  0  0  0  0
   47.6891  -31.0061 -101.5806 N   0  0  0  0  0  0  0  0  0  0  0  0
   47.3068  -31.6599 -102.6896 C   0  0  0  0  0  0  0  0  0  0  0  0
   48.2805  -32.4235 -103.4322 C   0  0  0  0  0  0  0  0  0  0  0  0
   49.6220  -32.4533 -102.9477 C   0  0  0  0  0  0  0  0  0  0  0  0
   50.6012  -33.1715 -103.6035 N   0  0  0  0  0  0  0  0  0  0  0  0
   47.6480  -32.9638 -104.4805 N   0  0  0  0  0  0  0  0  0  0  0  0
   46.4003  -32.6004 -104.4538 C   0  0  0  0  0  0  0  0  0  0  0  0
   46.1279  -31.8013 -103.3680 N   0  0  0  0  0  0  0  0  0  0  0  0
  2  1  1  1  0  0  0
  2  3  1  0  0  0  0
  2  5  1  0  0  0  0
  3  4  1  0  0  0  0
  3 17  1  0  0  0  0
  5  6  1  0  0  0  0
  7  6  1  6  0  0  0
  7  8  1  0  0  0  0
  7  9  1  0  0  0  0
 10  9  1  6  0  0  0
 10 11  1  0  0  0  0
 10 12  1  0  0  0  0
 11 16  1  0  0  0  0
 12 13  1  1  0  0  0
 12 14  1  0  0  0  0
 14 15  1  6  0  0  0
 14 16  1  0  0  0  0
 16 27  1  1  0  0  0
 18 19  2  0  0  0  0
 18 23  1  0  0  0  0
 19 20  1  0  0  0  0
 20 21  2  0  0  0  0
 21 22  1  0  0  0  0
 21 27  1  0  0  0  0
 22 23  2  0  0  0  0
 22 25  1  0  0  0  0
 23 24  1  0  0  0  0
 25 26  2  0  0  0  0
 26 27  1  0  0  0  0
M  END
>  <CHROM.1>
147.97971649,54.05868601,162.14604836,-73.91818667,-88.66538759,68.85128339
83.18431351,46.84939215,-29.66850059,-103.65692663,-1.09434506,-0.53002260
2.59943678

>  <Name>
ligand

>  <RI>
0

>  <Rbt.Current_Directory>
/home/itssahil/PROJECTS/Mol_Feturizer/Test_systems_manuscript/rnas/4l81

>  <Rbt.Executable>
rbdock ($Id: //depot/dev/client3/rdock/2013.1/src/exe/rbdock.cxx#4 $)

>  <Rbt.Library>
libRbt.so (2013.1, Build901 2013/11/27)

>  <Rbt.Parameter_File>
/export/apps/rDock/src/rDock_2013.1_src/data/scripts/dock_solv.prm

>  <Rbt.Receptor>
prm/pocket_docking_7.prm

>  <SCORE>
-14.9281

>  <SCORE.INTER>
-12.1945

>  <SCORE.INTER.CONST>
1

>  <SCORE.INTER.POLAR>
0

>  <SCORE.INTER.ROT>
7

>  <SCORE.INTER.SOLV>
13.4645

>  <SCORE.INTER.VDW>
-20.8845

>  <SCORE.INTER.norm>
-0.451649

>  <SCORE.INTRA>
-2.73356

>  <SCORE.INTRA.DIHEDRAL>
-2.31242

>  <SCORE.INTRA.DIHEDRAL.0>
8.34559

>  <SCORE.INTRA.POLAR>
0

>  <SCORE.INTRA.POLAR.0>
0

>  <SCORE.INTRA.REPUL>
0

>  <SCORE.INTRA.REPUL.0>
0

>  <SCORE.INTRA.SOLV>
-0.502241

>  <SCORE.INTRA.SOLV.lig_0>
-48.829

>  <SCORE.INTRA.VDW>
-1.32623

>  <SCORE.INTRA.VDW.0>
-1.77092

>  <SCORE.INTRA.norm>
-0.101243

>  <SCORE.RESTR>
0

>  <SCORE.RESTR.CAVITY>
0

>  <SCORE.RESTR.norm>
0

>  <SCORE.SYSTEM>
0

>  <SCORE.SYSTEM.CONST>
0

>  <SCORE.SYSTEM.DIHEDRAL>
0

>  <SCORE.SYSTEM.SOLV>
0

>  <SCORE.SYSTEM.norm>
0

>  <SCORE.heavy>
27

>  <SCORE.norm>
-0.552892

>  <RMSD>
5.207

$$$$
ligand
 OpenBabel02271912153D
libRbt.so/2013.1/901 2013/11/27
 27 29  0  0  0  0  0  0  0  0999 V2000
   48.9576  -25.7970 -103.2669 N   0  0  0  0  0  0  0  0  0  0  0  0
   49.8468  -26.9589 -103.1574 C   0  0  2  0  0  0  0  0  0  0  0  0
   50.1573  -27.4898 -104.5410 C   0  0  0  0  0  0  0  0  0  0  0  0
   50.4242  -26.7179 -105.4497 O   0  0  0  0  0  0  0  0  0  0  0  0
   49.2031  -28.0793 -102.3293 C   0  0  0  0  0  0  0  0  0  0  0  0
   50.2263  -29.1508 -101.9803 C   0  0  0  0  0  0  0  0  0  0  0  0
   49.5543  -30.4713 -100.8996 S   0  0  2  0  0  0  0  0  0  0  0  0
   51.0066  -31.4993 -100.5074 C   0  0  0  0  0  0  0  0  0  0  0  0
   48.8639  -31.4540 -102.2286 C   0  0  0  0  0  0  0  0  0  0  0  0
   47.3638  -31.5730 -102.1780 C   0  0  1  0  0  0  0  0  0  0  0  0
   46.8114  -30.2537 -102.3234 O   0  0  0  0  0  0  0  0  0  0  0  0
   47.0533  -32.2976 -103.4255 C   0  0  1  0  0  0  0  0  0  0  0  0
   46.8911  -33.6870 -103.1449 O   0  0  0  0  0  0  0  0  0  0  0  0
   45.7403  -31.7005 -103.8274 C   0  0  1  0  0  0  0  0  0  0  0  0
   44.6529  -32.4086 -103.1970 O   0  0  0  0  0  0  0  0  0  0  0  0
   45.7685  -30.2240 -103.3302 C   0  0  2  0  0  0  0  0  0  0  0  0
   50.1761  -28.6899 -104.7513 O   0  0  0  0  0  0  0  0  0  0  0  0
   44.7744  -25.6913 -105.9117 N   0  0  0  0  0  0  0  0  0  0  0  0
   43.9697  -26.3361 -105.0317 C   0  0  0  0  0  0  0  0  0  0  0  0
   44.3615  -27.4671 -104.4084 N   0  0  0  0  0  0  0  0  0  0  0  0
   45.5368  -28.0428 -104.7096 C   0  0  0  0  0  0  0  0  0  0  0  0
   46.4079  -27.4123 -105.6720 C   0  0  0  0  0  0  0  0  0  0  0  0
   45.9784  -26.1884 -106.2659 C   0  0  0  0  0  0  0  0  0  0  0  0
   46.7662  -25.5274 -107.1863 N   0  0  0  0  0  0  0  0  0  0  0  0
   47.4953  -28.1833 -105.7905 N   0  0  0  0  0  0  0  0  0  0  0  0
   47.3686  -29.2146 -105.0096 C   0  0  0  0  0  0  0  0  0  0  0  0
   46.1842  -29.1796 -104.3113 N   0  0  0  0  0  0  0  0  0  0  0  0
  2  1  1  6  0  0  0
  2  3  1  0  0  0  0
  2  5  1  0  0  0  0
  3  4  1  0  0  0  0
  3 17  1  0  0  0  0
  5  6  1  0  0  0  0
  7  6  1  6  0  0  0
  7  8  1  0  0  0  0
  7  9  1  0  0  0  0
 10  9  1  6  0  0  0
 10 11  1  0  0  0  0
 10 12  1  0  0  0  0
 11 16  1  0  0  0  0
 12 13  1  1  0  0  0
 12 14  1  0  0  0  0
 14 15  1  1  0  0  0
 14 16  1  0  0  0  0
 16 27  1  6  0  0  0
 18 19  2  0  0  0  0
 18 23  1  0  0  0  0
 19 20  1  0  0  0  0
 20 21  2  0  0  0  0
 21 22  1  0  0  0  0
 21 27  1  0  0  0  0
 22 23  2  0  0  0  0
 22 25  1  0  0  0  0
 23 24  1  0  0  0  0
 25 26  2  0  0  0  0
 26 27  1  0  0  0  0
M  END
>  <CHROM.1>
43.47424008,-168.33910863,176.32959142,-174.33918200,-116.18237142,62.39250395
-121.52986662,47.61044994,-29.09041689,-103.70115238,-1.94347307,0.36481872
2.63527390

>  <Name>
ligand

>  <RI>
0

>  <Rbt.Current_Directory>
/home/itssahil/PROJECTS/Mol_Feturizer/Test_systems_manuscript/rnas/4l81

>  <Rbt.Executable>
rbdock ($Id: //depot/dev/client3/rdock/2013.1/src/exe/rbdock.cxx#4 $)

>  <Rbt.Library>
libRbt.so (2013.1, Build901 2013/11/27)

>  <Rbt.Parameter_File>
/export/apps/rDock/src/rDock_2013.1_src/data/scripts/dock_solv.prm

>  <Rbt.Receptor>
prm/pocket_docking_5.prm

>  <SCORE>
-13.5494

>  <SCORE.INTER>
-11.435

>  <SCORE.INTER.CONST>
1

>  <SCORE.INTER.POLAR>
0

>  <SCORE.INTER.ROT>
7

>  <SCORE.INTER.SOLV>
11.1692

>  <SCORE.INTER.VDW>
-19.6131

>  <SCORE.INTER.norm>
-0.423519

>  <SCORE.INTRA>
-2.11435

>  <SCORE.INTRA.DIHEDRAL>
0.168178

>  <SCORE.INTRA.DIHEDRAL.0>
8.34559

>  <SCORE.INTRA.POLAR>
0

>  <SCORE.INTRA.POLAR.0>
0

>  <SCORE.INTRA.REPUL>
0

>  <SCORE.INTRA.REPUL.0>
0

>  <SCORE.INTRA.SOLV>
-0.971726

>  <SCORE.INTRA.SOLV.lig_0>
-48.829

>  <SCORE.INTRA.VDW>
-1.71258

>  <SCORE.INTRA.VDW.0>
-1.77092

>  <SCORE.INTRA.norm>
-0.0783092

>  <SCORE.RESTR>
0

>  <SCORE.RESTR.CAVITY>
0

>  <SCORE.RESTR.norm>
0

>  <SCORE.SYSTEM>
0

>  <SCORE.SYSTEM.CONST>
0

>  <SCORE.SYSTEM.DIHEDRAL>
0

>  <SCORE.SYSTEM.SOLV>
0

>  <SCORE.SYSTEM.norm>
0

>  <SCORE.heavy>
27

>  <SCORE.norm>
-0.501828

>  <RMSD>
5.208

$$$$
ligand
 OpenBabel02271912153D
libRbt.so/2013.1/901 2013/11/27
 27 29  0  0  0  0  0  0  0  0999 V2000
   47.5283  -24.9354 -107.8551 N   0  0  0  0  0  0  0  0  0  0  0  0
   46.3142  -24.3063 -107.3233 C   0  0  2  0  0  0  0  0  0  0  0  0
   46.1650  -22.9189 -107.9111 C   0  0  0  0  0  0  0  0  0  0  0  0
   45.0681  -22.3820 -107.9483 O   0  0  0  0  0  0  0  0  0  0  0  0
   46.3670  -24.1938 -105.7936 C   0  0  0  0  0  0  0  0  0  0  0  0
   46.2833  -25.5690 -105.1465 C   0  0  0  0  0  0  0  0  0  0  0  0
   46.3791  -25.5164 -103.3158 S   0  0  2  0  0  0  0  0  0  0  0  0
   48.1198  -25.0969 -102.9790 C   0  0  0  0  0  0  0  0  0  0  0  0
   46.4683  -27.2914 -103.0918 C   0  0  0  0  0  0  0  0  0  0  0  0
   45.1220  -27.9619 -103.0233 C   0  0  1  0  0  0  0  0  0  0  0  0
   44.8849  -28.6057 -104.2867 O   0  0  0  0  0  0  0  0  0  0  0  0
   45.3453  -29.0386 -102.0392 C   0  0  1  0  0  0  0  0  0  0  0  0
   44.8867  -28.6173 -100.7556 O   0  0  0  0  0  0  0  0  0  0  0  0
   44.4710  -30.1376 -102.5590 C   0  0  1  0  0  0  0  0  0  0  0  0
   43.1317  -30.0011 -102.0405 O   0  0  0  0  0  0  0  0  0  0  0  0
   44.4565  -29.9794 -104.1091 C   0  0  2  0  0  0  0  0  0  0  0  0
   47.1406  -22.3144 -108.3206 O   0  0  0  0  0  0  0  0  0  0  0  0
   48.4750  -33.4481 -104.2434 N   0  0  0  0  0  0  0  0  0  0  0  0
   47.8917  -32.8993 -103.1496 C   0  0  0  0  0  0  0  0  0  0  0  0
   46.8429  -32.0564 -103.2520 N   0  0  0  0  0  0  0  0  0  0  0  0
   46.3962  -31.6622 -104.4556 C   0  0  0  0  0  0  0  0  0  0  0  0
   47.0149  -32.1899 -105.6478 C   0  0  0  0  0  0  0  0  0  0  0  0
   48.0846  -33.1210 -105.4934 C   0  0  0  0  0  0  0  0  0  0  0  0
   48.7144  -33.6720 -106.5909 N   0  0  0  0  0  0  0  0  0  0  0  0
   46.3930  -31.6388 -106.6968 N   0  0  0  0  0  0  0  0  0  0  0  0
   45.4724  -30.8295 -106.2644 C   0  0  0  0  0  0  0  0  0  0  0  0
   45.4214  -30.8073 -104.8901 N   0  0  0  0  0  0  0  0  0  0  0  0
  2  1  1  6  0  0  0
  2  3  1  0  0  0  0
  2  5  1  0  0  0  0
  3  4  1  0  0  0  0
  3 17  1  0  0  0  0
  5  6  1  0  0  0  0
  7  6  1  6  0  0  0
  7  8  1  0  0  0  0
  7  9  1  0  0  0  0
 10  9  1  6  0  0  0
 10 11  1  0  0  0  0
 10 12  1  0  0  0  0
 11 16  1  0  0  0  0
 12 13  1  1  0  0  0
 12 14  1  0  0  0  0
 14 15  1  1  0  0  0
 14 16  1  0  0  0  0
 16 27  1  6  0  0  0
 18 19  2  0  0  0  0
 18 23  1  0  0  0  0
 19 20  1  0  0  0  0
 20 21  2  0  0  0  0
 21 22  1  0  0  0  0
 21 27  1  0  0  0  0
 22 23  2  0  0  0  0
 22 25  1  0  0  0  0
 23 24  1  0  0  0  0
 25 26  2  0  0  0  0
 26 27  1  0  0  0  0
M  END
>  <CHROM.1>
157.44843906,-68.62457126,178.68882867,-71.87214481,-86.60984305,103.41734806
109.55162792,46.22875522,-28.29746668,-104.69970347,-1.64261516,-1.13556505
2.80214144

>  <Name>
ligand

>  <RI>
0

>  <Rbt.Current_Directory>
/home/itssahil/PROJECTS/Mol_Feturizer/Test_systems_manuscript/rnas/4l81

>  <Rbt.Executable>
rbdock ($Id: //depot/dev/client3/rdock/2013.1/src/exe/rbdock.cxx#4 $)

>  <Rbt.Library>
libRbt.so (2013.1, Build901 2013/11/27)

>  <Rbt.Parameter_File>
/export/apps/rDock/src/rDock_2013.1_src/data/scripts/dock_solv.prm

>  <Rbt.Receptor>
prm/pocket_docking_7.prm

>  <SCORE>
-10.7713

>  <SCORE.INTER>
-9.62552

>  <SCORE.INTER.CONST>
1

>  <SCORE.INTER.POLAR>
0

>  <SCORE.INTER.ROT>
7

>  <SCORE.INTER.SOLV>
9.51354

>  <SCORE.INTER.VDW>
-17.8549

>  <SCORE.INTER.norm>
-0.356501

>  <SCORE.INTRA>
-1.14581

>  <SCORE.INTRA.DIHEDRAL>
0.341903

>  <SCORE.INTRA.DIHEDRAL.0>
8.34559

>  <SCORE.INTRA.POLAR>
0

>  <SCORE.INTRA.POLAR.0>
0

>  <SCORE.INTRA.REPUL>
0

>  <SCORE.INTRA.REPUL.0>
0

>  <SCORE.INTRA.SOLV>
-0.694138

>  <SCORE.INTRA.SOLV.lig_0>
-48.829

>  <SCORE.INTRA.VDW>
-0.969691

>  <SCORE.INTRA.VDW.0>
-1.77092

>  <SCORE.INTRA.norm>
-0.0424373

>  <SCORE.RESTR>
0

>  <SCORE.RESTR.CAVITY>
0

>  <SCORE.RESTR.norm>
0

>  <SCORE.SYSTEM>
0

>  <SCORE.SYSTEM.CONST>
0

>  <SCORE.SYSTEM.DIHEDRAL>
0

>  <SCORE.SYSTEM.SOLV>
0

>  <SCORE.SYSTEM.norm>
0

>  <SCORE.heavy>
27

>  <SCORE.norm>
-0.398938

>  <RMSD>
5.214

$$$$
ligand
 OpenBabel02271912153D
libRbt.so/2013.1/901 2013/11/27
 27 29  0  0  0  0  0  0  0  0999 V2000
   48.0717  -24.3650 -108.0622 N   0  0  0  0  0  0  0  0  0  0  0  0
   47.5510  -25.6391 -107.5541 C   0  0  2  0  0  0  0  0  0  0  0  0
   47.3458  -26.5974 -108.7085 C   0  0  0  0  0  0  0  0  0  0  0  0
   47.6892  -27.7654 -108.6059 O   0  0  0  0  0  0  0  0  0  0  0  0
   46.2137  -25.4460 -106.8262 C   0  0  0  0  0  0  0  0  0  0  0  0
   45.7708  -26.7387 -106.1558 C   0  0  0  0  0  0  0  0  0  0  0  0
   46.9266  -27.3135 -104.8530 S   0  0  2  0  0  0  0  0  0  0  0  0
   46.0031  -28.6298 -103.9963 C   0  0  0  0  0  0  0  0  0  0  0  0
   46.6055  -25.9619 -103.7221 C   0  0  0  0  0  0  0  0  0  0  0  0
   47.8041  -25.5571 -102.9059 C   0  0  1  0  0  0  0  0  0  0  0  0
   48.2808  -26.7234 -102.2136 O   0  0  0  0  0  0  0  0  0  0  0  0
   48.8095  -25.2427 -103.9394 C   0  0  1  0  0  0  0  0  0  0  0  0
   48.8404  -23.8344 -104.1651 O   0  0  0  0  0  0  0  0  0  0  0  0
   50.0859  -25.6850 -103.2934 C   0  0  1  0  0  0  0  0  0  0  0  0
   50.6390  -24.6195 -102.4934 O   0  0  0  0  0  0  0  0  0  0  0  0
   49.7111  -26.8913 -102.3810 C   0  0  2  0  0  0  0  0  0  0  0  0
   46.8075  -26.2205 -109.7346 O   0  0  0  0  0  0  0  0  0  0  0  0
   50.5979  -32.0778 -101.6654 N   0  0  0  0  0  0  0  0  0  0  0  0
   50.5465  -31.1087 -100.7188 C   0  0  0  0  0  0  0  0  0  0  0  0
   50.2692  -29.8254 -101.0310 N   0  0  0  0  0  0  0  0  0  0  0  0
   50.1210  -29.4489 -102.3115 C   0  0  0  0  0  0  0  0  0  0  0  0
   50.2087  -30.4411 -103.3558 C   0  0  0  0  0  0  0  0  0  0  0  0
   50.4484  -31.7954 -102.9769 C   0  0  0  0  0  0  0  0  0  0  0  0
   50.5341  -32.7962 -103.9233 N   0  0  0  0  0  0  0  0  0  0  0  0
   50.0322  -29.8090 -104.5220 N   0  0  0  0  0  0  0  0  0  0  0  0
   49.8566  -28.5417 -104.2928 C   0  0  0  0  0  0  0  0  0  0  0  0
   49.8934  -28.2597 -102.9472 N   0  0  0  0  0  0  0  0  0  0  0  0
  2  1  1  6  0  0  0
  2  3  1  0  0  0  0
  2  5  1  0  0  0  0
  3  4  1  0  0  0  0
  3 17  1  0  0  0  0
  5  6  1  0  0  0  0
  7  6  1  6  0  0  0
  7  8  1  0  0  0  0
  7  9  1  0  0  0  0
 10  9  1  6  0  0  0
 10 11  1  0  0  0  0
 10 12  1  0  0  0  0
 11 16  1  0  0  0  0
 12 13  1  1  0  0  0
 12 14  1  0  0  0  0
 14 15  1  1  0  0  0
 14 16  1  0  0  0  0
 16 27  1  6  0  0  0
 18 19  2  0  0  0  0
 18 23  1  0  0  0  0
 19 20  1  0  0  0  0
 20 21  2  0  0  0  0
 21 22  1  0  0  0  0
 21 27  1  0  0  0  0
 22 23  2  0  0  0  0
 22 25  1  0  0  0  0
 23 24  1  0  0  0  0
 25 26  2  0  0  0  0
 26 27  1  0  0  0  0
M  END
>  <CHROM.1>
136.56558140,-172.92981263,62.80090283,168.31954171,-146.85494303,-55.69446335
-92.92371523,48.59803382,-27.58038275,-104.42035310,-2.82341774,1.11923520
-2.72720483

>  <Name>
ligand

>  <RI>
0

>  <Rbt.Current_Directory>
/home/itssahil/PROJECTS/Mol_Feturizer/Test_systems_manuscript/rnas/4l81

>  <Rbt.Executable>
rbdock ($Id: //depot/dev/client3/rdock/2013.1/src/exe/rbdock.cxx#4 $)

>  <Rbt.Library>
libRbt.so (2013.1, Build901 2013/11/27)

>  <Rbt.Parameter_File>
/export/apps/rDock/src/rDock_2013.1_src/data/scripts/dock_solv.prm

>  <Rbt.Receptor>
prm/pocket_docking_7.prm

>  <SCORE>
-10.5374

>  <SCORE.INTER>
-8.25809

>  <SCORE.INTER.CONST>
1

>  <SCORE.INTER.POLAR>
0

>  <SCORE.INTER.ROT>
7

>  <SCORE.INTER.SOLV>
9.62338

>  <SCORE.INTER.VDW>
-16.9799

>  <SCORE.INTER.norm>
-0.305855

>  <SCORE.INTRA>
-2.27929

>  <SCORE.INTRA.DIHEDRAL>
-1.42953

>  <SCORE.INTRA.DIHEDRAL.0>
8.34559

>  <SCORE.INTRA.POLAR>
0

>  <SCORE.INTRA.POLAR.0>
0

>  <SCORE.INTRA.REPUL>
0

>  <SCORE.INTRA.REPUL.0>
0

>  <SCORE.INTRA.SOLV>
-0.175324

>  <SCORE.INTRA.SOLV.lig_0>
-48.829

>  <SCORE.INTRA.VDW>
-1.47686

>  <SCORE.INTRA.VDW.0>
-1.77092

>  <SCORE.INTRA.norm>
-0.084418

>  <SCORE.RESTR>
0

>  <SCORE.RESTR.CAVITY>
0

>  <SCORE.RESTR.norm>
0

>  <SCORE.SYSTEM>
0

>  <SCORE.SYSTEM.CONST>
0

>  <SCORE.SYSTEM.DIHEDRAL>
0

>  <SCORE.SYSTEM.SOLV>
0

>  <SCORE.SYSTEM.norm>
0

>  <SCORE.heavy>
27

>  <SCORE.norm>
-0.390273

>  <RMSD>
5.224

$$$$
ligand
 OpenBabel02271912153D
libRbt.so/2013.1/901 2013/11/27
 27 29  0  0  0  0  0  0  0  0999 V2000
   46.3095  -28.2125 -105.9458 N   0  0  0  0  0  0  0  0  0  0  0  0
   45.0159  -28.3112 -105.2605 C   0  0  2  0  0  0  0  0  0  0  0  0
   44.5746  -26.9336 -104.8132 C   0  0  0  0  0  0  0  0  0  0  0  0
   43.4079  -26.5922 -104.9357 O   0  0  0  0  0  0  0  0  0  0  0  0
   45.1025  -29.2275 -104.0323 C   0  0  0  0  0  0  0  0  0  0  0  0
   45.4145  -30.6588 -104.4457 C   0  0  0  0  0  0  0  0  0  0  0  0
   47.1996  -31.0685 -104.3513 S   0  0  2  0  0  0  0  0  0  0  0  0
   47.2753  -32.8191 -104.8508 C   0  0  0  0  0  0  0  0  0  0  0  0
   47.2390  -31.2807 -102.5730 C   0  0  0  0  0  0  0  0  0  0  0  0
   48.6166  -31.1561 -101.9784 C   0  0  1  0  0  0  0  0  0  0  0  0
   49.5089  -30.7229 -103.0192 O   0  0  0  0  0  0  0  0  0  0  0  0
   48.4685  -30.0171 -101.0520 C   0  0  1  0  0  0  0  0  0  0  0  0
   48.2480  -30.5016  -99.7283 O   0  0  0  0  0  0  0  0  0  0  0  0
   49.8088  -29.3550 -101.1373 C   0  0  1  0  0  0  0  0  0  0  0  0
   50.7229  -29.9485 -100.1921 O   0  0  0  0  0  0  0  0  0  0  0  0
   50.3179  -29.5990 -102.5897 C   0  0  2  0  0  0  0  0  0  0  0  0
   45.3705  -26.1681 -104.2980 O   0  0  0  0  0  0  0  0  0  0  0  0
   50.3993  -24.4569 -103.9127 N   0  0  0  0  0  0  0  0  0  0  0  0
   50.7282  -25.0097 -102.7193 C   0  0  0  0  0  0  0  0  0  0  0  0
   50.7045  -26.3449 -102.5248 N   0  0  0  0  0  0  0  0  0  0  0  0
   50.2653  -27.1696 -103.4894 C   0  0  0  0  0  0  0  0  0  0  0  0
   49.8657  -26.6204 -104.7627 C   0  0  0  0  0  0  0  0  0  0  0  0
   49.9591  -25.2084 -104.9440 C   0  0  0  0  0  0  0  0  0  0  0  0
   49.6028  -24.6178 -106.1394 N   0  0  0  0  0  0  0  0  0  0  0  0
   49.4707  -27.6421 -105.5312 N   0  0  0  0  0  0  0  0  0  0  0  0
   49.5811  -28.7465 -104.8547 C   0  0  0  0  0  0  0  0  0  0  0  0
   50.0733  -28.5198 -103.5906 N   0  0  0  0  0  0  0  0  0  0  0  0
  2  1  1  1  0  0  0
  2  3  1  0  0  0  0
  2  5  1  0  0  0  0
  3  4  1  0  0  0  0
  3 17  1  0  0  0  0
  5  6  1  0  0  0  0
  7  6  1  1  0  0  0
  7  8  1  0  0  0  0
  7  9  1  0  0  0  0
 10  9  1  6  0  0  0
 10 11  1  0  0  0  0
 10 12  1  0  0  0  0
 11 16  1  0  0  0  0
 12 13  1  1  0  0  0
 12 14  1  0  0  0  0
 14 15  1  1  0  0  0
 14 16  1  0  0  0  0
 16 27  1  6  0  0  0
 18 19  2  0  0  0  0
 18 23  1  0  0  0  0
 19 20  1  0  0  0  0
 20 21  2  0  0  0  0
 21 22  1  0  0  0  0
 21 27  1  0  0  0  0
 22 23  2  0  0  0  0
 22 25  1  0  0  0  0
 23 24  1  0  0  0  0
 25 26  2  0  0  0  0
 26 27  1  0  0  0  0
M  END
>  <CHROM.1>
138.31088528,-64.57137320,95.93697432,178.63916077,-159.37823463,7.33653616
159.57494698,48.16562466,-28.58759018,-103.62001395,1.18020337,-0.45765046
-0.44385722

>  <Name>
ligand

>  <RI>
0

>  <Rbt.Current_Directory>
/home/itssahil/PROJECTS/Mol_Feturizer/Test_systems_manuscript/rnas/4l81

>  <Rbt.Executable>
rbdock ($Id: //depot/dev/client3/rdock/2013.1/src/exe/rbdock.cxx#4 $)

>  <Rbt.Library>
libRbt.so (2013.1, Build901 2013/11/27)

>  <Rbt.Parameter_File>
/export/apps/rDock/src/rDock_2013.1_src/data/scripts/dock_solv.prm

>  <Rbt.Receptor>
prm/pocket_docking_4.prm

>  <SCORE>
-6.84236

>  <SCORE.INTER>
-9.19337

>  <SCORE.INTER.CONST>
1

>  <SCORE.INTER.POLAR>
0

>  <SCORE.INTER.ROT>
7

>  <SCORE.INTER.SOLV>
10.6584

>  <SCORE.INTER.VDW>
-17.9484

>  <SCORE.INTER.norm>
-0.340495

>  <SCORE.INTRA>
2.35102

>  <SCORE.INTRA.DIHEDRAL>
5.53121

>  <SCORE.INTRA.DIHEDRAL.0>
8.34559

>  <SCORE.INTRA.POLAR>
0

>  <SCORE.INTRA.POLAR.0>
0

>  <SCORE.INTRA.REPUL>
0

>  <SCORE.INTRA.REPUL.0>
0

>  <SCORE.INTRA.SOLV>
1.15371

>  <SCORE.INTRA.SOLV.lig_0>
-48.829

>  <SCORE.INTRA.VDW>
-0.991443

>  <SCORE.INTRA.VDW.0>
-1.77092

>  <SCORE.INTRA.norm>
0.0870747

>  <SCORE.RESTR>
0

>  <SCORE.RESTR.CAVITY>
0

>  <SCORE.RESTR.norm>
0

>  <SCORE.SYSTEM>
0

>  <SCORE.SYSTEM.CONST>
0

>  <SCORE.SYSTEM.DIHEDRAL>
0

>  <SCORE.SYSTEM.SOLV>
0

>  <SCORE.SYSTEM.norm>
0

>  <SCORE.heavy>
27

>  <SCORE.norm>
-0.253421

>  <RMSD>
5.229

$$$$
ligand
 OpenBabel02271912153D
libRbt.so/2013.1/901 2013/11/27
 27 29  0  0  0  0  0  0  0  0999 V2000
   49.5721  -25.2663 -103.2021 N   0  0  0  0  0  0  0  0  0  0  0  0
   48.3665  -24.5070 -103.5523 C   0  0  2  0  0  0  0  0  0  0  0  0
   48.1190  -23.4410 -102.5058 C   0  0  0  0  0  0  0  0  0  0  0  0
   47.7739  -23.7565 -101.3770 O   0  0  0  0  0  0  0  0  0  0  0  0
   47.1348  -25.4192 -103.6320 C   0  0  0  0  0  0  0  0  0  0  0  0
   47.3132  -26.4764 -104.7125 C   0  0  0  0  0  0  0  0  0  0  0  0
   45.8540  -27.5704 -104.9051 S   0  0  2  0  0  0  0  0  0  0  0  0
   44.4450  -26.4168 -104.9642 C   0  0  0  0  0  0  0  0  0  0  0  0
   45.7585  -28.0441 -103.1802 C   0  0  0  0  0  0  0  0  0  0  0  0
   44.7706  -29.1474 -102.9086 C   0  0  1  0  0  0  0  0  0  0  0  0
   45.1353  -30.2760 -103.7211 O   0  0  0  0  0  0  0  0  0  0  0  0
   45.0748  -29.5193 -101.5134 C   0  0  1  0  0  0  0  0  0  0  0  0
   44.1604  -28.8673 -100.6335 O   0  0  0  0  0  0  0  0  0  0  0  0
   44.8228  -30.9953 -101.5103 C   0  0  1  0  0  0  0  0  0  0  0  0
   43.4332  -31.2667 -101.2337 O   0  0  0  0  0  0  0  0  0  0  0  0
   45.1849  -31.4968 -102.9406 C   0  0  2  0  0  0  0  0  0  0  0  0
   48.2937  -22.2645 -102.7705 O   0  0  0  0  0  0  0  0  0  0  0  0
   50.3120  -31.6910 -101.5719 N   0  0  0  0  0  0  0  0  0  0  0  0
   49.3431  -30.9048 -101.0417 C   0  0  0  0  0  0  0  0  0  0  0  0
   48.0606  -30.9832 -101.4541 N   0  0  0  0  0  0  0  0  0  0  0  0
   47.7170  -31.7873 -102.4733 C   0  0  0  0  0  0  0  0  0  0  0  0
   48.7247  -32.6122 -103.0949 C   0  0  0  0  0  0  0  0  0  0  0  0
   50.0574  -32.5387 -102.5910 C   0  0  0  0  0  0  0  0  0  0  0  0
   51.0679  -33.3070 -103.1324 N   0  0  0  0  0  0  0  0  0  0  0  0
   48.1268  -33.3033 -104.0725 N   0  0  0  0  0  0  0  0  0  0  0  0
   46.8693  -32.9767 -104.1121 C   0  0  0  0  0  0  0  0  0  0  0  0
   46.5551  -32.0510 -103.1446 N   0  0  0  0  0  0  0  0  0  0  0  0
  2  1  1  1  0  0  0
  2  3  1  0  0  0  0
  2  5  1  0  0  0  0
  3  4  1  0  0  0  0
  3 17  1  0  0  0  0
  5  6  1  0  0  0  0
  7  6  1  1  0  0  0
  7  8  1  0  0  0  0
  7  9  1  0  0  0  0
 10  9  1  6  0  0  0
 10 11  1  0  0  0  0
 10 12  1  0  0  0  0
 11 16  1  0  0  0  0
 12 13  1  1  0  0  0
 12 14  1  0  0  0  0
 14 15  1  6  0  0  0
 14 16  1  0  0  0  0
 16 27  1  1  0  0  0
 18 19  2  0  0  0  0
 18 23  1  0  0  0  0
 19 20  1  0  0  0  0
 20 21  2  0  0  0  0
 21 22  1  0  0  0  0
 21 27  1  0  0  0  0
 22 23  2  0  0  0  0
 22 25  1  0  0  0  0
 23 24  1  0  0  0  0
 25 26  2  0  0  0  0
 26 27  1  0  0  0  0
M  END
>  <CHROM.1>
-69.16051670,-61.46449269,-178.03585840,47.45554641,-171.27184187,57.06880452
86.69800404,46.98988103,-28.96826565,-102.90304417,-1.60540889,0.01872692
3.07289035

>  <Name>
ligand

>  <RI>
0

>  <Rbt.Current_Directory>
/home/itssahil/PROJECTS/Mol_Feturizer/Test_systems_manuscript/rnas/4l81

>  <Rbt.Executable>
rbdock ($Id: //depot/dev/client3/rdock/2013.1/src/exe/rbdock.cxx#4 $)

>  <Rbt.Library>
libRbt.so (2013.1, Build901 2013/11/27)

>  <Rbt.Parameter_File>
/export/apps/rDock/src/rDock_2013.1_src/data/scripts/dock_solv.prm

>  <Rbt.Receptor>
prm/pocket_docking_7.prm

>  <SCORE>
-16.1433

>  <SCORE.INTER>
-14.184

>  <SCORE.INTER.CONST>
1

>  <SCORE.INTER.POLAR>
0

>  <SCORE.INTER.ROT>
7

>  <SCORE.INTER.SOLV>
13.7094

>  <SCORE.INTER.VDW>
-22.2924

>  <SCORE.INTER.norm>
-0.525332

>  <SCORE.INTRA>
-1.95938

>  <SCORE.INTRA.DIHEDRAL>
-4.29971

>  <SCORE.INTRA.DIHEDRAL.0>
8.34559

>  <SCORE.INTRA.POLAR>
0

>  <SCORE.INTRA.POLAR.0>
0

>  <SCORE.INTRA.REPUL>
0

>  <SCORE.INTRA.REPUL.0>
0

>  <SCORE.INTRA.SOLV>
-0.61859

>  <SCORE.INTRA.SOLV.lig_0>
-48.829

>  <SCORE.INTRA.VDW>
0.499767

>  <SCORE.INTRA.VDW.0>
-1.77092

>  <SCORE.INTRA.norm>
-0.0725698

>  <SCORE.RESTR>
0

>  <SCORE.RESTR.CAVITY>
0

>  <SCORE.RESTR.norm>
0

>  <SCORE.SYSTEM>
0

>  <SCORE.SYSTEM.CONST>
0

>  <SCORE.SYSTEM.DIHEDRAL>
0

>  <SCORE.SYSTEM.SOLV>
0

>  <SCORE.SYSTEM.norm>
0

>  <SCORE.heavy>
27

>  <SCORE.norm>
-0.597901

>  <RMSD>
5.230

$$$$
ligand
 OpenBabel02271912153D
libRbt.so/2013.1/901 2013/11/27
 27 29  0  0  0  0  0  0  0  0999 V2000
   49.5314  -24.9686 -105.4714 N   0  0  0  0  0  0  0  0  0  0  0  0
   48.9116  -26.1670 -104.8949 C   0  0  2  0  0  0  0  0  0  0  0  0
   49.8506  -27.3449 -105.0484 C   0  0  0  0  0  0  0  0  0  0  0  0
   50.5819  -27.4247 -106.0238 O   0  0  0  0  0  0  0  0  0  0  0  0
   47.5832  -26.4981 -105.5886 C   0  0  0  0  0  0  0  0  0  0  0  0
   46.7913  -27.5181 -104.7829 C   0  0  0  0  0  0  0  0  0  0  0  0
   45.0928  -27.7859 -105.4206 S   0  0  2  0  0  0  0  0  0  0  0  0
   44.3532  -26.1208 -105.4129 C   0  0  0  0  0  0  0  0  0  0  0  0
   44.4193  -28.4008 -103.8788 C   0  0  0  0  0  0  0  0  0  0  0  0
   44.1450  -29.8811 -103.8851 C   0  0  1  0  0  0  0  0  0  0  0  0
   45.4027  -30.5623 -104.0308 O   0  0  0  0  0  0  0  0  0  0  0  0
   43.6893  -30.1327 -102.5042 C   0  0  1  0  0  0  0  0  0  0  0  0
   42.2633  -30.1543 -102.4667 O   0  0  0  0  0  0  0  0  0  0  0  0
   44.2287  -31.5025 -102.2307 C   0  0  1  0  0  0  0  0  0  0  0  0
   43.2945  -32.5079 -102.6756 O   0  0  0  0  0  0  0  0  0  0  0  0
   45.5529  -31.6142 -103.0444 C   0  0  2  0  0  0  0  0  0  0  0  0
   49.9084  -28.2040 -104.1861 O   0  0  0  0  0  0  0  0  0  0  0  0
   50.8604  -31.4660 -102.9659 N   0  0  0  0  0  0  0  0  0  0  0  0
   50.0595  -31.9046 -103.9679 C   0  0  0  0  0  0  0  0  0  0  0  0
   48.7143  -31.8492 -103.8773 N   0  0  0  0  0  0  0  0  0  0  0  0
   48.1206  -31.4358 -102.7459 C   0  0  0  0  0  0  0  0  0  0  0  0
   48.9354  -30.9982 -101.6381 C   0  0  0  0  0  0  0  0  0  0  0  0
   50.3530  -31.0213 -101.7968 C   0  0  0  0  0  0  0  0  0  0  0  0
   51.1911  -30.6075 -100.7813 N   0  0  0  0  0  0  0  0  0  0  0  0
   48.1065  -30.6486 -100.6473 N   0  0  0  0  0  0  0  0  0  0  0  0
   46.8807  -30.8369 -101.0363 C   0  0  0  0  0  0  0  0  0  0  0  0
   46.8252  -31.3143 -102.3250 N   0  0  0  0  0  0  0  0  0  0  0  0
  2  1  1  6  0  0  0
  2  3  1  0  0  0  0
  2  5  1  0  0  0  0
  3  4  1  0  0  0  0
  3 17  1  0  0  0  0
  5  6  1  0  0  0  0
  7  6  1  1  0  0  0
  7  8  1  0  0  0  0
  7  9  1  0  0  0  0
 10  9  1  1  0  0  0
 10 11  1  0  0  0  0
 10 12  1  0  0  0  0
 11 16  1  0  0  0  0
 12 13  1  6  0  0  0
 12 14  1  0  0  0  0
 14 15  1  6  0  0  0
 14 16  1  0  0  0  0
 16 27  1  1  0  0  0
 18 19  2  0  0  0  0
 18 23  1  0  0  0  0
 19 20  1  0  0  0  0
 20 21  2  0  0  0  0
 21 22  1  0  0  0  0
 21 27  1  0  0  0  0
 22 23  2  0  0  0  0
 22 25  1  0  0  0  0
 23 24  1  0  0  0  0
 25 26  2  0  0  0  0
 26 27  1  0  0  0  0
M  END
>  <CHROM.1>
-33.30131045,-166.28671946,171.80338194,-56.31293110,-107.49689359,64.36097079
-72.64134319,47.08416444,-29.46548056,-103.58834614,0.40585474,-0.04085385
-0.59612642

>  <Name>
ligand

>  <RI>
0

>  <Rbt.Current_Directory>
/home/itssahil/PROJECTS/Mol_Feturizer/Test_systems_manuscript/rnas/4l81

>  <Rbt.Executable>
rbdock ($Id: //depot/dev/client3/rdock/2013.1/src/exe/rbdock.cxx#4 $)

>  <Rbt.Library>
libRbt.so (2013.1, Build901 2013/11/27)

>  <Rbt.Parameter_File>
/export/apps/rDock/src/rDock_2013.1_src/data/scripts/dock_solv.prm

>  <Rbt.Receptor>
prm/pocket_docking_2.prm

>  <SCORE>
-7.07015

>  <SCORE.INTER>
-6.6913

>  <SCORE.INTER.CONST>
1

>  <SCORE.INTER.POLAR>
0

>  <SCORE.INTER.ROT>
7

>  <SCORE.INTER.SOLV>
17.7113

>  <SCORE.INTER.VDW>
-18.6313

>  <SCORE.INTER.norm>
-0.247826

>  <SCORE.INTRA>
-1.82806

>  <SCORE.INTRA.DIHEDRAL>
-0.142949

>  <SCORE.INTRA.DIHEDRAL.0>
8.34559

>  <SCORE.INTRA.POLAR>
0

>  <SCORE.INTRA.POLAR.0>
0

>  <SCORE.INTRA.REPUL>
0

>  <SCORE.INTRA.REPUL.0>
0

>  <SCORE.INTRA.SOLV>
-1.28454

>  <SCORE.INTRA.SOLV.lig_0>
-48.829

>  <SCORE.INTRA.VDW>
-1.11431

>  <SCORE.INTRA.VDW.0>
-1.77092

>  <SCORE.INTRA.norm>
-0.0677058

>  <SCORE.RESTR>
1.44921

>  <SCORE.RESTR.CAVITY>
1.44921

>  <SCORE.RESTR.norm>
0.0536744

>  <SCORE.SYSTEM>
0

>  <SCORE.SYSTEM.CONST>
0

>  <SCORE.SYSTEM.DIHEDRAL>
0

>  <SCORE.SYSTEM.SOLV>
0

>  <SCORE.SYSTEM.norm>
0

>  <SCORE.heavy>
27

>  <SCORE.norm>
-0.261857

>  <RMSD>
5.248

$$$$
ligand
 OpenBabel02271912153D
libRbt.so/2013.1/901 2013/11/27
 27 29  0  0  0  0  0  0  0  0999 V2000
   47.3871  -28.1599 -105.7202 N   0  0  0  0  0  0  0  0  0  0  0  0
   48.4690  -28.9861 -106.2675 C   0  0  2  0  0  0  0  0  0  0  0  0
   48.3149  -29.0896 -107.7703 C   0  0  0  0  0  0  0  0  0  0  0  0
   49.0470  -28.4481 -108.5087 O   0  0  0  0  0  0  0  0  0  0  0  0
   48.4510  -30.3990 -105.6686 C   0  0  0  0  0  0  0  0  0  0  0  0
   48.9649  -30.3863 -104.2359 C   0  0  0  0  0  0  0  0  0  0  0  0
   48.6439  -31.9517 -103.3360 S   0  0  2  0  0  0  0  0  0  0  0  0
   48.9103  -33.2434 -104.5930 C   0  0  0  0  0  0  0  0  0  0  0  0
   46.8580  -31.8411 -103.4193 C   0  0  0  0  0  0  0  0  0  0  0  0
   46.2195  -31.3739 -102.1383 C   0  0  1  0  0  0  0  0  0  0  0  0
   47.1352  -30.4739 -101.4915 O   0  0  0  0  0  0  0  0  0  0  0  0
   45.0921  -30.5517 -102.6185 C   0  0  1  0  0  0  0  0  0  0  0  0
   43.8938  -31.3259 -102.6033 O   0  0  0  0  0  0  0  0  0  0  0  0
   45.0162  -29.4719 -101.5840 C   0  0  1  0  0  0  0  0  0  0  0  0
   44.1846  -29.8903 -100.4819 O   0  0  0  0  0  0  0  0  0  0  0  0
   46.4764  -29.2467 -101.0888 C   0  0  2  0  0  0  0  0  0  0  0  0
   47.4835  -29.8371 -108.2550 O   0  0  0  0  0  0  0  0  0  0  0  0
   46.6506  -24.9874 -104.2552 N   0  0  0  0  0  0  0  0  0  0  0  0
   45.5794  -25.7719 -103.9815 C   0  0  0  0  0  0  0  0  0  0  0  0
   45.6594  -26.8074 -103.1199 N   0  0  0  0  0  0  0  0  0  0  0  0
   46.8352  -27.1505 -102.5691 C   0  0  0  0  0  0  0  0  0  0  0  0
   48.0108  -26.3676 -102.8650 C   0  0  0  0  0  0  0  0  0  0  0  0
   47.8698  -25.2479 -103.7377 C   0  0  0  0  0  0  0  0  0  0  0  0
   48.9507  -24.4507 -104.0553 N   0  0  0  0  0  0  0  0  0  0  0  0
   49.0341  -26.9188 -102.2018 N   0  0  0  0  0  0  0  0  0  0  0  0
   48.6028  -27.9545 -101.5455 C   0  0  0  0  0  0  0  0  0  0  0  0
   47.2526  -28.1437 -101.7268 N   0  0  0  0  0  0  0  0  0  0  0  0
  2  1  1  1  0  0  0
  2  3  1  0  0  0  0
  2  5  1  0  0  0  0
  3  4  1  0  0  0  0
  3 17  1  0  0  0  0
  5  6  1  0  0  0  0
  7  6  1  6  0  0  0
  7  8  1  0  0  0  0
  7  9  1  0  0  0  0
 10  9  1  6  0  0  0
 10 11  1  0  0  0  0
 10 12  1  0  0  0  0
 11 16  1  0  0  0  0
 12 13  1  1  0  0  0
 12 14  1  0  0  0  0
 14 15  1  1  0  0  0
 14 16  1  0  0  0  0
 16 27  1  6  0  0  0
 18 19  2  0  0  0  0
 18 23  1  0  0  0  0
 19 20  1  0  0  0  0
 20 21  2  0  0  0  0
 21 22  1  0  0  0  0
 21 27  1  0  0  0  0
 22 23  2  0  0  0  0
 22 25  1  0  0  0  0
 23 24  1  0  0  0  0
 25 26  2  0  0  0  0
 26 27  1  0  0  0  0
M  END
>  <CHROM.1>
104.48519304,-74.24076530,167.70290768,38.10996797,-101.84481639,31.75990585
123.60567253,47.27261666,-29.06284898,-103.70871298,-0.74826643,-1.08750636
-3.10014006

>  <Name>
ligand

>  <RI>
0

>  <Rbt.Current_Directory>
/home/itssahil/PROJECTS/Mol_Feturizer/Test_systems_manuscript/rnas/4l81

>  <Rbt.Executable>
rbdock ($Id: //depot/dev/client3/rdock/2013.1/src/exe/rbdock.cxx#4 $)

>  <Rbt.Library>
libRbt.so (2013.1, Build901 2013/11/27)

>  <Rbt.Parameter_File>
/export/apps/rDock/src/rDock_2013.1_src/data/scripts/dock_solv.prm

>  <Rbt.Receptor>
prm/pocket_docking_7.prm

>  <SCORE>
-10.2014

>  <SCORE.INTER>
-10.9227

>  <SCORE.INTER.CONST>
1

>  <SCORE.INTER.POLAR>
0

>  <SCORE.INTER.ROT>
7

>  <SCORE.INTER.SOLV>
6.57907

>  <SCORE.INTER.VDW>
-17.7415

>  <SCORE.INTER.norm>
-0.404545

>  <SCORE.INTRA>
0.721335

>  <SCORE.INTRA.DIHEDRAL>
1.67632

>  <SCORE.INTRA.DIHEDRAL.0>
8.34559

>  <SCORE.INTRA.POLAR>
0

>  <SCORE.INTRA.POLAR.0>
0

>  <SCORE.INTRA.REPUL>
0

>  <SCORE.INTRA.REPUL.0>
0

>  <SCORE.INTRA.SOLV>
1.49345

>  <SCORE.INTRA.SOLV.lig_0>
-48.829

>  <SCORE.INTRA.VDW>
-0.863553

>  <SCORE.INTRA.VDW.0>
-1.77092

>  <SCORE.INTRA.norm>
0.0267161

>  <SCORE.RESTR>
0

>  <SCORE.RESTR.CAVITY>
0

>  <SCORE.RESTR.norm>
0

>  <SCORE.SYSTEM>
0

>  <SCORE.SYSTEM.CONST>
0

>  <SCORE.SYSTEM.DIHEDRAL>
0

>  <SCORE.SYSTEM.SOLV>
0

>  <SCORE.SYSTEM.norm>
0

>  <SCORE.heavy>
27

>  <SCORE.norm>
-0.377829

>  <RMSD>
5.248

$$$$
ligand
 OpenBabel02271912153D
libRbt.so/2013.1/901 2013/11/27
 27 29  0  0  0  0  0  0  0  0999 V2000
   48.3214  -21.9141 -104.4982 N   0  0  0  0  0  0  0  0  0  0  0  0
   48.5442  -23.0459 -103.5915 C   0  0  2  0  0  0  0  0  0  0  0  0
   50.0310  -23.2967 -103.4524 C   0  0  0  0  0  0  0  0  0  0  0  0
   50.4814  -23.7623 -102.4165 O   0  0  0  0  0  0  0  0  0  0  0  0
   47.8728  -24.3226 -104.1155 C   0  0  0  0  0  0  0  0  0  0  0  0
   47.9549  -25.4396 -103.0848 C   0  0  0  0  0  0  0  0  0  0  0  0
   47.0771  -26.9660 -103.5975 S   0  0  2  0  0  0  0  0  0  0  0  0
   45.3181  -26.4921 -103.5675 C   0  0  0  0  0  0  0  0  0  0  0  0
   47.1788  -27.7736 -102.0019 C   0  0  0  0  0  0  0  0  0  0  0  0
   46.0167  -28.6849 -101.7089 C   0  0  1  0  0  0  0  0  0  0  0  0
   45.9850  -29.7005 -102.7260 O   0  0  0  0  0  0  0  0  0  0  0  0
   46.4349  -29.3535 -100.4615 C   0  0  1  0  0  0  0  0  0  0  0  0
   45.8388  -28.6979  -99.3434 O   0  0  0  0  0  0  0  0  0  0  0  0
   45.8540  -30.7245 -100.6196 C   0  0  1  0  0  0  0  0  0  0  0  0
   44.4975  -30.7544 -100.1293 O   0  0  0  0  0  0  0  0  0  0  0  0
   45.8703  -31.0254 -102.1484 C   0  0  2  0  0  0  0  0  0  0  0  0
   50.7847  -23.0680 -104.3822 O   0  0  0  0  0  0  0  0  0  0  0  0
   51.0549  -32.1708 -102.0687 N   0  0  0  0  0  0  0  0  0  0  0  0
   50.3984  -31.2531 -101.3171 C   0  0  0  0  0  0  0  0  0  0  0  0
   49.0620  -31.0883 -101.4052 N   0  0  0  0  0  0  0  0  0  0  0  0
   48.3459  -31.7730 -102.3118 C   0  0  0  0  0  0  0  0  0  0  0  0
   49.0106  -32.7312 -103.1617 C   0  0  0  0  0  0  0  0  0  0  0  0
   50.4160  -32.9138 -102.9970 C   0  0  0  0  0  0  0  0  0  0  0  0
   51.1127  -33.8206 -103.7696 N   0  0  0  0  0  0  0  0  0  0  0  0
   48.0822  -33.2623 -103.9659 N   0  0  0  0  0  0  0  0  0  0  0  0
   46.9316  -32.7205 -103.6976 C   0  0  0  0  0  0  0  0  0  0  0  0
   47.0294  -31.7995 -102.6808 N   0  0  0  0  0  0  0  0  0  0  0  0
  2  1  1  6  0  0  0
  2  3  1  0  0  0  0
  2  5  1  0  0  0  0
  3  4  1  0  0  0  0
  3 17  1  0  0  0  0
  5  6  1  0  0  0  0
  7  6  1  1  0  0  0
  7  8  1  0  0  0  0
  7  9  1  0  0  0  0
 10  9  1  6  0  0  0
 10 11  1  0  0  0  0
 10 12  1  0  0  0  0
 11 16  1  0  0  0  0
 12 13  1  1  0  0  0
 12 14  1  0  0  0  0
 14 15  1  6  0  0  0
 14 16  1  0  0  0  0
 16 27  1  1  0  0  0
 18 19  2  0  0  0  0
 18 23  1  0  0  0  0
 19 20  1  0  0  0  0
 20 21  2  0  0  0  0
 21 22  1  0  0  0  0
 21 27  1  0  0  0  0
 22 23  2  0  0  0  0
 22 25  1  0  0  0  0
 23 24  1  0  0  0  0
 25 26  2  0  0  0  0
 26 27  1  0  0  0  0
M  END
>  <CHROM.1>
150.06509542,-172.61621831,176.25921009,-68.46987247,148.76939509,59.93553772
77.49198332,47.90208198,-28.64416899,-102.59764677,-1.49580442,-0.37470952
3.01395489

>  <Name>
ligand

>  <RI>
0

>  <Rbt.Current_Directory>
/home/itssahil/PROJECTS/Mol_Feturizer/Test_systems_manuscript/rnas/4l81

>  <Rbt.Executable>
rbdock ($Id: //depot/dev/client3/rdock/2013.1/src/exe/rbdock.cxx#4 $)

>  <Rbt.Library>
libRbt.so (2013.1, Build901 2013/11/27)

>  <Rbt.Parameter_File>
/export/apps/rDock/src/rDock_2013.1_src/data/scripts/dock_solv.prm

>  <Rbt.Receptor>
prm/pocket_docking_5.prm

>  <SCORE>
-16.279

>  <SCORE.INTER>
-14.1215

>  <SCORE.INTER.CONST>
1

>  <SCORE.INTER.POLAR>
0

>  <SCORE.INTER.ROT>
7

>  <SCORE.INTER.SOLV>
12.2564

>  <SCORE.INTER.VDW>
-21.7664

>  <SCORE.INTER.norm>
-0.523018

>  <SCORE.INTRA>
-2.21907

>  <SCORE.INTRA.DIHEDRAL>
-3.36948

>  <SCORE.INTRA.DIHEDRAL.0>
8.34559

>  <SCORE.INTRA.POLAR>
0

>  <SCORE.INTRA.POLAR.0>
0

>  <SCORE.INTRA.REPUL>
0

>  <SCORE.INTRA.REPUL.0>
0

>  <SCORE.INTRA.SOLV>
-1.25674

>  <SCORE.INTRA.SOLV.lig_0>
-48.829

>  <SCORE.INTRA.VDW>
0.0940372

>  <SCORE.INTRA.VDW.0>
-1.77092

>  <SCORE.INTRA.norm>
-0.0821879

>  <SCORE.RESTR>
0.0615117

>  <SCORE.RESTR.CAVITY>
0.0615117

>  <SCORE.RESTR.norm>
0.00227821

>  <SCORE.SYSTEM>
0

>  <SCORE.SYSTEM.CONST>
0

>  <SCORE.SYSTEM.DIHEDRAL>
0

>  <SCORE.SYSTEM.SOLV>
0

>  <SCORE.SYSTEM.norm>
0

>  <SCORE.heavy>
27

>  <SCORE.norm>
-0.602928

>  <RMSD>
5.249

$$$$
ligand
 OpenBabel02271912153D
libRbt.so/2013.1/901 2013/11/27
 27 29  0  0  0  0  0  0  0  0999 V2000
   49.5091  -25.4614 -103.2909 N   0  0  0  0  0  0  0  0  0  0  0  0
   48.3794  -24.6004 -103.6583 C   0  0  2  0  0  0  0  0  0  0  0  0
   48.2009  -23.5252 -102.6072 C   0  0  0  0  0  0  0  0  0  0  0  0
   48.3657  -22.3496 -102.8965 O   0  0  0  0  0  0  0  0  0  0  0  0
   47.0771  -25.4047 -103.7710 C   0  0  0  0  0  0  0  0  0  0  0  0
   47.1909  -26.4703 -104.8519 C   0  0  0  0  0  0  0  0  0  0  0  0
   45.7155  -27.5542 -104.9605 S   0  0  2  0  0  0  0  0  0  0  0  0
   44.3168  -26.3878 -105.0140 C   0  0  0  0  0  0  0  0  0  0  0  0
   45.6710  -27.9682 -103.2182 C   0  0  0  0  0  0  0  0  0  0  0  0
   44.5952  -28.9580 -102.8580 C   0  0  1  0  0  0  0  0  0  0  0  0
   44.6135  -30.0069 -103.8410 O   0  0  0  0  0  0  0  0  0  0  0  0
   45.1038  -29.5486 -101.6049 C   0  0  1  0  0  0  0  0  0  0  0  0
   44.4919  -28.9045 -100.4887 O   0  0  0  0  0  0  0  0  0  0  0  0
   44.6300  -30.9658 -101.7003 C   0  0  1  0  0  0  0  0  0  0  0  0
   43.2960  -31.0861 -101.1642 O   0  0  0  0  0  0  0  0  0  0  0  0
   44.6232  -31.3163 -103.2186 C   0  0  2  0  0  0  0  0  0  0  0  0
   47.8599  -23.8199 -101.4750 O   0  0  0  0  0  0  0  0  0  0  0  0
   47.4016  -33.1041 -107.3758 N   0  0  0  0  0  0  0  0  0  0  0  0
   46.1967  -32.4829 -107.3911 C   0  0  0  0  0  0  0  0  0  0  0  0
   45.6134  -32.0371 -106.2588 N   0  0  0  0  0  0  0  0  0  0  0  0
   46.1721  -32.2756 -105.0611 C   0  0  0  0  0  0  0  0  0  0  0  0
   47.4352  -32.9703 -104.9949 C   0  0  0  0  0  0  0  0  0  0  0  0
   48.0439  -33.3751 -106.2200 C   0  0  0  0  0  0  0  0  0  0  0  0
   49.2561  -34.0348 -106.2300 N   0  0  0  0  0  0  0  0  0  0  0  0
   47.7622  -33.0804 -103.7019 N   0  0  0  0  0  0  0  0  0  0  0  0
   46.8276  -32.5347 -102.9822 C   0  0  0  0  0  0  0  0  0  0  0  0
   45.8236  -32.0141 -103.7648 N   0  0  0  0  0  0  0  0  0  0  0  0
  2  1  1  1  0  0  0
  2  3  1  0  0  0  0
  2  5  1  0  0  0  0
  3  4  1  0  0  0  0
  3 17  1  0  0  0  0
  5  6  1  0  0  0  0
  7  6  1  1  0  0  0
  7  8  1  0  0  0  0
  7  9  1  0  0  0  0
 10  9  1  6  0  0  0
 10 11  1  0  0  0  0
 10 12  1  0  0  0  0
 11 16  1  0  0  0  0
 12 13  1  1  0  0  0
 12 14  1  0  0  0  0
 14 15  1  6  0  0  0
 14 16  1  0  0  0  0
 16 27  1  6  0  0  0
 18 19  2  0  0  0  0
 18 23  1  0  0  0  0
 19 20  1  0  0  0  0
 20 21  2  0  0  0  0
 21 22  1  0  0  0  0
 21 27  1  0  0  0  0
 22 23  2  0  0  0  0
 22 25  1  0  0  0  0
 23 24  1  0  0  0  0
 25 26  2  0  0  0  0
 26 27  1  0  0  0  0
M  END
>  <CHROM.1>
115.61800136,-61.13823317,175.73337357,49.39930413,-176.60941744,44.61287472
-56.64011984,46.38385124,-29.14392956,-103.86406597,-1.42944095,-0.77428369
-2.79690910

>  <Name>
ligand

>  <RI>
0

>  <Rbt.Current_Directory>
/home/itssahil/PROJECTS/Mol_Feturizer/Test_systems_manuscript/rnas/4l81

>  <Rbt.Executable>
rbdock ($Id: //depot/dev/client3/rdock/2013.1/src/exe/rbdock.cxx#4 $)

>  <Rbt.Library>
libRbt.so (2013.1, Build901 2013/11/27)

>  <Rbt.Parameter_File>
/export/apps/rDock/src/rDock_2013.1_src/data/scripts/dock_solv.prm

>  <Rbt.Receptor>
prm/pocket_docking_6.prm

>  <SCORE>
-15.3663

>  <SCORE.INTER>
-14.3172

>  <SCORE.INTER.CONST>
1

>  <SCORE.INTER.POLAR>
0

>  <SCORE.INTER.ROT>
7

>  <SCORE.INTER.SOLV>
10.9192

>  <SCORE.INTER.VDW>
-21.4512

>  <SCORE.INTER.norm>
-0.530268

>  <SCORE.INTRA>
-1.04909

>  <SCORE.INTRA.DIHEDRAL>
-3.9059

>  <SCORE.INTRA.DIHEDRAL.0>
8.34559

>  <SCORE.INTRA.POLAR>
0

>  <SCORE.INTRA.POLAR.0>
0

>  <SCORE.INTRA.REPUL>
0

>  <SCORE.INTRA.REPUL.0>
0

>  <SCORE.INTRA.SOLV>
-0.517954

>  <SCORE.INTRA.SOLV.lig_0>
-48.829

>  <SCORE.INTRA.VDW>
1.16283

>  <SCORE.INTRA.VDW.0>
-1.77092

>  <SCORE.INTRA.norm>
-0.0388553

>  <SCORE.RESTR>
0

>  <SCORE.RESTR.CAVITY>
0

>  <SCORE.RESTR.norm>
0

>  <SCORE.SYSTEM>
0

>  <SCORE.SYSTEM.CONST>
0

>  <SCORE.SYSTEM.DIHEDRAL>
0

>  <SCORE.SYSTEM.SOLV>
0

>  <SCORE.SYSTEM.norm>
0

>  <SCORE.heavy>
27

>  <SCORE.norm>
-0.569124

>  <RMSD>
5.251

$$$$
ligand
 OpenBabel02271912153D
libRbt.so/2013.1/901 2013/11/27
 27 29  0  0  0  0  0  0  0  0999 V2000
   50.7356  -25.7992 -104.6382 N   0  0  0  0  0  0  0  0  0  0  0  0
   49.5771  -25.9583 -103.7521 C   0  0  2  0  0  0  0  0  0  0  0  0
   49.4203  -24.7179 -102.8978 C   0  0  0  0  0  0  0  0  0  0  0  0
   48.3064  -24.2987 -102.6219 O   0  0  0  0  0  0  0  0  0  0  0  0
   49.7397  -27.1763 -102.8327 C   0  0  0  0  0  0  0  0  0  0  0  0
   48.4524  -27.4541 -102.0695 C   0  0  0  0  0  0  0  0  0  0  0  0
   47.3765  -28.6934 -102.8880 S   0  0  2  0  0  0  0  0  0  0  0  0
   47.4681  -28.2561 -104.6543 C   0  0  0  0  0  0  0  0  0  0  0  0
   45.8313  -27.8858 -102.4773 C   0  0  0  0  0  0  0  0  0  0  0  0
   44.6499  -28.8186 -102.4451 C   0  0  1  0  0  0  0  0  0  0  0  0
   44.7423  -29.6872 -103.5870 O   0  0  0  0  0  0  0  0  0  0  0  0
   44.9273  -29.6530 -101.2599 C   0  0  1  0  0  0  0  0  0  0  0  0
   44.2023  -29.1494 -100.1392 O   0  0  0  0  0  0  0  0  0  0  0  0
   44.3784  -30.9852 -101.6673 C   0  0  1  0  0  0  0  0  0  0  0  0
   42.9749  -31.0698 -101.3441 O   0  0  0  0  0  0  0  0  0  0  0  0
   44.5719  -31.0770 -103.2107 C   0  0  2  0  0  0  0  0  0  0  0  0
   50.4009  -24.1481 -102.4520 O   0  0  0  0  0  0  0  0  0  0  0  0
   47.3682  -33.1457 -107.2231 N   0  0  0  0  0  0  0  0  0  0  0  0
   46.1426  -32.5690 -107.2793 C   0  0  0  0  0  0  0  0  0  0  0  0
   45.5558  -32.0407 -106.1850 N   0  0  0  0  0  0  0  0  0  0  0  0
   46.1343  -32.1495 -104.9779 C   0  0  0  0  0  0  0  0  0  0  0  0
   47.4211  -32.7928 -104.8650 C   0  0  0  0  0  0  0  0  0  0  0  0
   48.0311  -33.2880 -106.0558 C   0  0  0  0  0  0  0  0  0  0  0  0
   49.2650  -33.9052 -106.0214 N   0  0  0  0  0  0  0  0  0  0  0  0
   47.7647  -32.7728 -103.5718 N   0  0  0  0  0  0  0  0  0  0  0  0
   46.8191  -32.1946 -102.8928 C   0  0  0  0  0  0  0  0  0  0  0  0
   45.7900  -31.7817 -103.7065 N   0  0  0  0  0  0  0  0  0  0  0  0
  2  1  1  6  0  0  0
  2  3  1  0  0  0  0
  2  5  1  0  0  0  0
  3  4  1  0  0  0  0
  3 17  1  0  0  0  0
  5  6  1  0  0  0  0
  7  6  1  1  0  0  0
  7  8  1  0  0  0  0
  7  9  1  0  0  0  0
 10  9  1  6  0  0  0
 10 11  1  0  0  0  0
 10 12  1  0  0  0  0
 11 16  1  0  0  0  0
 12 13  1  1  0  0  0
 12 14  1  0  0  0  0
 14 15  1  6  0  0  0
 14 16  1  0  0  0  0
 16 27  1  1  0  0  0
 18 19  2  0  0  0  0
 18 23  1  0  0  0  0
 19 20  1  0  0  0  0
 20 21  2  0  0  0  0
 21 22  1  0  0  0  0
 21 27  1  0  0  0  0
 22 23  2  0  0  0  0
 22 25  1  0  0  0  0
 23 24  1  0  0  0  0
 25 26  2  0  0  0  0
 26 27  1  0  0  0  0
M  END
>  <CHROM.1>
143.06804524,-171.51332261,94.41757045,-41.47851267,-155.59967196,-43.35853944
-75.35859270,46.96967380,-29.53846959,-103.52473185,-1.10668366,-0.59253798
-2.59729457

>  <Name>
ligand

>  <RI>
0

>  <Rbt.Current_Directory>
/home/itssahil/PROJECTS/Mol_Feturizer/Test_systems_manuscript/rnas/4l81

>  <Rbt.Executable>
rbdock ($Id: //depot/dev/client3/rdock/2013.1/src/exe/rbdock.cxx#4 $)

>  <Rbt.Library>
libRbt.so (2013.1, Build901 2013/11/27)

>  <Rbt.Parameter_File>
/export/apps/rDock/src/rDock_2013.1_src/data/scripts/dock_solv.prm

>  <Rbt.Receptor>
prm/pocket_docking_5.prm

>  <SCORE>
-11.5584

>  <SCORE.INTER>
-12.4945

>  <SCORE.INTER.CONST>
1

>  <SCORE.INTER.POLAR>
0

>  <SCORE.INTER.ROT>
7

>  <SCORE.INTER.SOLV>
12.1466

>  <SCORE.INTER.VDW>
-20.6452

>  <SCORE.INTER.norm>
-0.462759

>  <SCORE.INTRA>
0.936067

>  <SCORE.INTRA.DIHEDRAL>
3.7851

>  <SCORE.INTRA.DIHEDRAL.0>
8.34559

>  <SCORE.INTRA.POLAR>
0

>  <SCORE.INTRA.POLAR.0>
0

>  <SCORE.INTRA.REPUL>
0

>  <SCORE.INTRA.REPUL.0>
0

>  <SCORE.INTRA.SOLV>
-0.42215

>  <SCORE.INTRA.SOLV.lig_0>
-48.829

>  <SCORE.INTRA.VDW>
-0.745407

>  <SCORE.INTRA.VDW.0>
-1.77092

>  <SCORE.INTRA.norm>
0.0346692

>  <SCORE.RESTR>
0

>  <SCORE.RESTR.CAVITY>
0

>  <SCORE.RESTR.norm>
0

>  <SCORE.SYSTEM>
0

>  <SCORE.SYSTEM.CONST>
0

>  <SCORE.SYSTEM.DIHEDRAL>
0

>  <SCORE.SYSTEM.SOLV>
0

>  <SCORE.SYSTEM.norm>
0

>  <SCORE.heavy>
27

>  <SCORE.norm>
-0.42809

>  <RMSD>
5.261

$$$$
ligand
 OpenBabel02271912153D
libRbt.so/2013.1/901 2013/11/27
 27 29  0  0  0  0  0  0  0  0999 V2000
   49.7149  -26.5706 -105.4497 N   0  0  0  0  0  0  0  0  0  0  0  0
   48.7623  -26.5113 -104.3353 C   0  0  2  0  0  0  0  0  0  0  0  0
   49.4751  -26.0381 -103.0860 C   0  0  0  0  0  0  0  0  0  0  0  0
   50.5417  -26.5372 -102.7607 O   0  0  0  0  0  0  0  0  0  0  0  0
   48.1384  -27.8861 -104.0596 C   0  0  0  0  0  0  0  0  0  0  0  0
   47.1155  -28.2407 -105.1296 C   0  0  0  0  0  0  0  0  0  0  0  0
   45.4670  -27.4938 -104.8335 S   0  0  2  0  0  0  0  0  0  0  0  0
   45.8240  -25.7237 -104.5910 C   0  0  0  0  0  0  0  0  0  0  0  0
   45.3505  -27.9956 -103.1178 C   0  0  0  0  0  0  0  0  0  0  0  0
   44.4280  -29.1634 -102.8895 C   0  0  1  0  0  0  0  0  0  0  0  0
   44.8740  -30.2474 -103.7219 O   0  0  0  0  0  0  0  0  0  0  0  0
   44.7323  -29.5502 -101.4983 C   0  0  1  0  0  0  0  0  0  0  0  0
   43.7658  -28.9770 -100.6192 O   0  0  0  0  0  0  0  0  0  0  0  0
   44.5714  -31.0385 -101.5344 C   0  0  1  0  0  0  0  0  0  0  0  0
   43.1967  -31.4008 -101.2883 O   0  0  0  0  0  0  0  0  0  0  0  0
   44.9860  -31.4817 -102.9695 C   0  0  2  0  0  0  0  0  0  0  0  0
   49.0084  -25.1347 -102.4144 O   0  0  0  0  0  0  0  0  0  0  0  0
   50.0646  -31.5237 -101.4190 N   0  0  0  0  0  0  0  0  0  0  0  0
   49.0363  -30.8345 -100.8665 C   0  0  0  0  0  0  0  0  0  0  0  0
   47.7753  -30.9446 -101.3342 N   0  0  0  0  0  0  0  0  0  0  0  0
   47.5121  -31.6791 -102.4272 C   0  0  0  0  0  0  0  0  0  0  0  0
   48.5846  -32.3974 -103.0725 C   0  0  0  0  0  0  0  0  0  0  0  0
   49.8926  -32.2970 -102.5120 C   0  0  0  0  0  0  0  0  0  0  0  0
   50.9619  -32.9655 -103.0727 N   0  0  0  0  0  0  0  0  0  0  0  0
   48.0599  -33.0358 -104.1251 N   0  0  0  0  0  0  0  0  0  0  0  0
   46.7888  -32.7721 -104.1881 C   0  0  0  0  0  0  0  0  0  0  0  0
   46.3907  -31.9462 -103.1629 N   0  0  0  0  0  0  0  0  0  0  0  0
  2  1  1  6  0  0  0
  2  3  1  0  0  0  0
  2  5  1  0  0  0  0
  3  4  1  0  0  0  0
  3 17  1  0  0  0  0
  5  6  1  0  0  0  0
  7  6  1  1  0  0  0
  7  8  1  0  0  0  0
  7  9  1  0  0  0  0
 10  9  1  6  0  0  0
 10 11  1  0  0  0  0
 10 12  1  0  0  0  0
 11 16  1  0  0  0  0
 12 13  1  1  0  0  0
 12 14  1  0  0  0  0
 14 15  1  6  0  0  0
 14 16  1  0  0  0  0
 16 27  1  1  0  0  0
 18 19  2  0  0  0  0
 18 23  1  0  0  0  0
 19 20  1  0  0  0  0
 20 21  2  0  0  0  0
 21 22  1  0  0  0  0
 21 27  1  0  0  0  0
 22 23  2  0  0  0  0
 22 25  1  0  0  0  0
 23 24  1  0  0  0  0
 25 26  2  0  0  0  0
 26 27  1  0  0  0  0
M  END
>  <CHROM.1>
-47.64905698,-74.22833532,-82.56541678,52.14607192,-103.94282025,56.01674523
90.20984779,47.09504156,-29.46320970,-103.06295803,-1.31182366,-0.08527762
2.88971588

>  <Name>
ligand

>  <RI>
0

>  <Rbt.Current_Directory>
/home/itssahil/PROJECTS/Mol_Feturizer/Test_systems_manuscript/rnas/4l81

>  <Rbt.Executable>
rbdock ($Id: //depot/dev/client3/rdock/2013.1/src/exe/rbdock.cxx#4 $)

>  <Rbt.Library>
libRbt.so (2013.1, Build901 2013/11/27)

>  <Rbt.Parameter_File>
/export/apps/rDock/src/rDock_2013.1_src/data/scripts/dock_solv.prm

>  <Rbt.Receptor>
prm/pocket_docking_4.prm

>  <SCORE>
-11.599

>  <SCORE.INTER>
-11.5988

>  <SCORE.INTER.CONST>
1

>  <SCORE.INTER.POLAR>
0

>  <SCORE.INTER.ROT>
7

>  <SCORE.INTER.SOLV>
12.7068

>  <SCORE.INTER.VDW>
-20.2348

>  <SCORE.INTER.norm>
-0.429586

>  <SCORE.INTRA>
-0.000209815

>  <SCORE.INTRA.DIHEDRAL>
0.465913

>  <SCORE.INTRA.DIHEDRAL.0>
8.34559

>  <SCORE.INTRA.POLAR>
0

>  <SCORE.INTRA.POLAR.0>
0

>  <SCORE.INTRA.REPUL>
0

>  <SCORE.INTRA.REPUL.0>
0

>  <SCORE.INTRA.SOLV>
0.125662

>  <SCORE.INTRA.SOLV.lig_0>
-48.829

>  <SCORE.INTRA.VDW>
-0.295997

>  <SCORE.INTRA.VDW.0>
-1.77092

>  <SCORE.INTRA.norm>
-7.77094e-06

>  <SCORE.RESTR>
0

>  <SCORE.RESTR.CAVITY>
0

>  <SCORE.RESTR.norm>
0

>  <SCORE.SYSTEM>
0

>  <SCORE.SYSTEM.CONST>
0

>  <SCORE.SYSTEM.DIHEDRAL>
0

>  <SCORE.SYSTEM.SOLV>
0

>  <SCORE.SYSTEM.norm>
0

>  <SCORE.heavy>
27

>  <SCORE.norm>
-0.429593

>  <RMSD>
5.267

$$$$
ligand
 OpenBabel02271912153D
libRbt.so/2013.1/901 2013/11/27
 27 29  0  0  0  0  0  0  0  0999 V2000
   49.3708  -26.1434 -103.4695 N   0  0  0  0  0  0  0  0  0  0  0  0
   48.6278  -25.7648 -104.6766 C   0  0  2  0  0  0  0  0  0  0  0  0
   49.5033  -24.8992 -105.5581 C   0  0  0  0  0  0  0  0  0  0  0  0
   50.3137  -24.1341 -105.0575 O   0  0  0  0  0  0  0  0  0  0  0  0
   47.3525  -24.9859 -104.3267 C   0  0  0  0  0  0  0  0  0  0  0  0
   46.4027  -25.8445 -103.5034 C   0  0  0  0  0  0  0  0  0  0  0  0
   45.7198  -27.2689 -104.4352 S   0  0  2  0  0  0  0  0  0  0  0  0
   44.1730  -26.6246 -105.1507 C   0  0  0  0  0  0  0  0  0  0  0  0
   45.0412  -28.1074 -103.0051 C   0  0  0  0  0  0  0  0  0  0  0  0
   44.3809  -29.4209 -103.3297 C   0  0  1  0  0  0  0  0  0  0  0  0
   45.3356  -30.2325 -104.0346 O   0  0  0  0  0  0  0  0  0  0  0  0
   44.2092  -30.0356 -101.9991 C   0  0  1  0  0  0  0  0  0  0  0  0
   42.8808  -29.8050 -101.5326 O   0  0  0  0  0  0  0  0  0  0  0  0
   44.4039  -31.4918 -102.2885 C   0  0  1  0  0  0  0  0  0  0  0  0
   43.1544  -32.0969 -102.6809 O   0  0  0  0  0  0  0  0  0  0  0  0
   45.4198  -31.5643 -103.4678 C   0  0  2  0  0  0  0  0  0  0  0  0
   49.4304  -24.9825 -106.7717 O   0  0  0  0  0  0  0  0  0  0  0  0
   49.5418  -30.6384 -100.2507 N   0  0  0  0  0  0  0  0  0  0  0  0
   48.2851  -30.1400 -100.1499 C   0  0  0  0  0  0  0  0  0  0  0  0
   47.3111  -30.4900 -101.0158 N   0  0  0  0  0  0  0  0  0  0  0  0
   47.5810  -31.2816 -102.0666 C   0  0  0  0  0  0  0  0  0  0  0  0
   48.9162  -31.8022 -102.2361 C   0  0  0  0  0  0  0  0  0  0  0  0
   49.9020  -31.4513 -101.2663 C   0  0  0  0  0  0  0  0  0  0  0  0
   51.1958  -31.9219 -101.3622 N   0  0  0  0  0  0  0  0  0  0  0  0
   48.9155  -32.5469 -103.3480 N   0  0  0  0  0  0  0  0  0  0  0  0
   47.7258  -32.5235 -103.8709 C   0  0  0  0  0  0  0  0  0  0  0  0
   46.8570  -31.7653 -103.1210 N   0  0  0  0  0  0  0  0  0  0  0  0
  2  1  1  1  0  0  0
  2  3  1  0  0  0  0
  2  5  1  0  0  0  0
  3  4  1  0  0  0  0
  3 17  1  0  0  0  0
  5  6  1  0  0  0  0
  7  6  1  1  0  0  0
  7  8  1  0  0  0  0
  7  9  1  0  0  0  0
 10  9  1  1  0  0  0
 10 11  1  0  0  0  0
 10 12  1  0  0  0  0
 11 16  1  0  0  0  0
 12 13  1  6  0  0  0
 12 14  1  0  0  0  0
 14 15  1  6  0  0  0
 14 16  1  0  0  0  0
 16 27  1  1  0  0  0
 18 19  2  0  0  0  0
 18 23  1  0  0  0  0
 19 20  1  0  0  0  0
 20 21  2  0  0  0  0
 21 22  1  0  0  0  0
 21 27  1  0  0  0  0
 22 23  2  0  0  0  0
 22 25  1  0  0  0  0
 23 24  1  0  0  0  0
 25 26  2  0  0  0  0
 26 27  1  0  0  0  0
M  END
>  <CHROM.1>
-33.52484830,-62.34368935,-66.57231453,-91.45154339,-178.41793243,54.79929295
76.98826293,46.98874901,-29.02252517,-103.21745889,-1.29371689,0.08317733
2.68614669

>  <Name>
ligand

>  <RI>
0

>  <Rbt.Current_Directory>
/home/itssahil/PROJECTS/Mol_Feturizer/Test_systems_manuscript/rnas/4l81

>  <Rbt.Executable>
rbdock ($Id: //depot/dev/client3/rdock/2013.1/src/exe/rbdock.cxx#4 $)

>  <Rbt.Library>
libRbt.so (2013.1, Build901 2013/11/27)

>  <Rbt.Parameter_File>
/export/apps/rDock/src/rDock_2013.1_src/data/scripts/dock_solv.prm

>  <Rbt.Receptor>
prm/pocket_docking_6.prm

>  <SCORE>
-16.1956

>  <SCORE.INTER>
-13.0596

>  <SCORE.INTER.CONST>
1

>  <SCORE.INTER.POLAR>
0

>  <SCORE.INTER.ROT>
7

>  <SCORE.INTER.SOLV>
14.1479

>  <SCORE.INTER.VDW>
-21.689

>  <SCORE.INTER.norm>
-0.48369

>  <SCORE.INTRA>
-3.13599

>  <SCORE.INTRA.DIHEDRAL>
-3.27605

>  <SCORE.INTRA.DIHEDRAL.0>
8.34559

>  <SCORE.INTRA.POLAR>
0

>  <SCORE.INTRA.POLAR.0>
0

>  <SCORE.INTRA.REPUL>
0

>  <SCORE.INTRA.REPUL.0>
0

>  <SCORE.INTRA.SOLV>
-0.0459442

>  <SCORE.INTRA.SOLV.lig_0>
-48.829

>  <SCORE.INTRA.VDW>
-1.47499

>  <SCORE.INTRA.VDW.0>
-1.77092

>  <SCORE.INTRA.norm>
-0.116148

>  <SCORE.RESTR>
0

>  <SCORE.RESTR.CAVITY>
0

>  <SCORE.RESTR.norm>
0

>  <SCORE.SYSTEM>
0

>  <SCORE.SYSTEM.CONST>
0

>  <SCORE.SYSTEM.DIHEDRAL>
0

>  <SCORE.SYSTEM.SOLV>
0

>  <SCORE.SYSTEM.norm>
0

>  <SCORE.heavy>
27

>  <SCORE.norm>
-0.599837

>  <RMSD>
5.271

$$$$
ligand
 OpenBabel02271912153D
libRbt.so/2013.1/901 2013/11/27
 27 29  0  0  0  0  0  0  0  0999 V2000
   44.7028  -30.5366 -102.7450 N   0  0  0  0  0  0  0  0  0  0  0  0
   44.9273  -29.3012 -103.5039 C   0  0  2  0  0  0  0  0  0  0  0  0
   44.7072  -29.5668 -104.9782 C   0  0  0  0  0  0  0  0  0  0  0  0
   45.2790  -30.4967 -105.5271 O   0  0  0  0  0  0  0  0  0  0  0  0
   46.3542  -28.7732 -103.3027 C   0  0  0  0  0  0  0  0  0  0  0  0
   46.5952  -28.4065 -101.8452 C   0  0  0  0  0  0  0  0  0  0  0  0
   46.7778  -29.8664 -100.7503 S   0  0  2  0  0  0  0  0  0  0  0  0
   46.3327  -29.2359  -99.0999 C   0  0  0  0  0  0  0  0  0  0  0  0
   48.5615  -29.7672 -100.6185 C   0  0  0  0  0  0  0  0  0  0  0  0
   49.2914  -30.4811 -101.7250 C   0  0  1  0  0  0  0  0  0  0  0  0
   49.0622  -29.7555 -102.9448 O   0  0  0  0  0  0  0  0  0  0  0  0
   50.7078  -30.2679 -101.3699 C   0  0  1  0  0  0  0  0  0  0  0  0
   51.2074  -31.4141 -100.6829 O   0  0  0  0  0  0  0  0  0  0  0  0
   51.3628  -30.1501 -102.7113 C   0  0  1  0  0  0  0  0  0  0  0  0
   51.7289  -31.4544 -103.2073 O   0  0  0  0  0  0  0  0  0  0  0  0
   50.3022  -29.5048 -103.6531 C   0  0  2  0  0  0  0  0  0  0  0  0
   43.9344  -28.8775 -105.6205 O   0  0  0  0  0  0  0  0  0  0  0  0
   49.7409  -25.2483 -106.7779 N   0  0  0  0  0  0  0  0  0  0  0  0
   49.5792  -26.5509 -107.1169 C   0  0  0  0  0  0  0  0  0  0  0  0
   49.7115  -27.5420 -106.2107 N   0  0  0  0  0  0  0  0  0  0  0  0
   50.0978  -27.2727 -104.9530 C   0  0  0  0  0  0  0  0  0  0  0  0
   50.3212  -25.9025 -104.5591 C   0  0  0  0  0  0  0  0  0  0  0  0
   50.1161  -24.8815 -105.5342 C   0  0  0  0  0  0  0  0  0  0  0  0
   50.3023  -23.5500 -105.2226 N   0  0  0  0  0  0  0  0  0  0  0  0
   50.6978  -25.9132 -103.2750 N   0  0  0  0  0  0  0  0  0  0  0  0
   50.7336  -27.1430 -102.8559 C   0  0  0  0  0  0  0  0  0  0  0  0
   50.3662  -28.0264 -103.8440 N   0  0  0  0  0  0  0  0  0  0  0  0
  2  1  1  1  0  0  0
  2  3  1  0  0  0  0
  2  5  1  0  0  0  0
  3  4  1  0  0  0  0
  3 17  1  0  0  0  0
  5  6  1  0  0  0  0
  7  6  1  6  0  0  0
  7  8  1  0  0  0  0
  7  9  1  0  0  0  0
 10  9  1  1  0  0  0
 10 11  1  0  0  0  0
 10 12  1  0  0  0  0
 11 16  1  0  0  0  0
 12 13  1  6  0  0  0
 12 14  1  0  0  0  0
 14 15  1  6  0  0  0
 14 16  1  0  0  0  0
 16 27  1  1  0  0  0
 18 19  2  0  0  0  0
 18 23  1  0  0  0  0
 19 20  1  0  0  0  0
 20 21  2  0  0  0  0
 21 22  1  0  0  0  0
 21 27  1  0  0  0  0
 22 23  2  0  0  0  0
 22 25  1  0  0  0  0
 23 24  1  0  0  0  0
 25 26  2  0  0  0  0
 26 27  1  0  0  0  0
M  END
>  <CHROM.1>
-51.72797635,-62.81151044,73.50337694,-156.39096875,-86.67511633,68.68165306
-101.72108312,48.51780609,-28.65881707,-103.33378963,2.19630631,0.19436502
2.30263116

>  <Name>
ligand

>  <RI>
0

>  <Rbt.Current_Directory>
/home/itssahil/PROJECTS/Mol_Feturizer/Test_systems_manuscript/rnas/4l81

>  <Rbt.Executable>
rbdock ($Id: //depot/dev/client3/rdock/2013.1/src/exe/rbdock.cxx#4 $)

>  <Rbt.Library>
libRbt.so (2013.1, Build901 2013/11/27)

>  <Rbt.Parameter_File>
/export/apps/rDock/src/rDock_2013.1_src/data/scripts/dock_solv.prm

>  <Rbt.Receptor>
prm/pocket_docking_5.prm

>  <SCORE>
-15.7833

>  <SCORE.INTER>
-14.6827

>  <SCORE.INTER.CONST>
1

>  <SCORE.INTER.POLAR>
0

>  <SCORE.INTER.ROT>
7

>  <SCORE.INTER.SOLV>
11.0483

>  <SCORE.INTER.VDW>
-21.7379

>  <SCORE.INTER.norm>
-0.543805

>  <SCORE.INTRA>
-1.10055

>  <SCORE.INTRA.DIHEDRAL>
-0.598379

>  <SCORE.INTRA.DIHEDRAL.0>
8.34559

>  <SCORE.INTRA.POLAR>
0

>  <SCORE.INTRA.POLAR.0>
0

>  <SCORE.INTRA.REPUL>
0

>  <SCORE.INTRA.REPUL.0>
0

>  <SCORE.INTRA.SOLV>
1.36726

>  <SCORE.INTRA.SOLV.lig_0>
-48.829

>  <SCORE.INTRA.VDW>
-1.48499

>  <SCORE.INTRA.VDW.0>
-1.77092

>  <SCORE.INTRA.norm>
-0.0407611

>  <SCORE.RESTR>
0

>  <SCORE.RESTR.CAVITY>
0

>  <SCORE.RESTR.norm>
0

>  <SCORE.SYSTEM>
0

>  <SCORE.SYSTEM.CONST>
0

>  <SCORE.SYSTEM.DIHEDRAL>
0

>  <SCORE.SYSTEM.SOLV>
0

>  <SCORE.SYSTEM.norm>
0

>  <SCORE.heavy>
27

>  <SCORE.norm>
-0.584566

>  <RMSD>
5.272

$$$$
ligand
 OpenBabel02271912153D
libRbt.so/2013.1/901 2013/11/27
 27 29  0  0  0  0  0  0  0  0999 V2000
   50.2456  -26.7733 -104.7297 N   0  0  0  0  0  0  0  0  0  0  0  0
   49.4221  -26.7719 -103.5154 C   0  0  2  0  0  0  0  0  0  0  0  0
   49.5729  -28.0985 -102.8011 C   0  0  0  0  0  0  0  0  0  0  0  0
   49.2324  -28.2097 -101.6330 O   0  0  0  0  0  0  0  0  0  0  0  0
   47.9395  -26.5523 -103.8457 C   0  0  0  0  0  0  0  0  0  0  0  0
   47.4353  -27.6194 -104.8071 C   0  0  0  0  0  0  0  0  0  0  0  0
   45.6064  -27.6816 -104.9277 S   0  0  2  0  0  0  0  0  0  0  0  0
   45.1132  -25.9306 -105.0292 C   0  0  0  0  0  0  0  0  0  0  0  0
   45.3225  -27.9537 -103.1801 C   0  0  0  0  0  0  0  0  0  0  0  0
   44.5143  -29.1887 -102.8827 C   0  0  1  0  0  0  0  0  0  0  0  0
   45.0781  -30.2767 -103.6345 O   0  0  0  0  0  0  0  0  0  0  0  0
   44.8306  -29.4501 -101.4652 C   0  0  1  0  0  0  0  0  0  0  0  0
   43.7978  -28.9173 -100.6376 O   0  0  0  0  0  0  0  0  0  0  0  0
   44.8159  -30.9461 -101.4016 C   0  0  1  0  0  0  0  0  0  0  0  0
   43.4791  -31.4245 -101.1462 O   0  0  0  0  0  0  0  0  0  0  0  0
   45.2967  -31.4411 -102.7987 C   0  0  2  0  0  0  0  0  0  0  0  0
   50.0032  -29.0725 -103.3936 O   0  0  0  0  0  0  0  0  0  0  0  0
   50.2598  -31.2931 -100.9162 N   0  0  0  0  0  0  0  0  0  0  0  0
   49.1483  -30.7484 -100.3632 C   0  0  0  0  0  0  0  0  0  0  0  0
   47.9305  -30.8951 -100.9259 N   0  0  0  0  0  0  0  0  0  0  0  0
   47.7931  -31.5159 -102.1088 C   0  0  0  0  0  0  0  0  0  0  0  0
   48.9564  -32.0754 -102.7539 C   0  0  0  0  0  0  0  0  0  0  0  0
   50.2162  -31.9457 -102.0970 C   0  0  0  0  0  0  0  0  0  0  0  0
   51.3673  -32.4659 -102.6530 N   0  0  0  0  0  0  0  0  0  0  0  0
   48.5489  -32.6247 -103.9041 N   0  0  0  0  0  0  0  0  0  0  0  0
   47.2668  -32.4484 -104.0250 C   0  0  0  0  0  0  0  0  0  0  0  0
   46.7430  -31.7771 -102.9449 N   0  0  0  0  0  0  0  0  0  0  0  0
  2  1  1  6  0  0  0
  2  3  1  0  0  0  0
  2  5  1  0  0  0  0
  3  4  1  0  0  0  0
  3 17  1  0  0  0  0
  5  6  1  0  0  0  0
  7  6  1  1  0  0  0
  7  8  1  0  0  0  0
  7  9  1  0  0  0  0
 10  9  1  6  0  0  0
 10 11  1  0  0  0  0
 10 12  1  0  0  0  0
 11 16  1  0  0  0  0
 12 13  1  1  0  0  0
 12 14  1  0  0  0  0
 14 15  1  6  0  0  0
 14 16  1  0  0  0  0
 16 27  1  1  0  0  0
 18 19  2  0  0  0  0
 18 23  1  0  0  0  0
 19 20  1  0  0  0  0
 20 21  2  0  0  0  0
 21 22  1  0  0  0  0
 21 27  1  0  0  0  0
 22 23  2  0  0  0  0
 22 25  1  0  0  0  0
 23 24  1  0  0  0  0
 25 26  2  0  0  0  0
 26 27  1  0  0  0  0
M  END
>  <CHROM.1>
163.14503360,57.56025878,165.75448946,43.71527657,-124.07128971,48.18729631
101.03091872,47.26503860,-29.62980933,-102.86602456,-0.60600570,0.07050189
-0.46247618

>  <Name>
ligand

>  <RI>
0

>  <Rbt.Current_Directory>
/home/itssahil/PROJECTS/Mol_Feturizer/Test_systems_manuscript/rnas/4l81

>  <Rbt.Executable>
rbdock ($Id: //depot/dev/client3/rdock/2013.1/src/exe/rbdock.cxx#4 $)

>  <Rbt.Library>
libRbt.so (2013.1, Build901 2013/11/27)

>  <Rbt.Parameter_File>
/export/apps/rDock/src/rDock_2013.1_src/data/scripts/dock_solv.prm

>  <Rbt.Receptor>
prm/pocket_docking_3.prm

>  <SCORE>
-11.2253

>  <SCORE.INTER>
-10.0894

>  <SCORE.INTER.CONST>
1

>  <SCORE.INTER.POLAR>
0

>  <SCORE.INTER.ROT>
7

>  <SCORE.INTER.SOLV>
14.2739

>  <SCORE.INTER.VDW>
-19.7509

>  <SCORE.INTER.norm>
-0.37368

>  <SCORE.INTRA>
-1.13592

>  <SCORE.INTRA.DIHEDRAL>
0.588007

>  <SCORE.INTRA.DIHEDRAL.0>
8.34559

>  <SCORE.INTRA.POLAR>
0

>  <SCORE.INTRA.POLAR.0>
0

>  <SCORE.INTRA.REPUL>
0

>  <SCORE.INTRA.REPUL.0>
0

>  <SCORE.INTRA.SOLV>
-0.300942

>  <SCORE.INTRA.SOLV.lig_0>
-48.829

>  <SCORE.INTRA.VDW>
-1.27945

>  <SCORE.INTRA.VDW.0>
-1.77092

>  <SCORE.INTRA.norm>
-0.042071

>  <SCORE.RESTR>
0

>  <SCORE.RESTR.CAVITY>
0

>  <SCORE.RESTR.norm>
0

>  <SCORE.SYSTEM>
0

>  <SCORE.SYSTEM.CONST>
0

>  <SCORE.SYSTEM.DIHEDRAL>
0

>  <SCORE.SYSTEM.SOLV>
0

>  <SCORE.SYSTEM.norm>
0

>  <SCORE.heavy>
27

>  <SCORE.norm>
-0.415751

>  <RMSD>
5.278

$$$$
ligand
 OpenBabel02271912153D
libRbt.so/2013.1/901 2013/11/27
 27 29  0  0  0  0  0  0  0  0999 V2000
   50.2655  -24.6939 -103.2513 N   0  0  0  0  0  0  0  0  0  0  0  0
   48.8436  -24.5271 -103.5722 C   0  0  2  0  0  0  0  0  0  0  0  0
   48.2174  -23.5501 -102.5995 C   0  0  0  0  0  0  0  0  0  0  0  0
   47.8691  -23.9253 -101.4902 O   0  0  0  0  0  0  0  0  0  0  0  0
   48.0912  -25.8620 -103.4877 C   0  0  0  0  0  0  0  0  0  0  0  0
   46.6327  -25.6875 -103.8869 C   0  0  0  0  0  0  0  0  0  0  0  0
   45.8295  -27.2532 -104.4035 S   0  0  2  0  0  0  0  0  0  0  0  0
   44.1166  -26.7631 -104.7845 C   0  0  0  0  0  0  0  0  0  0  0  0
   45.5808  -27.8809 -102.7443 C   0  0  0  0  0  0  0  0  0  0  0  0
   44.6003  -29.0209 -102.6685 C   0  0  1  0  0  0  0  0  0  0  0  0
   45.0438  -30.0454 -103.5744 O   0  0  0  0  0  0  0  0  0  0  0  0
   44.8158  -29.5443 -101.3056 C   0  0  1  0  0  0  0  0  0  0  0  0
   43.8295  -29.0083 -100.4251 O   0  0  0  0  0  0  0  0  0  0  0  0
   44.5957  -31.0144 -101.4857 C   0  0  1  0  0  0  0  0  0  0  0  0
   43.1964  -31.3339 -101.3400 O   0  0  0  0  0  0  0  0  0  0  0  0
   45.0656  -31.3459 -102.9339 C   0  0  2  0  0  0  0  0  0  0  0  0
   48.0864  -22.3770 -102.9021 O   0  0  0  0  0  0  0  0  0  0  0  0
   50.1348  -31.4621 -101.3566 N   0  0  0  0  0  0  0  0  0  0  0  0
   49.1232  -30.7242 -100.8371 C   0  0  0  0  0  0  0  0  0  0  0  0
   47.8616  -30.8191 -101.3066 N   0  0  0  0  0  0  0  0  0  0  0  0
   47.5832  -31.5891 -102.3711 C   0  0  0  0  0  0  0  0  0  0  0  0
   48.6386  -32.3608 -102.9818 C   0  0  0  0  0  0  0  0  0  0  0  0
   49.9466  -32.2733 -102.4190 C   0  0  0  0  0  0  0  0  0  0  0  0
   50.9998  -32.9919 -102.9473 N   0  0  0  0  0  0  0  0  0  0  0  0
   48.1014  -33.0262 -104.0111 N   0  0  0  0  0  0  0  0  0  0  0  0
   46.8380  -32.7314 -104.0911 C   0  0  0  0  0  0  0  0  0  0  0  0
   46.4581  -31.8551 -103.1014 N   0  0  0  0  0  0  0  0  0  0  0  0
  2  1  1  1  0  0  0
  2  3  1  0  0  0  0
  2  5  1  0  0  0  0
  3  4  1  0  0  0  0
  3 17  1  0  0  0  0
  5  6  1  0  0  0  0
  7  6  1  1  0  0  0
  7  8  1  0  0  0  0
  7  9  1  0  0  0  0
 10  9  1  1  0  0  0
 10 11  1  0  0  0  0
 10 12  1  0  0  0  0
 11 16  1  0  0  0  0
 12 13  1  1  0  0  0
 12 14  1  0  0  0  0
 14 15  1  6  0  0  0
 14 16  1  0  0  0  0
 16 27  1  1  0  0  0
 18 19  2  0  0  0  0
 18 23  1  0  0  0  0
 19 20  1  0  0  0  0
 20 21  2  0  0  0  0
 21 22  1  0  0  0  0
 21 27  1  0  0  0  0
 22 23  2  0  0  0  0
 22 25  1  0  0  0  0
 23 24  1  0  0  0  0
 25 26  2  0  0  0  0
 26 27  1  0  0  0  0
M  END
>  <CHROM.1>
-81.17032541,-177.30030797,158.95342828,178.86987664,164.44877475,54.95442528
82.24078775,46.92686385,-28.84608934,-102.75130717,-1.52357119,-0.01351958
3.05783760

>  <Name>
ligand

>  <RI>
0

>  <Rbt.Current_Directory>
/home/itssahil/PROJECTS/Mol_Feturizer/Test_systems_manuscript/rnas/4l81

>  <Rbt.Executable>
rbdock ($Id: //depot/dev/client3/rdock/2013.1/src/exe/rbdock.cxx#4 $)

>  <Rbt.Library>
libRbt.so (2013.1, Build901 2013/11/27)

>  <Rbt.Parameter_File>
/export/apps/rDock/src/rDock_2013.1_src/data/scripts/dock_solv.prm

>  <Rbt.Receptor>
prm/pocket_docking_7.prm

>  <SCORE>
-17.5292

>  <SCORE.INTER>
-15.1565

>  <SCORE.INTER.CONST>
1

>  <SCORE.INTER.POLAR>
0

>  <SCORE.INTER.ROT>
7

>  <SCORE.INTER.SOLV>
15.595

>  <SCORE.INTER.VDW>
-23.5693

>  <SCORE.INTER.norm>
-0.561351

>  <SCORE.INTRA>
-2.37273

>  <SCORE.INTRA.DIHEDRAL>
-3.13079

>  <SCORE.INTRA.DIHEDRAL.0>
8.34559

>  <SCORE.INTRA.POLAR>
0

>  <SCORE.INTRA.POLAR.0>
0

>  <SCORE.INTRA.REPUL>
0

>  <SCORE.INTRA.REPUL.0>
0

>  <SCORE.INTRA.SOLV>
-1.27576

>  <SCORE.INTRA.SOLV.lig_0>
-48.829

>  <SCORE.INTRA.VDW>
-0.169457

>  <SCORE.INTRA.VDW.0>
-1.77092

>  <SCORE.INTRA.norm>
-0.0878789

>  <SCORE.RESTR>
0

>  <SCORE.RESTR.CAVITY>
0

>  <SCORE.RESTR.norm>
0

>  <SCORE.SYSTEM>
0

>  <SCORE.SYSTEM.CONST>
0

>  <SCORE.SYSTEM.DIHEDRAL>
0

>  <SCORE.SYSTEM.SOLV>
0

>  <SCORE.SYSTEM.norm>
0

>  <SCORE.heavy>
27

>  <SCORE.norm>
-0.64923

>  <RMSD>
5.278

$$$$
ligand
 OpenBabel02271912153D
libRbt.so/2013.1/901 2013/11/27
 27 29  0  0  0  0  0  0  0  0999 V2000
   48.1140  -23.1120 -103.4666 N   0  0  0  0  0  0  0  0  0  0  0  0
   48.5953  -24.0463 -104.4903 C   0  0  2  0  0  0  0  0  0  0  0  0
   49.0832  -23.2688 -105.6946 C   0  0  0  0  0  0  0  0  0  0  0  0
   50.0868  -23.6274 -106.2921 O   0  0  0  0  0  0  0  0  0  0  0  0
   47.4847  -25.0069 -104.9368 C   0  0  0  0  0  0  0  0  0  0  0  0
   47.0524  -25.9062 -103.7874 C   0  0  0  0  0  0  0  0  0  0  0  0
   45.9907  -27.3037 -104.3193 S   0  0  2  0  0  0  0  0  0  0  0  0
   44.3995  -26.5158 -104.7276 C   0  0  0  0  0  0  0  0  0  0  0  0
   45.6067  -27.8743 -102.6653 C   0  0  0  0  0  0  0  0  0  0  0  0
   44.6135  -29.0053 -102.6299 C   0  0  1  0  0  0  0  0  0  0  0  0
   45.0610  -30.0145 -103.5509 O   0  0  0  0  0  0  0  0  0  0  0  0
   44.8018  -29.5604 -101.2756 C   0  0  1  0  0  0  0  0  0  0  0  0
   43.8070  -29.0333 -100.3992 O   0  0  0  0  0  0  0  0  0  0  0  0
   44.5696  -31.0238 -101.4912 C   0  0  1  0  0  0  0  0  0  0  0  0
   43.1650  -31.3317 -101.3746 O   0  0  0  0  0  0  0  0  0  0  0  0
   45.0593  -31.3287 -102.9387 C   0  0  2  0  0  0  0  0  0  0  0  0
   48.4618  -22.3009 -106.0969 O   0  0  0  0  0  0  0  0  0  0  0  0
   50.1228  -31.4568 -101.3440 N   0  0  0  0  0  0  0  0  0  0  0  0
   49.1142  -30.7060 -100.8371 C   0  0  0  0  0  0  0  0  0  0  0  0
   47.8535  -30.7989 -101.3094 N   0  0  0  0  0  0  0  0  0  0  0  0
   47.5736  -31.5806 -102.3648 C   0  0  0  0  0  0  0  0  0  0  0  0
   48.6259  -32.3667 -102.9624 C   0  0  0  0  0  0  0  0  0  0  0  0
   49.9327  -32.2803 -102.3965 C   0  0  0  0  0  0  0  0  0  0  0  0
   50.9830  -33.0122 -102.9123 N   0  0  0  0  0  0  0  0  0  0  0  0
   48.0876  -33.0418 -103.9848 N   0  0  0  0  0  0  0  0  0  0  0  0
   46.8264  -32.7400 -104.0725 C   0  0  0  0  0  0  0  0  0  0  0  0
   46.4490  -31.8488 -103.0953 N   0  0  0  0  0  0  0  0  0  0  0  0
  2  1  1  1  0  0  0
  2  3  1  0  0  0  0
  2  5  1  0  0  0  0
  3  4  1  0  0  0  0
  3 17  1  0  0  0  0
  5  6  1  0  0  0  0
  7  6  1  1  0  0  0
  7  8  1  0  0  0  0
  7  9  1  0  0  0  0
 10  9  1  1  0  0  0
 10 11  1  0  0  0  0
 10 12  1  0  0  0  0
 11 16  1  0  0  0  0
 12 13  1  1  0  0  0
 12 14  1  0  0  0  0
 14 15  1  6  0  0  0
 14 16  1  0  0  0  0
 16 27  1  1  0  0  0
 18 19  2  0  0  0  0
 18 23  1  0  0  0  0
 19 20  1  0  0  0  0
 20 21  2  0  0  0  0
 21 22  1  0  0  0  0
 21 27  1  0  0  0  0
 22 23  2  0  0  0  0
 22 25  1  0  0  0  0
 23 24  1  0  0  0  0
 25 26  2  0  0  0  0
 26 27  1  0  0  0  0
M  END
>  <CHROM.1>
140.61162067,-64.59946383,-167.98322225,-72.22789072,175.13232811,50.15809332
80.11876703,46.98615884,-28.72024305,-103.24182237,-1.43358722,-0.21877405
2.82296353

>  <Name>
ligand

>  <RI>
0

>  <Rbt.Current_Directory>
/home/itssahil/PROJECTS/Mol_Feturizer/Test_systems_manuscript/rnas/4l81

>  <Rbt.Executable>
rbdock ($Id: //depot/dev/client3/rdock/2013.1/src/exe/rbdock.cxx#4 $)

>  <Rbt.Library>
libRbt.so (2013.1, Build901 2013/11/27)

>  <Rbt.Parameter_File>
/export/apps/rDock/src/rDock_2013.1_src/data/scripts/dock_solv.prm

>  <Rbt.Receptor>
prm/pocket_docking_7.prm

>  <SCORE>
-15.1934

>  <SCORE.INTER>
-11.7074

>  <SCORE.INTER.CONST>
1

>  <SCORE.INTER.POLAR>
0

>  <SCORE.INTER.ROT>
7

>  <SCORE.INTER.SOLV>
13.1813

>  <SCORE.INTER.VDW>
-20.4654

>  <SCORE.INTER.norm>
-0.433608

>  <SCORE.INTRA>
-3.48598

>  <SCORE.INTRA.DIHEDRAL>
-4.18607

>  <SCORE.INTRA.DIHEDRAL.0>
8.34559

>  <SCORE.INTRA.POLAR>
0

>  <SCORE.INTRA.POLAR.0>
0

>  <SCORE.INTRA.REPUL>
0

>  <SCORE.INTRA.REPUL.0>
0

>  <SCORE.INTRA.SOLV>
-0.618717

>  <SCORE.INTRA.SOLV.lig_0>
-48.829

>  <SCORE.INTRA.VDW>
-1.08358

>  <SCORE.INTRA.VDW.0>
-1.77092

>  <SCORE.INTRA.norm>
-0.12911

>  <SCORE.RESTR>
0

>  <SCORE.RESTR.CAVITY>
0

>  <SCORE.RESTR.norm>
0

>  <SCORE.SYSTEM>
0

>  <SCORE.SYSTEM.CONST>
0

>  <SCORE.SYSTEM.DIHEDRAL>
0

>  <SCORE.SYSTEM.SOLV>
0

>  <SCORE.SYSTEM.norm>
0

>  <SCORE.heavy>
27

>  <SCORE.norm>
-0.562718

>  <RMSD>
5.278

$$$$
ligand
 OpenBabel02271912153D
libRbt.so/2013.1/901 2013/11/27
 27 29  0  0  0  0  0  0  0  0999 V2000
   47.3878  -26.4356 -110.0371 N   0  0  0  0  0  0  0  0  0  0  0  0
   47.7840  -26.2327 -108.6391 C   0  0  2  0  0  0  0  0  0  0  0  0
   48.7150  -27.3475 -108.2110 C   0  0  0  0  0  0  0  0  0  0  0  0
   48.6336  -28.4499 -108.7314 O   0  0  0  0  0  0  0  0  0  0  0  0
   46.5638  -26.2207 -107.7084 C   0  0  0  0  0  0  0  0  0  0  0  0
   46.9413  -25.7034 -106.3275 C   0  0  0  0  0  0  0  0  0  0  0  0
   45.6645  -26.0366 -105.0538 S   0  0  2  0  0  0  0  0  0  0  0  0
   46.4603  -25.5363 -103.4931 C   0  0  0  0  0  0  0  0  0  0  0  0
   45.9574  -27.8016 -104.9666 C   0  0  0  0  0  0  0  0  0  0  0  0
   44.9174  -28.5499 -104.1759 C   0  0  1  0  0  0  0  0  0  0  0  0
   44.9446  -29.9234 -104.5998 O   0  0  0  0  0  0  0  0  0  0  0  0
   45.4684  -28.5225 -102.8072 C   0  0  1  0  0  0  0  0  0  0  0  0
   44.8622  -27.4637 -102.0677 O   0  0  0  0  0  0  0  0  0  0  0  0
   45.0325  -29.8452 -102.2570 C   0  0  1  0  0  0  0  0  0  0  0  0
   43.7139  -29.7393 -101.6814 O   0  0  0  0  0  0  0  0  0  0  0  0
   45.0038  -30.8265 -103.4671 C   0  0  2  0  0  0  0  0  0  0  0  0
   49.5728  -27.1457 -107.3694 O   0  0  0  0  0  0  0  0  0  0  0  0
   48.1562  -33.5600 -106.7516 N   0  0  0  0  0  0  0  0  0  0  0  0
   47.0102  -32.9044 -107.0593 C   0  0  0  0  0  0  0  0  0  0  0  0
   46.3203  -32.2075 -106.1322 N   0  0  0  0  0  0  0  0  0  0  0  0
   46.7033  -32.2148 -104.8450 C   0  0  0  0  0  0  0  0  0  0  0  0
   47.8952  -32.9342 -104.4652 C   0  0  0  0  0  0  0  0  0  0  0  0
   48.6250  -33.6115 -105.4869 C   0  0  0  0  0  0  0  0  0  0  0  0
   49.7788  -34.3104 -105.1951 N   0  0  0  0  0  0  0  0  0  0  0  0
   48.0459  -32.7863 -103.1437 N   0  0  0  0  0  0  0  0  0  0  0  0
   47.0681  -32.0626 -102.6858 C   0  0  0  0  0  0  0  0  0  0  0  0
   46.2116  -31.6739 -103.6893 N   0  0  0  0  0  0  0  0  0  0  0  0
  2  1  1  6  0  0  0
  2  3  1  0  0  0  0
  2  5  1  0  0  0  0
  3  4  1  0  0  0  0
  3 17  1  0  0  0  0
  5  6  1  0  0  0  0
  7  6  1  6  0  0  0
  7  8  1  0  0  0  0
  7  9  1  0  0  0  0
 10  9  1  6  0  0  0
 10 11  1  0  0  0  0
 10 12  1  0  0  0  0
 11 16  1  0  0  0  0
 12 13  1  1  0  0  0
 12 14  1  0  0  0  0
 14 15  1  6  0  0  0
 14 16  1  0  0  0  0
 16 27  1  6  0  0  0
 18 19  2  0  0  0  0
 18 23  1  0  0  0  0
 19 20  1  0  0  0  0
 20 21  2  0  0  0  0
 21 22  1  0  0  0  0
 21 27  1  0  0  0  0
 22 23  2  0  0  0  0
 22 25  1  0  0  0  0
 23 24  1  0  0  0  0
 25 26  2  0  0  0  0
 26 27  1  0  0  0  0
M  END
>  <CHROM.1>
-28.44273711,-167.21759856,-165.91695982,172.36169269,-169.62896889,157.77814954
-39.13914414,46.71710827,-29.36874881,-105.20808018,-1.62982895,-0.96829931
2.72498750

>  <Name>
ligand

>  <RI>
0

>  <Rbt.Current_Directory>
/home/itssahil/PROJECTS/Mol_Feturizer/Test_systems_manuscript/rnas/4l81

>  <Rbt.Executable>
rbdock ($Id: //depot/dev/client3/rdock/2013.1/src/exe/rbdock.cxx#4 $)

>  <Rbt.Library>
libRbt.so (2013.1, Build901 2013/11/27)

>  <Rbt.Parameter_File>
/export/apps/rDock/src/rDock_2013.1_src/data/scripts/dock_solv.prm

>  <Rbt.Receptor>
prm/pocket_docking_5.prm

>  <SCORE>
-10.0807

>  <SCORE.INTER>
-8.97433

>  <SCORE.INTER.CONST>
1

>  <SCORE.INTER.POLAR>
0

>  <SCORE.INTER.ROT>
7

>  <SCORE.INTER.SOLV>
14.1296

>  <SCORE.INTER.VDW>
-18.9594

>  <SCORE.INTER.norm>
-0.332383

>  <SCORE.INTRA>
-1.10639

>  <SCORE.INTRA.DIHEDRAL>
-1.2983

>  <SCORE.INTRA.DIHEDRAL.0>
8.34559

>  <SCORE.INTRA.POLAR>
0

>  <SCORE.INTRA.POLAR.0>
0

>  <SCORE.INTRA.REPUL>
0

>  <SCORE.INTRA.REPUL.0>
0

>  <SCORE.INTRA.SOLV>
-0.960397

>  <SCORE.INTRA.SOLV.lig_0>
-48.829

>  <SCORE.INTRA.VDW>
0.02296

>  <SCORE.INTRA.VDW.0>
-1.77092

>  <SCORE.INTRA.norm>
-0.0409773

>  <SCORE.RESTR>
0

>  <SCORE.RESTR.CAVITY>
0

>  <SCORE.RESTR.norm>
0

>  <SCORE.SYSTEM>
0

>  <SCORE.SYSTEM.CONST>
0

>  <SCORE.SYSTEM.DIHEDRAL>
0

>  <SCORE.SYSTEM.SOLV>
0

>  <SCORE.SYSTEM.norm>
0

>  <SCORE.heavy>
27

>  <SCORE.norm>
-0.37336

>  <RMSD>
5.290

$$$$
ligand
 OpenBabel02271912153D
libRbt.so/2013.1/901 2013/11/27
 27 29  0  0  0  0  0  0  0  0999 V2000
   49.2000  -25.7630 -104.1584 N   0  0  0  0  0  0  0  0  0  0  0  0
   48.4201  -26.3275 -103.0511 C   0  0  2  0  0  0  0  0  0  0  0  0
   49.0444  -27.6338 -102.6079 C   0  0  0  0  0  0  0  0  0  0  0  0
   49.6332  -28.3383 -103.4141 O   0  0  0  0  0  0  0  0  0  0  0  0
   46.9663  -26.5888 -103.4676 C   0  0  0  0  0  0  0  0  0  0  0  0
   46.9069  -27.5166 -104.6728 C   0  0  0  0  0  0  0  0  0  0  0  0
   45.2004  -27.8176 -105.2734 S   0  0  2  0  0  0  0  0  0  0  0  0
   44.4421  -26.1610 -105.2900 C   0  0  0  0  0  0  0  0  0  0  0  0
   44.5617  -28.4044 -103.7060 C   0  0  0  0  0  0  0  0  0  0  0  0
   44.0290  -29.8117 -103.7576 C   0  0  1  0  0  0  0  0  0  0  0  0
   45.0706  -30.6592 -104.2713 O   0  0  0  0  0  0  0  0  0  0  0  0
   43.8762  -30.1534 -102.3301 C   0  0  1  0  0  0  0  0  0  0  0  0
   42.5204  -29.9553 -101.9326 O   0  0  0  0  0  0  0  0  0  0  0  0
   44.2065  -31.6138 -102.3105 C   0  0  1  0  0  0  0  0  0  0  0  0
   43.0265  -32.3989 -102.5798 O   0  0  0  0  0  0  0  0  0  0  0  0
   45.2566  -31.8329 -103.4407 C   0  0  2  0  0  0  0  0  0  0  0  0
   48.9937  -27.9766 -101.4396 O   0  0  0  0  0  0  0  0  0  0  0  0
   49.0759  -30.4626 -100.0153 N   0  0  0  0  0  0  0  0  0  0  0  0
   47.7533  -30.1753  -99.9385 C   0  0  0  0  0  0  0  0  0  0  0  0
   46.8750  -30.6221 -100.8604 N   0  0  0  0  0  0  0  0  0  0  0  0
   47.3003  -31.2973 -101.9405 C   0  0  0  0  0  0  0  0  0  0  0  0
   48.7061  -31.5901 -102.0841 C   0  0  0  0  0  0  0  0  0  0  0  0
   49.5926  -31.1467 -101.0580 C   0  0  0  0  0  0  0  0  0  0  0  0
   50.9473  -31.4011 -101.1270 N   0  0  0  0  0  0  0  0  0  0  0  0
   48.8588  -32.2580 -103.2336 N   0  0  0  0  0  0  0  0  0  0  0  0
   47.6974  -32.3912 -103.8018 C   0  0  0  0  0  0  0  0  0  0  0  0
   46.6960  -31.8253 -103.0478 N   0  0  0  0  0  0  0  0  0  0  0  0
  2  1  1  6  0  0  0
  2  3  1  0  0  0  0
  2  5  1  0  0  0  0
  3  4  1  0  0  0  0
  3 17  1  0  0  0  0
  5  6  1  0  0  0  0
  7  6  1  1  0  0  0
  7  8  1  0  0  0  0
  7  9  1  0  0  0  0
 10  9  1  1  0  0  0
 10 11  1  0  0  0  0
 10 12  1  0  0  0  0
 11 16  1  0  0  0  0
 12 13  1  6  0  0  0
 12 14  1  0  0  0  0
 14 15  1  6  0  0  0
 14 16  1  0  0  0  0
 16 27  1  1  0  0  0
 18 19  2  0  0  0  0
 18 23  1  0  0  0  0
 19 20  1  0  0  0  0
 20 21  2  0  0  0  0
 21 22  1  0  0  0  0
 21 27  1  0  0  0  0
 22 23  2  0  0  0  0
 22 25  1  0  0  0  0
 23 24  1  0  0  0  0
 25 26  2  0  0  0  0
 26 27  1  0  0  0  0
M  END
>  <CHROM.1>
-30.77296956,57.18407492,-177.52555260,45.37222774,-119.88814242,54.86957414
92.67472913,46.71380477,-29.58150834,-102.91612844,-0.27933538,-0.29075790
-0.44658623

>  <Name>
ligand

>  <RI>
0

>  <Rbt.Current_Directory>
/home/itssahil/PROJECTS/Mol_Feturizer/Test_systems_manuscript/rnas/4l81

>  <Rbt.Executable>
rbdock ($Id: //depot/dev/client3/rdock/2013.1/src/exe/rbdock.cxx#4 $)

>  <Rbt.Library>
libRbt.so (2013.1, Build901 2013/11/27)

>  <Rbt.Parameter_File>
/export/apps/rDock/src/rDock_2013.1_src/data/scripts/dock_solv.prm

>  <Rbt.Receptor>
prm/pocket_docking_3.prm

>  <SCORE>
-15.1168

>  <SCORE.INTER>
-13.4759

>  <SCORE.INTER.CONST>
1

>  <SCORE.INTER.POLAR>
0

>  <SCORE.INTER.ROT>
7

>  <SCORE.INTER.SOLV>
15.1046

>  <SCORE.INTER.VDW>
-22.2854

>  <SCORE.INTER.norm>
-0.499106

>  <SCORE.INTRA>
-1.64099

>  <SCORE.INTRA.DIHEDRAL>
-0.53959

>  <SCORE.INTRA.DIHEDRAL.0>
8.34559

>  <SCORE.INTRA.POLAR>
0

>  <SCORE.INTRA.POLAR.0>
0

>  <SCORE.INTRA.REPUL>
0

>  <SCORE.INTRA.REPUL.0>
0

>  <SCORE.INTRA.SOLV>
-0.509332

>  <SCORE.INTRA.SOLV.lig_0>
-48.829

>  <SCORE.INTRA.VDW>
-1.11653

>  <SCORE.INTRA.VDW.0>
-1.77092

>  <SCORE.INTRA.norm>
-0.0607775

>  <SCORE.RESTR>
0

>  <SCORE.RESTR.CAVITY>
0

>  <SCORE.RESTR.norm>
0

>  <SCORE.SYSTEM>
0

>  <SCORE.SYSTEM.CONST>
0

>  <SCORE.SYSTEM.DIHEDRAL>
0

>  <SCORE.SYSTEM.SOLV>
0

>  <SCORE.SYSTEM.norm>
0

>  <SCORE.heavy>
27

>  <SCORE.norm>
-0.559883

>  <RMSD>
5.292

$$$$
ligand
 OpenBabel02271912153D
libRbt.so/2013.1/901 2013/11/27
 27 29  0  0  0  0  0  0  0  0999 V2000
   49.4223  -22.9422 -102.3737 N   0  0  0  0  0  0  0  0  0  0  0  0
   50.0878  -23.8071 -103.3543 C   0  0  2  0  0  0  0  0  0  0  0  0
   50.5792  -22.9692 -104.5159 C   0  0  0  0  0  0  0  0  0  0  0  0
   51.1806  -23.4939 -105.4409 O   0  0  0  0  0  0  0  0  0  0  0  0
   49.1336  -24.8840 -103.8883 C   0  0  0  0  0  0  0  0  0  0  0  0
   48.7161  -25.8367 -102.7770 C   0  0  0  0  0  0  0  0  0  0  0  0
   47.5101  -27.1055 -103.3239 S   0  0  2  0  0  0  0  0  0  0  0  0
   45.9494  -26.1817 -103.4981 C   0  0  0  0  0  0  0  0  0  0  0  0
   47.2421  -27.8079 -101.6980 C   0  0  0  0  0  0  0  0  0  0  0  0
   46.0083  -28.6657 -101.6044 C   0  0  1  0  0  0  0  0  0  0  0  0
   46.0235  -29.5828 -102.7115 O   0  0  0  0  0  0  0  0  0  0  0  0
   46.2617  -29.4677 -100.3919 C   0  0  1  0  0  0  0  0  0  0  0  0
   45.5929  -28.8774  -99.2785 O   0  0  0  0  0  0  0  0  0  0  0  0
   45.6255  -30.7795 -100.7336 C   0  0  1  0  0  0  0  0  0  0  0  0
   44.2270  -30.7663 -100.3796 O   0  0  0  0  0  0  0  0  0  0  0  0
   45.7791  -30.9437 -102.2755 C   0  0  2  0  0  0  0  0  0  0  0  0
   50.3504  -21.7729 -104.5536 O   0  0  0  0  0  0  0  0  0  0  0  0
   50.9347  -32.1875 -102.0089 N   0  0  0  0  0  0  0  0  0  0  0  0
   50.2690  -31.2575 -101.2810 C   0  0  0  0  0  0  0  0  0  0  0  0
   48.9399  -31.0673 -101.4172 N   0  0  0  0  0  0  0  0  0  0  0  0
   48.2443  -31.7383 -102.3497 C   0  0  0  0  0  0  0  0  0  0  0  0
   48.9211  -32.7090 -103.1755 C   0  0  0  0  0  0  0  0  0  0  0  0
   50.3158  -32.9182 -102.9602 C   0  0  0  0  0  0  0  0  0  0  0  0
   51.0226  -33.8382 -103.7077 N   0  0  0  0  0  0  0  0  0  0  0  0
   48.0124  -33.2224 -104.0131 N   0  0  0  0  0  0  0  0  0  0  0  0
   46.8633  -32.6588 -103.7864 C   0  0  0  0  0  0  0  0  0  0  0  0
   46.9418  -31.7398 -102.7661 N   0  0  0  0  0  0  0  0  0  0  0  0
  2  1  1  1  0  0  0
  2  3  1  0  0  0  0
  2  5  1  0  0  0  0
  3  4  1  0  0  0  0
  3 17  1  0  0  0  0
  5  6  1  0  0  0  0
  7  6  1  1  0  0  0
  7  8  1  0  0  0  0
  7  9  1  0  0  0  0
 10  9  1  6  0  0  0
 10 11  1  0  0  0  0
 10 12  1  0  0  0  0
 11 16  1  0  0  0  0
 12 13  1  1  0  0  0
 12 14  1  0  0  0  0
 14 15  1  6  0  0  0
 14 16  1  0  0  0  0
 16 27  1  1  0  0  0
 18 19  2  0  0  0  0
 18 23  1  0  0  0  0
 19 20  1  0  0  0  0
 20 21  2  0  0  0  0
 21 22  1  0  0  0  0
 21 27  1  0  0  0  0
 22 23  2  0  0  0  0
 22 25  1  0  0  0  0
 23 24  1  0  0  0  0
 25 26  2  0  0  0  0
 26 27  1  0  0  0  0
M  END
>  <CHROM.1>
179.04987370,-64.63171044,177.23985776,-73.87301341,163.77518482,48.79936628
70.73670005,48.08667549,-28.66628159,-102.63406415,1.32464317,0.47156489
-0.08732484

>  <Name>
ligand

>  <RI>
0

>  <Rbt.Current_Directory>
/home/itssahil/PROJECTS/Mol_Feturizer/Test_systems_manuscript/rnas/4l81

>  <Rbt.Executable>
rbdock ($Id: //depot/dev/client3/rdock/2013.1/src/exe/rbdock.cxx#4 $)

>  <Rbt.Library>
libRbt.so (2013.1, Build901 2013/11/27)

>  <Rbt.Parameter_File>
/export/apps/rDock/src/rDock_2013.1_src/data/scripts/dock_solv.prm

>  <Rbt.Receptor>
prm/pocket_docking_8.prm

>  <SCORE>
-16.5555

>  <SCORE.INTER>
-13.5025

>  <SCORE.INTER.CONST>
1

>  <SCORE.INTER.POLAR>
0

>  <SCORE.INTER.ROT>
7

>  <SCORE.INTER.SOLV>
16.0094

>  <SCORE.INTER.VDW>
-22.6048

>  <SCORE.INTER.norm>
-0.500094

>  <SCORE.INTRA>
-3.06288

>  <SCORE.INTRA.DIHEDRAL>
-4.29985

>  <SCORE.INTRA.DIHEDRAL.0>
8.34559

>  <SCORE.INTRA.POLAR>
0

>  <SCORE.INTRA.POLAR.0>
0

>  <SCORE.INTRA.REPUL>
0

>  <SCORE.INTRA.REPUL.0>
0

>  <SCORE.INTRA.SOLV>
-0.573744

>  <SCORE.INTRA.SOLV.lig_0>
-48.829

>  <SCORE.INTRA.VDW>
-0.626079

>  <SCORE.INTRA.VDW.0>
-1.77092

>  <SCORE.INTRA.norm>
-0.11344

>  <SCORE.RESTR>
0.00994699

>  <SCORE.RESTR.CAVITY>
0.00994699

>  <SCORE.RESTR.norm>
0.000368407

>  <SCORE.SYSTEM>
0

>  <SCORE.SYSTEM.CONST>
0

>  <SCORE.SYSTEM.DIHEDRAL>
0

>  <SCORE.SYSTEM.SOLV>
0

>  <SCORE.SYSTEM.norm>
0

>  <SCORE.heavy>
27

>  <SCORE.norm>
-0.613166

>  <RMSD>
5.317

$$$$
ligand
 OpenBabel02271912153D
libRbt.so/2013.1/901 2013/11/27
 27 29  0  0  0  0  0  0  0  0999 V2000
   45.5850  -30.8087 -105.0637 N   0  0  0  0  0  0  0  0  0  0  0  0
   45.4241  -30.3401 -103.6827 C   0  0  2  0  0  0  0  0  0  0  0  0
   44.0155  -29.8204 -103.4864 C   0  0  0  0  0  0  0  0  0  0  0  0
   43.4551  -29.9557 -102.4092 O   0  0  0  0  0  0  0  0  0  0  0  0
   46.4173  -29.2172 -103.3541 C   0  0  0  0  0  0  0  0  0  0  0  0
   46.3582  -28.8576 -101.8762 C   0  0  0  0  0  0  0  0  0  0  0  0
   46.7752  -30.2603 -100.7709 S   0  0  2  0  0  0  0  0  0  0  0  0
   46.2602  -29.6866  -99.1200 C   0  0  0  0  0  0  0  0  0  0  0  0
   48.5244  -29.8892 -100.6654 C   0  0  0  0  0  0  0  0  0  0  0  0
   49.3519  -30.5633 -101.7273 C   0  0  1  0  0  0  0  0  0  0  0  0
   49.1297  -29.8694 -102.9666 O   0  0  0  0  0  0  0  0  0  0  0  0
   50.7324  -30.2482 -101.3119 C   0  0  1  0  0  0  0  0  0  0  0  0
   51.2775  -31.3491 -100.5863 O   0  0  0  0  0  0  0  0  0  0  0  0
   51.4387  -30.1006 -102.6239 C   0  0  1  0  0  0  0  0  0  0  0  0
   51.9162  -31.3820 -103.0838 O   0  0  0  0  0  0  0  0  0  0  0  0
   50.3808  -29.5414 -103.6219 C   0  0  2  0  0  0  0  0  0  0  0  0
   43.4429  -29.2348 -104.3886 O   0  0  0  0  0  0  0  0  0  0  0  0
   49.5599  -25.3681 -106.8012 N   0  0  0  0  0  0  0  0  0  0  0  0
   49.4819  -26.6825 -107.1241 C   0  0  0  0  0  0  0  0  0  0  0  0
   49.6742  -27.6518 -106.2052 N   0  0  0  0  0  0  0  0  0  0  0  0
   50.0391  -27.3430 -104.9502 C   0  0  0  0  0  0  0  0  0  0  0  0
   50.1742  -25.9566 -104.5732 C   0  0  0  0  0  0  0  0  0  0  0  0
   49.9077  -24.9628 -105.5615 C   0  0  0  0  0  0  0  0  0  0  0  0
   50.0084  -23.6185 -105.2663 N   0  0  0  0  0  0  0  0  0  0  0  0
   50.5471  -25.9274 -103.2883 N   0  0  0  0  0  0  0  0  0  0  0  0
   50.6596  -27.1472 -102.8537 C   0  0  0  0  0  0  0  0  0  0  0  0
   50.3516  -28.0644 -103.8313 N   0  0  0  0  0  0  0  0  0  0  0  0
  2  1  1  6  0  0  0
  2  3  1  0  0  0  0
  2  5  1  0  0  0  0
  3  4  1  0  0  0  0
  3 17  1  0  0  0  0
  5  6  1  0  0  0  0
  7  6  1  6  0  0  0
  7  8  1  0  0  0  0
  7  9  1  0  0  0  0
 10  9  1  1  0  0  0
 10 11  1  0  0  0  0
 10 12  1  0  0  0  0
 11 16  1  0  0  0  0
 12 13  1  1  0  0  0
 12 14  1  0  0  0  0
 14 15  1  6  0  0  0
 14 16  1  0  0  0  0
 16 27  1  1  0  0  0
 18 19  2  0  0  0  0
 18 23  1  0  0  0  0
 19 20  1  0  0  0  0
 20 21  2  0  0  0  0
 21 22  1  0  0  0  0
 21 27  1  0  0  0  0
 22 23  2  0  0  0  0
 22 25  1  0  0  0  0
 23 24  1  0  0  0  0
 25 26  2  0  0  0  0
 26 27  1  0  0  0  0
M  END
>  <CHROM.1>
146.19148938,-173.06970663,60.38746071,-167.35938361,-90.15800485,75.02301871
-99.22118404,48.41822755,-28.81354477,-103.19550491,2.32470675,0.11033459
2.34956918

>  <Name>
ligand

>  <RI>
0

>  <Rbt.Current_Directory>
/home/itssahil/PROJECTS/Mol_Feturizer/Test_systems_manuscript/rnas/4l81

>  <Rbt.Executable>
rbdock ($Id: //depot/dev/client3/rdock/2013.1/src/exe/rbdock.cxx#4 $)

>  <Rbt.Library>
libRbt.so (2013.1, Build901 2013/11/27)

>  <Rbt.Parameter_File>
/export/apps/rDock/src/rDock_2013.1_src/data/scripts/dock_solv.prm

>  <Rbt.Receptor>
prm/pocket_docking_6.prm

>  <SCORE>
-17.4256

>  <SCORE.INTER>
-14.9819

>  <SCORE.INTER.CONST>
1

>  <SCORE.INTER.POLAR>
0

>  <SCORE.INTER.ROT>
7

>  <SCORE.INTER.SOLV>
10.6646

>  <SCORE.INTER.VDW>
-21.8095

>  <SCORE.INTER.norm>
-0.554886

>  <SCORE.INTRA>
-2.44366

>  <SCORE.INTRA.DIHEDRAL>
-1.5253

>  <SCORE.INTRA.DIHEDRAL.0>
8.34559

>  <SCORE.INTRA.POLAR>
0

>  <SCORE.INTRA.POLAR.0>
0

>  <SCORE.INTRA.REPUL>
0

>  <SCORE.INTRA.REPUL.0>
0

>  <SCORE.INTRA.SOLV>
-0.838842

>  <SCORE.INTRA.SOLV.lig_0>
-48.829

>  <SCORE.INTRA.VDW>
-1.26158

>  <SCORE.INTRA.VDW.0>
-1.77092

>  <SCORE.INTRA.norm>
-0.0905058

>  <SCORE.RESTR>
0

>  <SCORE.RESTR.CAVITY>
0

>  <SCORE.RESTR.norm>
0

>  <SCORE.SYSTEM>
0

>  <SCORE.SYSTEM.CONST>
0

>  <SCORE.SYSTEM.DIHEDRAL>
0

>  <SCORE.SYSTEM.SOLV>
0

>  <SCORE.SYSTEM.norm>
0

>  <SCORE.heavy>
27

>  <SCORE.norm>
-0.645391

>  <RMSD>
5.328

$$$$
ligand
 OpenBabel02271912153D
libRbt.so/2013.1/901 2013/11/27
 27 29  0  0  0  0  0  0  0  0999 V2000
   46.3150  -22.7909 -107.0937 N   0  0  0  0  0  0  0  0  0  0  0  0
   46.7470  -24.1637 -106.8082 C   0  0  2  0  0  0  0  0  0  0  0  0
   47.3071  -24.7894 -108.0682 C   0  0  0  0  0  0  0  0  0  0  0  0
   48.1213  -25.6973 -107.9938 O   0  0  0  0  0  0  0  0  0  0  0  0
   45.5800  -25.0235 -106.3040 C   0  0  0  0  0  0  0  0  0  0  0  0
   46.0500  -26.4325 -105.9713 C   0  0  0  0  0  0  0  0  0  0  0  0
   44.7813  -27.4354 -105.1065 S   0  0  2  0  0  0  0  0  0  0  0  0
   44.8199  -26.8115 -103.3951 C   0  0  0  0  0  0  0  0  0  0  0  0
   45.8116  -28.8862 -104.9012 C   0  0  0  0  0  0  0  0  0  0  0  0
   45.0430  -30.1286 -104.5371 C   0  0  1  0  0  0  0  0  0  0  0  0
   45.8740  -31.2640 -104.8323 O   0  0  0  0  0  0  0  0  0  0  0  0
   44.9608  -30.0401 -103.0663 C   0  0  1  0  0  0  0  0  0  0  0  0
   43.6998  -29.4898 -102.6892 O   0  0  0  0  0  0  0  0  0  0  0  0
   45.0361  -31.4770 -102.6517 C   0  0  1  0  0  0  0  0  0  0  0  0
   43.7197  -32.0673 -102.6461 O   0  0  0  0  0  0  0  0  0  0  0  0
   45.9287  -32.1855 -103.7144 C   0  0  2  0  0  0  0  0  0  0  0  0
   46.9266  -24.4161 -109.1640 O   0  0  0  0  0  0  0  0  0  0  0  0
   50.1090  -31.0371 -100.6477 N   0  0  0  0  0  0  0  0  0  0  0  0
   48.8464  -30.5552 -100.5401 C   0  0  0  0  0  0  0  0  0  0  0  0
   47.8584  -30.9628 -101.3640 N   0  0  0  0  0  0  0  0  0  0  0  0
   48.1173  -31.7997 -102.3819 C   0  0  0  0  0  0  0  0  0  0  0  0
   49.4571  -32.3057 -102.5591 C   0  0  0  0  0  0  0  0  0  0  0  0
   50.4592  -31.8921 -101.6317 C   0  0  0  0  0  0  0  0  0  0  0  0
   51.7586  -32.3453 -101.7368 N   0  0  0  0  0  0  0  0  0  0  0  0
   49.4431  -33.1032 -103.6336 N   0  0  0  0  0  0  0  0  0  0  0  0
   48.2410  -33.1248 -104.1276 C   0  0  0  0  0  0  0  0  0  0  0  0
   47.3771  -32.3458 -103.3939 N   0  0  0  0  0  0  0  0  0  0  0  0
  2  1  1  6  0  0  0
  2  3  1  0  0  0  0
  2  5  1  0  0  0  0
  3  4  1  0  0  0  0
  3 17  1  0  0  0  0
  5  6  1  0  0  0  0
  7  6  1  6  0  0  0
  7  8  1  0  0  0  0
  7  9  1  0  0  0  0
 10  9  1  1  0  0  0
 10 11  1  0  0  0  0
 10 12  1  0  0  0  0
 11 16  1  0  0  0  0
 12 13  1  6  0  0  0
 12 14  1  0  0  0  0
 14 15  1  6  0  0  0
 14 16  1  0  0  0  0
 16 27  1  1  0  0  0
 18 19  2  0  0  0  0
 18 23  1  0  0  0  0
 19 20  1  0  0  0  0
 20 21  2  0  0  0  0
 21 22  1  0  0  0  0
 21 27  1  0  0  0  0
 22 23  2  0  0  0  0
 22 25  1  0  0  0  0
 23 24  1  0  0  0  0
 25 26  2  0  0  0  0
 26 27  1  0  0  0  0
M  END
>  <CHROM.1>
154.52223361,-178.26649984,170.51633148,-77.00450437,-164.68071374,161.25891895
102.80608600,46.80068620,-29.19328759,-104.21544570,-1.81105935,-0.02536399
2.53985721

>  <Name>
ligand

>  <RI>
0

>  <Rbt.Current_Directory>
/home/itssahil/PROJECTS/Mol_Feturizer/Test_systems_manuscript/rnas/4l81

>  <Rbt.Executable>
rbdock ($Id: //depot/dev/client3/rdock/2013.1/src/exe/rbdock.cxx#4 $)

>  <Rbt.Library>
libRbt.so (2013.1, Build901 2013/11/27)

>  <Rbt.Parameter_File>
/export/apps/rDock/src/rDock_2013.1_src/data/scripts/dock_solv.prm

>  <Rbt.Receptor>
prm/pocket_docking_6.prm

>  <SCORE>
-13.8509

>  <SCORE.INTER>
-12.0802

>  <SCORE.INTER.CONST>
1

>  <SCORE.INTER.POLAR>
0

>  <SCORE.INTER.ROT>
7

>  <SCORE.INTER.SOLV>
13.884

>  <SCORE.INTER.VDW>
-20.9481

>  <SCORE.INTER.norm>
-0.447413

>  <SCORE.INTRA>
-1.77074

>  <SCORE.INTRA.DIHEDRAL>
-2.18367

>  <SCORE.INTRA.DIHEDRAL.0>
8.34559

>  <SCORE.INTRA.POLAR>
0

>  <SCORE.INTRA.POLAR.0>
0

>  <SCORE.INTRA.REPUL>
0

>  <SCORE.INTRA.REPUL.0>
0

>  <SCORE.INTRA.SOLV>
-1.01703

>  <SCORE.INTRA.SOLV.lig_0>
-48.829

>  <SCORE.INTRA.VDW>
-0.170393

>  <SCORE.INTRA.VDW.0>
-1.77092

>  <SCORE.INTRA.norm>
-0.0655831

>  <SCORE.RESTR>
0

>  <SCORE.RESTR.CAVITY>
0

>  <SCORE.RESTR.norm>
0

>  <SCORE.SYSTEM>
0

>  <SCORE.SYSTEM.CONST>
0

>  <SCORE.SYSTEM.DIHEDRAL>
0

>  <SCORE.SYSTEM.SOLV>
0

>  <SCORE.SYSTEM.norm>
0

>  <SCORE.heavy>
27

>  <SCORE.norm>
-0.512996

>  <RMSD>
5.331

$$$$
ligand
 OpenBabel02271912153D
libRbt.so/2013.1/901 2013/11/27
 27 29  0  0  0  0  0  0  0  0999 V2000
   48.8090  -28.9731 -108.4511 N   0  0  0  0  0  0  0  0  0  0  0  0
   47.7812  -27.9898 -108.0911 C   0  0  2  0  0  0  0  0  0  0  0  0
   47.7345  -26.9003 -109.1415 C   0  0  0  0  0  0  0  0  0  0  0  0
   48.6900  -26.7179 -109.8807 O   0  0  0  0  0  0  0  0  0  0  0  0
   48.0725  -27.3509 -106.7265 C   0  0  0  0  0  0  0  0  0  0  0  0
   46.8813  -26.5343 -106.2458 C   0  0  0  0  0  0  0  0  0  0  0  0
   45.4037  -27.5554 -105.8752 S   0  0  2  0  0  0  0  0  0  0  0  0
   44.1611  -26.3443 -105.3194 C   0  0  0  0  0  0  0  0  0  0  0  0
   45.9777  -28.1244 -104.2765 C   0  0  0  0  0  0  0  0  0  0  0  0
   45.0318  -29.0791 -103.5979 C   0  0  1  0  0  0  0  0  0  0  0  0
   45.1092  -30.3398 -104.2846 O   0  0  0  0  0  0  0  0  0  0  0  0
   45.6639  -29.2802 -102.2796 C   0  0  1  0  0  0  0  0  0  0  0  0
   45.0464  -28.4272 -101.3171 O   0  0  0  0  0  0  0  0  0  0  0  0
   45.3371  -30.7103 -101.9796 C   0  0  1  0  0  0  0  0  0  0  0  0
   44.0527  -30.8060 -101.3295 O   0  0  0  0  0  0  0  0  0  0  0  0
   45.2885  -31.4388 -103.3561 C   0  0  2  0  0  0  0  0  0  0  0  0
   46.7332  -26.2197 -109.2801 O   0  0  0  0  0  0  0  0  0  0  0  0
   48.9562  -32.3764 -107.0801 N   0  0  0  0  0  0  0  0  0  0  0  0
   47.8669  -31.5748 -107.1745 C   0  0  0  0  0  0  0  0  0  0  0  0
   47.0298  -31.3889 -106.1326 N   0  0  0  0  0  0  0  0  0  0  0  0
   47.2019  -32.0674 -104.9865 C   0  0  0  0  0  0  0  0  0  0  0  0
   48.3256  -32.9635 -104.8562 C   0  0  0  0  0  0  0  0  0  0  0  0
   49.2170  -33.0880 -105.9631 C   0  0  0  0  0  0  0  0  0  0  0  0
   50.3169  -33.9195 -105.9029 N   0  0  0  0  0  0  0  0  0  0  0  0
   48.2612  -33.5088 -103.6359 N   0  0  0  0  0  0  0  0  0  0  0  0
   47.2148  -33.0441 -103.0206 C   0  0  0  0  0  0  0  0  0  0  0  0
   46.5256  -32.1448 -103.8004 N   0  0  0  0  0  0  0  0  0  0  0  0
  2  1  1  6  0  0  0
  2  3  1  0  0  0  0
  2  5  1  0  0  0  0
  3  4  1  0  0  0  0
  3 17  1  0  0  0  0
  5  6  1  0  0  0  0
  7  6  1  1  0  0  0
  7  8  1  0  0  0  0
  7  9  1  0  0  0  0
 10  9  1  6  0  0  0
 10 11  1  0  0  0  0
 10 12  1  0  0  0  0
 11 16  1  0  0  0  0
 12 13  1  1  0  0  0
 12 14  1  0  0  0  0
 14 15  1  6  0  0  0
 14 16  1  0  0  0  0
 16 27  1  6  0  0  0
 18 19  2  0  0  0  0
 18 23  1  0  0  0  0
 19 20  1  0  0  0  0
 20 21  2  0  0  0  0
 21 22  1  0  0  0  0
 21 27  1  0  0  0  0
 22 23  2  0  0  0  0
 22 25  1  0  0  0  0
 23 24  1  0  0  0  0
 25 26  2  0  0  0  0
 26 27  1  0  0  0  0
M  END
>  <CHROM.1>
-20.31766172,-169.43785645,66.24731245,179.55759237,-178.14828298,73.04685693
-15.77134672,46.79490314,-29.75257618,-105.35751283,-1.37669974,-0.86231201
2.47612175

>  <Name>
ligand

>  <RI>
0

>  <Rbt.Current_Directory>
/home/itssahil/PROJECTS/Mol_Feturizer/Test_systems_manuscript/rnas/4l81

>  <Rbt.Executable>
rbdock ($Id: //depot/dev/client3/rdock/2013.1/src/exe/rbdock.cxx#4 $)

>  <Rbt.Library>
libRbt.so (2013.1, Build901 2013/11/27)

>  <Rbt.Parameter_File>
/export/apps/rDock/src/rDock_2013.1_src/data/scripts/dock_solv.prm

>  <Rbt.Receptor>
prm/pocket_docking_6.prm

>  <SCORE>
-12.7093

>  <SCORE.INTER>
-9.25294

>  <SCORE.INTER.CONST>
1

>  <SCORE.INTER.POLAR>
0

>  <SCORE.INTER.ROT>
7

>  <SCORE.INTER.SOLV>
14.4666

>  <SCORE.INTER.VDW>
-19.2575

>  <SCORE.INTER.norm>
-0.342701

>  <SCORE.INTRA>
-3.45634

>  <SCORE.INTRA.DIHEDRAL>
-3.35763

>  <SCORE.INTRA.DIHEDRAL.0>
8.34559

>  <SCORE.INTRA.POLAR>
0

>  <SCORE.INTRA.POLAR.0>
0

>  <SCORE.INTRA.REPUL>
0

>  <SCORE.INTRA.REPUL.0>
0

>  <SCORE.INTRA.SOLV>
-0.234504

>  <SCORE.INTRA.SOLV.lig_0>
-48.829

>  <SCORE.INTRA.VDW>
-1.66027

>  <SCORE.INTRA.VDW.0>
-1.77092

>  <SCORE.INTRA.norm>
-0.128012

>  <SCORE.RESTR>
0

>  <SCORE.RESTR.CAVITY>
0

>  <SCORE.RESTR.norm>
0

>  <SCORE.SYSTEM>
0

>  <SCORE.SYSTEM.CONST>
0

>  <SCORE.SYSTEM.DIHEDRAL>
0

>  <SCORE.SYSTEM.SOLV>
0

>  <SCORE.SYSTEM.norm>
0

>  <SCORE.heavy>
27

>  <SCORE.norm>
-0.470714

>  <RMSD>
5.342

$$$$
ligand
 OpenBabel02271912153D
libRbt.so/2013.1/901 2013/11/27
 27 29  0  0  0  0  0  0  0  0999 V2000
   48.4268  -31.9432 -104.7304 N   0  0  0  0  0  0  0  0  0  0  0  0
   46.9691  -31.7804 -104.7696 C   0  0  2  0  0  0  0  0  0  0  0  0
   46.4282  -32.3790 -106.0510 C   0  0  0  0  0  0  0  0  0  0  0  0
   45.4042  -31.9381 -106.5507 O   0  0  0  0  0  0  0  0  0  0  0  0
   46.5702  -30.2997 -104.7068 C   0  0  0  0  0  0  0  0  0  0  0  0
   45.1641  -30.1413 -104.1458 C   0  0  0  0  0  0  0  0  0  0  0  0
   44.8755  -31.1223 -102.6234 S   0  0  2  0  0  0  0  0  0  0  0  0
   43.1807  -30.6742 -102.1270 C   0  0  0  0  0  0  0  0  0  0  0  0
   45.7865  -30.0308 -101.5337 C   0  0  0  0  0  0  0  0  0  0  0  0
   47.2291  -30.4217 -101.3523 C   0  0  1  0  0  0  0  0  0  0  0  0
   47.9852  -29.8266 -102.4206 O   0  0  0  0  0  0  0  0  0  0  0  0
   47.6076  -29.7035 -100.1200 C   0  0  1  0  0  0  0  0  0  0  0  0
   47.5207  -30.5880  -99.0040 O   0  0  0  0  0  0  0  0  0  0  0  0
   49.0386  -29.3477 -100.3801 C   0  0  1  0  0  0  0  0  0  0  0  0
   49.9063  -30.4238  -99.9673 O   0  0  0  0  0  0  0  0  0  0  0  0
   49.1563  -29.1344 -101.9192 C   0  0  2  0  0  0  0  0  0  0  0  0
   47.0263  -33.2811 -106.6108 O   0  0  0  0  0  0  0  0  0  0  0  0
   46.1817  -25.1253 -103.7291 N   0  0  0  0  0  0  0  0  0  0  0  0
   45.7717  -26.3716 -103.3880 C   0  0  0  0  0  0  0  0  0  0  0  0
   46.6287  -27.2916 -102.8980 N   0  0  0  0  0  0  0  0  0  0  0  0
   47.9428  -27.0276 -102.8150 C   0  0  0  0  0  0  0  0  0  0  0  0
   48.4295  -25.7266 -103.2064 C   0  0  0  0  0  0  0  0  0  0  0  0
   47.4811  -24.7653 -103.6666 C   0  0  0  0  0  0  0  0  0  0  0  0
   47.8766  -23.4991 -104.0474 N   0  0  0  0  0  0  0  0  0  0  0  0
   49.7565  -25.7289 -103.0334 N   0  0  0  0  0  0  0  0  0  0  0  0
   50.1221  -26.8941 -102.5883 C   0  0  0  0  0  0  0  0  0  0  0  0
   49.0463  -27.7355 -102.4263 N   0  0  0  0  0  0  0  0  0  0  0  0
  2  1  1  6  0  0  0
  2  3  1  0  0  0  0
  2  5  1  0  0  0  0
  3  4  1  0  0  0  0
  3 17  1  0  0  0  0
  5  6  1  0  0  0  0
  7  6  1  6  0  0  0
  7  8  1  0  0  0  0
  7  9  1  0  0  0  0
 10  9  1  6  0  0  0
 10 11  1  0  0  0  0
 10 12  1  0  0  0  0
 11 16  1  0  0  0  0
 12 13  1  1  0  0  0
 12 14  1  0  0  0  0
 14 15  1  6  0  0  0
 14 16  1  0  0  0  0
 16 27  1  1  0  0  0
 18 19  2  0  0  0  0
 18 23  1  0  0  0  0
 19 20  1  0  0  0  0
 20 21  2  0  0  0  0
 21 22  1  0  0  0  0
 21 27  1  0  0  0  0
 22 23  2  0  0  0  0
 22 25  1  0  0  0  0
 23 24  1  0  0  0  0
 25 26  2  0  0  0  0
 26 27  1  0  0  0  0
M  END
>  <CHROM.1>
-151.46805766,-155.15693851,47.32008939,176.80328410,-93.03773898,86.32469567
23.64630064,47.17746611,-29.20817576,-102.96866016,2.39089267,1.06826771
2.66385878

>  <Name>
ligand

>  <RI>
0

>  <Rbt.Current_Directory>
/home/itssahil/PROJECTS/Mol_Feturizer/Test_systems_manuscript/rnas/4l81

>  <Rbt.Executable>
rbdock ($Id: //depot/dev/client3/rdock/2013.1/src/exe/rbdock.cxx#4 $)

>  <Rbt.Library>
libRbt.so (2013.1, Build901 2013/11/27)

>  <Rbt.Parameter_File>
/export/apps/rDock/src/rDock_2013.1_src/data/scripts/dock_solv.prm

>  <Rbt.Receptor>
prm/pocket_docking_4.prm

>  <SCORE>
-13.2845

>  <SCORE.INTER>
-13.6502

>  <SCORE.INTER.CONST>
1

>  <SCORE.INTER.POLAR>
0

>  <SCORE.INTER.ROT>
7

>  <SCORE.INTER.SOLV>
9.45518

>  <SCORE.INTER.VDW>
-20.5185

>  <SCORE.INTER.norm>
-0.505562

>  <SCORE.INTRA>
0.350657

>  <SCORE.INTRA.DIHEDRAL>
1.61494

>  <SCORE.INTRA.DIHEDRAL.0>
8.34559

>  <SCORE.INTRA.POLAR>
0

>  <SCORE.INTRA.POLAR.0>
0

>  <SCORE.INTRA.REPUL>
0

>  <SCORE.INTRA.REPUL.0>
0

>  <SCORE.INTRA.SOLV>
1.2289

>  <SCORE.INTRA.SOLV.lig_0>
-48.829

>  <SCORE.INTRA.VDW>
-1.07126

>  <SCORE.INTRA.VDW.0>
-1.77092

>  <SCORE.INTRA.norm>
0.0129873

>  <SCORE.RESTR>
0.0150361

>  <SCORE.RESTR.CAVITY>
0.0150361

>  <SCORE.RESTR.norm>
0.000556894

>  <SCORE.SYSTEM>
0

>  <SCORE.SYSTEM.CONST>
0

>  <SCORE.SYSTEM.DIHEDRAL>
0

>  <SCORE.SYSTEM.SOLV>
0

>  <SCORE.SYSTEM.norm>
0

>  <SCORE.heavy>
27

>  <SCORE.norm>
-0.492018

>  <RMSD>
5.345

$$$$
ligand
 OpenBabel02271912153D
libRbt.so/2013.1/901 2013/11/27
 27 29  0  0  0  0  0  0  0  0999 V2000
   46.4352  -22.8052 -107.1931 N   0  0  0  0  0  0  0  0  0  0  0  0
   46.8659  -24.1694 -106.8670 C   0  0  2  0  0  0  0  0  0  0  0  0
   47.4944  -24.8064 -108.0884 C   0  0  0  0  0  0  0  0  0  0  0  0
   48.4991  -25.4923 -107.9754 O   0  0  0  0  0  0  0  0  0  0  0  0
   45.6837  -25.0344 -106.4094 C   0  0  0  0  0  0  0  0  0  0  0  0
   46.1413  -26.4501 -106.0878 C   0  0  0  0  0  0  0  0  0  0  0  0
   44.8372  -27.4737 -105.3036 S   0  0  2  0  0  0  0  0  0  0  0  0
   44.7226  -26.8157 -103.6085 C   0  0  0  0  0  0  0  0  0  0  0  0
   45.8890  -28.8885 -104.9865 C   0  0  0  0  0  0  0  0  0  0  0  0
   45.1312  -30.1366 -104.6194 C   0  0  1  0  0  0  0  0  0  0  0  0
   45.9870  -31.2634 -104.8741 O   0  0  0  0  0  0  0  0  0  0  0  0
   45.0113  -30.0241 -103.1529 C   0  0  1  0  0  0  0  0  0  0  0  0
   43.7328  -29.4877 -102.8164 O   0  0  0  0  0  0  0  0  0  0  0  0
   45.0988  -31.4522 -102.7112 C   0  0  1  0  0  0  0  0  0  0  0  0
   43.7922  -32.0635 -102.7273 O   0  0  0  0  0  0  0  0  0  0  0  0
   46.0285  -32.1645 -103.7390 C   0  0  2  0  0  0  0  0  0  0  0  0
   46.9857  -24.6678 -109.1870 O   0  0  0  0  0  0  0  0  0  0  0  0
   50.0795  -31.0202 -100.5021 N   0  0  0  0  0  0  0  0  0  0  0  0
   48.8004  -30.5795 -100.4147 C   0  0  0  0  0  0  0  0  0  0  0  0
   47.8500  -30.9819 -101.2841 N   0  0  0  0  0  0  0  0  0  0  0  0
   48.1639  -31.7697 -102.3255 C   0  0  0  0  0  0  0  0  0  0  0  0
   49.5229  -32.2295 -102.4808 C   0  0  0  0  0  0  0  0  0  0  0  0
   50.4843  -31.8247 -101.5075 C   0  0  0  0  0  0  0  0  0  0  0  0
   51.7991  -32.2358 -101.5899 N   0  0  0  0  0  0  0  0  0  0  0  0
   49.5648  -32.9834 -103.5856 N   0  0  0  0  0  0  0  0  0  0  0  0
   48.3791  -33.0198 -104.1170 C   0  0  0  0  0  0  0  0  0  0  0  0
   47.4709  -32.2958 -103.3804 N   0  0  0  0  0  0  0  0  0  0  0  0
  2  1  1  6  0  0  0
  2  3  1  0  0  0  0
  2  5  1  0  0  0  0
  3  4  1  0  0  0  0
  3 17  1  0  0  0  0
  5  6  1  0  0  0  0
  7  6  1  6  0  0  0
  7  8  1  0  0  0  0
  7  9  1  0  0  0  0
 10  9  1  1  0  0  0
 10 11  1  0  0  0  0
 10 12  1  0  0  0  0
 11 16  1  0  0  0  0
 12 13  1  6  0  0  0
 12 14  1  0  0  0  0
 14 15  1  6  0  0  0
 14 16  1  0  0  0  0
 16 27  1  1  0  0  0
 18 19  2  0  0  0  0
 18 23  1  0  0  0  0
 19 20  1  0  0  0  0
 20 21  2  0  0  0  0
 21 22  1  0  0  0  0
 21 27  1  0  0  0  0
 22 23  2  0  0  0  0
 22 25  1  0  0  0  0
 23 24  1  0  0  0  0
 25 26  2  0  0  0  0
 26 27  1  0  0  0  0
M  END
>  <CHROM.1>
139.13049315,179.42779035,171.59561768,-73.47194217,-166.28792581,159.05298353
106.18152625,46.87714275,-29.18102200,-104.24821014,-1.80423243,0.00978240
2.52791365

>  <Name>
ligand

>  <RI>
0

>  <Rbt.Current_Directory>
/home/itssahil/PROJECTS/Mol_Feturizer/Test_systems_manuscript/rnas/4l81

>  <Rbt.Executable>
rbdock ($Id: //depot/dev/client3/rdock/2013.1/src/exe/rbdock.cxx#4 $)

>  <Rbt.Library>
libRbt.so (2013.1, Build901 2013/11/27)

>  <Rbt.Parameter_File>
/export/apps/rDock/src/rDock_2013.1_src/data/scripts/dock_solv.prm

>  <Rbt.Receptor>
prm/pocket_docking_8.prm

>  <SCORE>
-13.8209

>  <SCORE.INTER>
-11.9958

>  <SCORE.INTER.CONST>
1

>  <SCORE.INTER.POLAR>
0

>  <SCORE.INTER.ROT>
7

>  <SCORE.INTER.SOLV>
13.4457

>  <SCORE.INTER.VDW>
-20.7457

>  <SCORE.INTER.norm>
-0.444288

>  <SCORE.INTRA>
-1.8251

>  <SCORE.INTRA.DIHEDRAL>
-2.28974

>  <SCORE.INTRA.DIHEDRAL.0>
8.34559

>  <SCORE.INTRA.POLAR>
0

>  <SCORE.INTRA.POLAR.0>
0

>  <SCORE.INTRA.REPUL>
0

>  <SCORE.INTRA.REPUL.0>
0

>  <SCORE.INTRA.SOLV>
-1.03076

>  <SCORE.INTRA.SOLV.lig_0>
-48.829

>  <SCORE.INTRA.VDW>
-0.164854

>  <SCORE.INTRA.VDW.0>
-1.77092

>  <SCORE.INTRA.norm>
-0.0675964

>  <SCORE.RESTR>
0

>  <SCORE.RESTR.CAVITY>
0

>  <SCORE.RESTR.norm>
0

>  <SCORE.SYSTEM>
0

>  <SCORE.SYSTEM.CONST>
0

>  <SCORE.SYSTEM.DIHEDRAL>
0

>  <SCORE.SYSTEM.SOLV>
0

>  <SCORE.SYSTEM.norm>
0

>  <SCORE.heavy>
27

>  <SCORE.norm>
-0.511885

>  <RMSD>
5.345

$$$$
ligand
 OpenBabel02271912153D
libRbt.so/2013.1/901 2013/11/27
 27 29  0  0  0  0  0  0  0  0999 V2000
   50.0583  -29.9736 -100.7923 N   0  0  0  0  0  0  0  0  0  0  0  0
   48.7737  -29.2832 -100.6314 C   0  0  2  0  0  0  0  0  0  0  0  0
   47.7082  -30.2839 -100.2364 C   0  0  0  0  0  0  0  0  0  0  0  0
   47.4512  -31.2285 -100.9673 O   0  0  0  0  0  0  0  0  0  0  0  0
   48.3452  -28.5897 -101.9317 C   0  0  0  0  0  0  0  0  0  0  0  0
   49.2863  -27.4418 -102.2686 C   0  0  0  0  0  0  0  0  0  0  0  0
   49.0981  -26.8297 -103.9871 S   0  0  2  0  0  0  0  0  0  0  0  0
   50.2344  -25.4081 -104.0738 C   0  0  0  0  0  0  0  0  0  0  0  0
   47.5661  -25.9487 -103.6949 C   0  0  0  0  0  0  0  0  0  0  0  0
   46.3831  -26.5336 -104.4198 C   0  0  1  0  0  0  0  0  0  0  0  0
   46.8803  -27.4614 -105.3990 O   0  0  0  0  0  0  0  0  0  0  0  0
   45.7272  -27.3404 -103.3727 C   0  0  1  0  0  0  0  0  0  0  0  0
   44.6517  -26.5986 -102.7995 O   0  0  0  0  0  0  0  0  0  0  0  0
   45.1899  -28.5024 -104.1494 C   0  0  1  0  0  0  0  0  0  0  0  0
   43.8806  -28.1948 -104.6713 O   0  0  0  0  0  0  0  0  0  0  0  0
   46.1868  -28.7325 -105.3247 C   0  0  2  0  0  0  0  0  0  0  0  0
   47.1229  -30.1742  -99.1732 O   0  0  0  0  0  0  0  0  0  0  0  0
   47.7407  -33.4148 -103.3603 N   0  0  0  0  0  0  0  0  0  0  0  0
   46.5277  -32.8239 -103.2292 C   0  0  0  0  0  0  0  0  0  0  0  0
   46.2463  -31.6424 -103.8175 N   0  0  0  0  0  0  0  0  0  0  0  0
   47.1959  -30.9662 -104.4843 C   0  0  0  0  0  0  0  0  0  0  0  0
   48.5140  -31.5391 -104.6137 C   0  0  0  0  0  0  0  0  0  0  0  0
   48.7524  -32.8158 -104.0233 C   0  0  0  0  0  0  0  0  0  0  0  0
   49.9868  -33.4257 -104.1175 N   0  0  0  0  0  0  0  0  0  0  0  0
   49.2591  -30.6716 -105.3087 N   0  0  0  0  0  0  0  0  0  0  0  0
   48.5339  -29.6341 -105.6040 C   0  0  0  0  0  0  0  0  0  0  0  0
   47.2496  -29.7613 -105.1287 N   0  0  0  0  0  0  0  0  0  0  0  0
  2  1  1  6  0  0  0
  2  3  1  0  0  0  0
  2  5  1  0  0  0  0
  3  4  1  0  0  0  0
  3 17  1  0  0  0  0
  5  6  1  0  0  0  0
  7  6  1  1  0  0  0
  7  8  1  0  0  0  0
  7  9  1  0  0  0  0
 10  9  1  1  0  0  0
 10 11  1  0  0  0  0
 10 12  1  0  0  0  0
 11 16  1  0  0  0  0
 12 13  1  6  0  0  0
 12 14  1  0  0  0  0
 14 15  1  6  0  0  0
 14 16  1  0  0  0  0
 16 27  1  1  0  0  0
 18 19  2  0  0  0  0
 18 23  1  0  0  0  0
 19 20  1  0  0  0  0
 20 21  2  0  0  0  0
 21 22  1  0  0  0  0
 21 27  1  0  0  0  0
 22 23  2  0  0  0  0
 22 25  1  0  0  0  0
 23 24  1  0  0  0  0
 25 26  2  0  0  0  0
 26 27  1  0  0  0  0
M  END
>  <CHROM.1>
-59.53144853,-66.99245674,165.94955381,176.03626495,-113.43405524,-13.33841069
150.35874349,47.61830672,-29.26128407,-103.38912013,-1.23942049,-0.93184418
0.06395294

>  <Name>
ligand

>  <RI>
0

>  <Rbt.Current_Directory>
/home/itssahil/PROJECTS/Mol_Feturizer/Test_systems_manuscript/rnas/4l81

>  <Rbt.Executable>
rbdock ($Id: //depot/dev/client3/rdock/2013.1/src/exe/rbdock.cxx#4 $)

>  <Rbt.Library>
libRbt.so (2013.1, Build901 2013/11/27)

>  <Rbt.Parameter_File>
/export/apps/rDock/src/rDock_2013.1_src/data/scripts/dock_solv.prm

>  <Rbt.Receptor>
prm/pocket_docking_5.prm

>  <SCORE>
-8.72042

>  <SCORE.INTER>
-7.9356

>  <SCORE.INTER.CONST>
1

>  <SCORE.INTER.POLAR>
0

>  <SCORE.INTER.ROT>
7

>  <SCORE.INTER.SOLV>
13.374

>  <SCORE.INTER.VDW>
-18.0151

>  <SCORE.INTER.norm>
-0.293911

>  <SCORE.INTRA>
-0.784814

>  <SCORE.INTRA.DIHEDRAL>
4.22423

>  <SCORE.INTRA.DIHEDRAL.0>
8.34559

>  <SCORE.INTRA.POLAR>
0

>  <SCORE.INTRA.POLAR.0>
0

>  <SCORE.INTRA.REPUL>
0

>  <SCORE.INTRA.REPUL.0>
0

>  <SCORE.INTRA.SOLV>
-0.287062

>  <SCORE.INTRA.SOLV.lig_0>
-48.829

>  <SCORE.INTRA.VDW>
-2.7534

>  <SCORE.INTRA.VDW.0>
-1.77092

>  <SCORE.INTRA.norm>
-0.0290672

>  <SCORE.RESTR>
0

>  <SCORE.RESTR.CAVITY>
0

>  <SCORE.RESTR.norm>
0

>  <SCORE.SYSTEM>
0

>  <SCORE.SYSTEM.CONST>
0

>  <SCORE.SYSTEM.DIHEDRAL>
0

>  <SCORE.SYSTEM.SOLV>
0

>  <SCORE.SYSTEM.norm>
0

>  <SCORE.heavy>
27

>  <SCORE.norm>
-0.322978

>  <RMSD>
5.355

$$$$
ligand
 OpenBabel02271912153D
libRbt.so/2013.1/901 2013/11/27
 27 29  0  0  0  0  0  0  0  0999 V2000
   50.7942  -25.9509 -102.9926 N   0  0  0  0  0  0  0  0  0  0  0  0
   49.4835  -26.6102 -103.0044 C   0  0  2  0  0  0  0  0  0  0  0  0
   48.4003  -25.5857 -102.7403 C   0  0  0  0  0  0  0  0  0  0  0  0
   47.2230  -25.8945 -102.8478 O   0  0  0  0  0  0  0  0  0  0  0  0
   49.3999  -27.7073 -101.9345 C   0  0  0  0  0  0  0  0  0  0  0  0
   48.1805  -28.5903 -102.1587 C   0  0  0  0  0  0  0  0  0  0  0  0
   48.0963  -30.0167 -101.0090 S   0  0  2  0  0  0  0  0  0  0  0  0
   49.6332  -30.9379 -101.3390 C   0  0  0  0  0  0  0  0  0  0  0  0
   46.9676  -30.9838 -102.0087 C   0  0  0  0  0  0  0  0  0  0  0  0
   45.5173  -30.6526 -101.7772 C   0  0  1  0  0  0  0  0  0  0  0  0
   45.3797  -29.2221 -101.8159 O   0  0  0  0  0  0  0  0  0  0  0  0
   44.8674  -31.1696 -102.9970 C   0  0  1  0  0  0  0  0  0  0  0  0
   44.3220  -32.4623 -102.7382 O   0  0  0  0  0  0  0  0  0  0  0  0
   43.7625  -30.1833 -103.2171 C   0  0  1  0  0  0  0  0  0  0  0  0
   42.5867  -30.5737 -102.4780 O   0  0  0  0  0  0  0  0  0  0  0  0
   44.2921  -28.8178 -102.6853 C   0  0  2  0  0  0  0  0  0  0  0  0
   48.6922  -24.4566 -102.3870 O   0  0  0  0  0  0  0  0  0  0  0  0
   47.9830  -27.7803 -106.3594 N   0  0  0  0  0  0  0  0  0  0  0  0
   47.8516  -28.9042 -105.6127 C   0  0  0  0  0  0  0  0  0  0  0  0
   46.8368  -29.0599 -104.7369 N   0  0  0  0  0  0  0  0  0  0  0  0
   45.9677  -28.0613 -104.5114 C   0  0  0  0  0  0  0  0  0  0  0  0
   46.0947  -26.8309 -105.2547 C   0  0  0  0  0  0  0  0  0  0  0  0
   47.1489  -26.7296 -106.2106 C   0  0  0  0  0  0  0  0  0  0  0  0
   47.3220  -25.5854 -106.9626 N   0  0  0  0  0  0  0  0  0  0  0  0
   45.1206  -26.0123 -104.8400 N   0  0  0  0  0  0  0  0  0  0  0  0
   44.4263  -26.6142 -103.9208 C   0  0  0  0  0  0  0  0  0  0  0  0
   44.8964  -27.8842 -103.6801 N   0  0  0  0  0  0  0  0  0  0  0  0
  2  1  1  1  0  0  0
  2  3  1  0  0  0  0
  2  5  1  0  0  0  0
  3  4  1  0  0  0  0
  3 17  1  0  0  0  0
  5  6  1  0  0  0  0
  7  6  1  6  0  0  0
  7  8  1  0  0  0  0
  7  9  1  0  0  0  0
 10  9  1  6  0  0  0
 10 11  1  0  0  0  0
 10 12  1  0  0  0  0
 11 16  1  0  0  0  0
 12 13  1  1  0  0  0
 12 14  1  0  0  0  0
 14 15  1  1  0  0  0
 14 16  1  0  0  0  0
 16 27  1  6  0  0  0
 18 19  2  0  0  0  0
 18 23  1  0  0  0  0
 19 20  1  0  0  0  0
 20 21  2  0  0  0  0
 21 22  1  0  0  0  0
 21 27  1  0  0  0  0
 22 23  2  0  0  0  0
 22 25  1  0  0  0  0
 23 24  1  0  0  0  0
 25 26  2  0  0  0  0
 26 27  1  0  0  0  0
M  END
>  <CHROM.1>
172.18314746,-166.95743530,174.78456560,-59.59552812,-85.57526761,47.78820777
54.12601424,46.77362011,-28.38375358,-103.24296115,-0.88709431,0.42261753
2.48506864

>  <Name>
ligand

>  <RI>
0

>  <Rbt.Current_Directory>
/home/itssahil/PROJECTS/Mol_Feturizer/Test_systems_manuscript/rnas/4l81

>  <Rbt.Executable>
rbdock ($Id: //depot/dev/client3/rdock/2013.1/src/exe/rbdock.cxx#4 $)

>  <Rbt.Library>
libRbt.so (2013.1, Build901 2013/11/27)

>  <Rbt.Parameter_File>
/export/apps/rDock/src/rDock_2013.1_src/data/scripts/dock_solv.prm

>  <Rbt.Receptor>
prm/pocket_docking_3.prm

>  <SCORE>
-13.6595

>  <SCORE.INTER>
-8.54748

>  <SCORE.INTER.CONST>
1

>  <SCORE.INTER.POLAR>
0

>  <SCORE.INTER.ROT>
7

>  <SCORE.INTER.SOLV>
12.9105

>  <SCORE.INTER.VDW>
-18.2685

>  <SCORE.INTER.norm>
-0.316573

>  <SCORE.INTRA>
-5.13949

>  <SCORE.INTRA.DIHEDRAL>
-2.68183

>  <SCORE.INTRA.DIHEDRAL.0>
8.34559

>  <SCORE.INTRA.POLAR>
0

>  <SCORE.INTRA.POLAR.0>
0

>  <SCORE.INTRA.REPUL>
0

>  <SCORE.INTRA.REPUL.0>
0

>  <SCORE.INTRA.SOLV>
-1.10659

>  <SCORE.INTRA.SOLV.lig_0>
-48.829

>  <SCORE.INTRA.VDW>
-3.24528

>  <SCORE.INTRA.VDW.0>
-1.77092

>  <SCORE.INTRA.norm>
-0.190352

>  <SCORE.RESTR>
0.027448

>  <SCORE.RESTR.CAVITY>
0.027448

>  <SCORE.RESTR.norm>
0.00101659

>  <SCORE.SYSTEM>
0

>  <SCORE.SYSTEM.CONST>
0

>  <SCORE.SYSTEM.DIHEDRAL>
0

>  <SCORE.SYSTEM.SOLV>
0

>  <SCORE.SYSTEM.norm>
0

>  <SCORE.heavy>
27

>  <SCORE.norm>
-0.505908

>  <RMSD>
5.363

$$$$
ligand
 OpenBabel02271912153D
libRbt.so/2013.1/901 2013/11/27
 27 29  0  0  0  0  0  0  0  0999 V2000
   49.8241  -26.0485 -103.3910 N   0  0  0  0  0  0  0  0  0  0  0  0
   48.3650  -26.0897 -103.2430 C   0  0  2  0  0  0  0  0  0  0  0  0
   47.8423  -24.6900 -102.9973 C   0  0  0  0  0  0  0  0  0  0  0  0
   48.1477  -24.0902 -101.9776 O   0  0  0  0  0  0  0  0  0  0  0  0
   47.9473  -26.9879 -102.0707 C   0  0  0  0  0  0  0  0  0  0  0  0
   48.4123  -28.4200 -102.2937 C   0  0  0  0  0  0  0  0  0  0  0  0
   47.9992  -29.5419 -100.9030 S   0  0  2  0  0  0  0  0  0  0  0  0
   49.4616  -30.6190 -100.7583 C   0  0  0  0  0  0  0  0  0  0  0  0
   46.9427  -30.6277 -101.8588 C   0  0  0  0  0  0  0  0  0  0  0  0
   45.4839  -30.2601 -101.7994 C   0  0  1  0  0  0  0  0  0  0  0  0
   45.3748  -28.8468 -102.0399 O   0  0  0  0  0  0  0  0  0  0  0  0
   44.9309  -30.9322 -102.9911 C   0  0  1  0  0  0  0  0  0  0  0  0
   44.3433  -32.1753 -102.6107 O   0  0  0  0  0  0  0  0  0  0  0  0
   43.8658  -29.9779 -103.4351 C   0  0  1  0  0  0  0  0  0  0  0  0
   42.6250  -30.2588 -102.7548 O   0  0  0  0  0  0  0  0  0  0  0  0
   44.3720  -28.5565 -103.0460 C   0  0  2  0  0  0  0  0  0  0  0  0
   47.1415  -24.1387 -103.8278 O   0  0  0  0  0  0  0  0  0  0  0  0
   47.7884  -28.3353 -107.1053 N   0  0  0  0  0  0  0  0  0  0  0  0
   47.4690  -29.4151 -106.3502 C   0  0  0  0  0  0  0  0  0  0  0  0
   46.5468  -29.3464 -105.3675 N   0  0  0  0  0  0  0  0  0  0  0  0
   45.9752  -28.1746 -105.0455 C   0  0  0  0  0  0  0  0  0  0  0  0
   46.3165  -26.9905 -105.7965 C   0  0  0  0  0  0  0  0  0  0  0  0
   47.2550  -27.1192 -106.8633 C   0  0  0  0  0  0  0  0  0  0  0  0
   47.6189  -26.0296 -107.6282 N   0  0  0  0  0  0  0  0  0  0  0  0
   45.6204  -25.9734 -105.2752 N   0  0  0  0  0  0  0  0  0  0  0  0
   44.9035  -26.4161 -104.2854 C   0  0  0  0  0  0  0  0  0  0  0  0
   45.0744  -27.7682 -104.1003 N   0  0  0  0  0  0  0  0  0  0  0  0
  2  1  1  1  0  0  0
  2  3  1  0  0  0  0
  2  5  1  0  0  0  0
  3  4  1  0  0  0  0
  3 17  1  0  0  0  0
  5  6  1  0  0  0  0
  7  6  1  6  0  0  0
  7  8  1  0  0  0  0
  7  9  1  0  0  0  0
 10  9  1  6  0  0  0
 10 11  1  0  0  0  0
 10 12  1  0  0  0  0
 11 16  1  0  0  0  0
 12 13  1  1  0  0  0
 12 14  1  0  0  0  0
 14 15  1  1  0  0  0
 14 16  1  0  0  0  0
 16 27  1  6  0  0  0
 18 19  2  0  0  0  0
 18 23  1  0  0  0  0
 19 20  1  0  0  0  0
 20 21  2  0  0  0  0
 21 22  1  0  0  0  0
 21 27  1  0  0  0  0
 22 23  2  0  0  0  0
 22 25  1  0  0  0  0
 23 24  1  0  0  0  0
 25 26  2  0  0  0  0
 26 27  1  0  0  0  0
M  END
>  <CHROM.1>
-64.87438177,-61.02267945,177.98362950,-141.17789299,-93.71362550,47.79396445
73.55689630,46.63950481,-28.15329031,-103.49599018,-1.01048298,0.75511933
2.27656758

>  <Name>
ligand

>  <RI>
0

>  <Rbt.Current_Directory>
/home/itssahil/PROJECTS/Mol_Feturizer/Test_systems_manuscript/rnas/4l81

>  <Rbt.Executable>
rbdock ($Id: //depot/dev/client3/rdock/2013.1/src/exe/rbdock.cxx#4 $)

>  <Rbt.Library>
libRbt.so (2013.1, Build901 2013/11/27)

>  <Rbt.Parameter_File>
/export/apps/rDock/src/rDock_2013.1_src/data/scripts/dock_solv.prm

>  <Rbt.Receptor>
prm/pocket_docking_6.prm

>  <SCORE>
-13.3652

>  <SCORE.INTER>
-9.40575

>  <SCORE.INTER.CONST>
1

>  <SCORE.INTER.POLAR>
0

>  <SCORE.INTER.ROT>
7

>  <SCORE.INTER.SOLV>
9.57529

>  <SCORE.INTER.VDW>
-17.7289

>  <SCORE.INTER.norm>
-0.348361

>  <SCORE.INTRA>
-3.95941

>  <SCORE.INTRA.DIHEDRAL>
1.00225

>  <SCORE.INTRA.DIHEDRAL.0>
8.34559

>  <SCORE.INTRA.POLAR>
0

>  <SCORE.INTRA.POLAR.0>
0

>  <SCORE.INTRA.REPUL>
0

>  <SCORE.INTRA.REPUL.0>
0

>  <SCORE.INTRA.SOLV>
-0.143448

>  <SCORE.INTRA.SOLV.lig_0>
-48.829

>  <SCORE.INTRA.VDW>
-4.38881

>  <SCORE.INTRA.VDW.0>
-1.77092

>  <SCORE.INTRA.norm>
-0.146645

>  <SCORE.RESTR>
0

>  <SCORE.RESTR.CAVITY>
0

>  <SCORE.RESTR.norm>
0

>  <SCORE.SYSTEM>
0

>  <SCORE.SYSTEM.CONST>
0

>  <SCORE.SYSTEM.DIHEDRAL>
0

>  <SCORE.SYSTEM.SOLV>
0

>  <SCORE.SYSTEM.norm>
0

>  <SCORE.heavy>
27

>  <SCORE.norm>
-0.495006

>  <RMSD>
5.371

$$$$
ligand
 OpenBabel02271912153D
libRbt.so/2013.1/901 2013/11/27
 27 29  0  0  0  0  0  0  0  0999 V2000
   46.9521  -30.8996 -105.7723 N   0  0  0  0  0  0  0  0  0  0  0  0
   47.2787  -30.4985 -104.3993 C   0  0  2  0  0  0  0  0  0  0  0  0
   46.9742  -31.6409 -103.4532 C   0  0  0  0  0  0  0  0  0  0  0  0
   45.8859  -32.1951 -103.4893 O   0  0  0  0  0  0  0  0  0  0  0  0
   46.4683  -29.2684 -103.9685 C   0  0  0  0  0  0  0  0  0  0  0  0
   46.8002  -28.0680 -104.8436 C   0  0  0  0  0  0  0  0  0  0  0  0
   45.8791  -26.5526 -104.3761 S   0  0  2  0  0  0  0  0  0  0  0  0
   44.1905  -26.8587 -104.9883 C   0  0  0  0  0  0  0  0  0  0  0  0
   46.4914  -25.5489 -105.7276 C   0  0  0  0  0  0  0  0  0  0  0  0
   47.8475  -24.9478 -105.4698 C   0  0  1  0  0  0  0  0  0  0  0  0
   48.0945  -25.0067 -104.0547 O   0  0  0  0  0  0  0  0  0  0  0  0
   48.7598  -25.9243 -106.0958 C   0  0  1  0  0  0  0  0  0  0  0  0
   49.1205  -25.4748 -107.4009 O   0  0  0  0  0  0  0  0  0  0  0  0
   49.9523  -25.8779 -105.1914 C   0  0  1  0  0  0  0  0  0  0  0  0
   50.8565  -24.8331 -105.6063 O   0  0  0  0  0  0  0  0  0  0  0  0
   49.4011  -25.5657 -103.7678 C   0  0  2  0  0  0  0  0  0  0  0  0
   47.8216  -32.0378 -102.6726 O   0  0  0  0  0  0  0  0  0  0  0  0
   50.8629  -30.3027 -101.8647 N   0  0  0  0  0  0  0  0  0  0  0  0
   51.4774  -29.5720 -102.8272 C   0  0  0  0  0  0  0  0  0  0  0  0
   51.0238  -28.3548 -103.1926 N   0  0  0  0  0  0  0  0  0  0  0  0
   49.8880  -27.8626 -102.6719 C   0  0  0  0  0  0  0  0  0  0  0  0
   49.1783  -28.6254 -101.6733 C   0  0  0  0  0  0  0  0  0  0  0  0
   49.7231  -29.8827 -101.2761 C   0  0  0  0  0  0  0  0  0  0  0  0
   49.1012  -30.6591 -100.3194 N   0  0  0  0  0  0  0  0  0  0  0  0
   48.0936  -27.9210 -101.3301 N   0  0  0  0  0  0  0  0  0  0  0  0
   48.0691  -26.8203 -102.0209 C   0  0  0  0  0  0  0  0  0  0  0  0
   49.1541  -26.7243 -102.8606 N   0  0  0  0  0  0  0  0  0  0  0  0
  2  1  1  6  0  0  0
  2  3  1  0  0  0  0
  2  5  1  0  0  0  0
  3  4  1  0  0  0  0
  3 17  1  0  0  0  0
  5  6  1  0  0  0  0
  7  6  1  6  0  0  0
  7  8  1  0  0  0  0
  7  9  1  0  0  0  0
 10  9  1  1  0  0  0
 10 11  1  0  0  0  0
 10 12  1  0  0  0  0
 11 16  1  0  0  0  0
 12 13  1  6  0  0  0
 12 14  1  0  0  0  0
 14 15  1  6  0  0  0
 14 16  1  0  0  0  0
 16 27  1  1  0  0  0
 18 19  2  0  0  0  0
 18 23  1  0  0  0  0
 19 20  1  0  0  0  0
 20 21  2  0  0  0  0
 21 22  1  0  0  0  0
 21 27  1  0  0  0  0
 22 23  2  0  0  0  0
 22 25  1  0  0  0  0
 23 24  1  0  0  0  0
 25 26  2  0  0  0  0
 26 27  1  0  0  0  0
M  END
>  <CHROM.1>
-50.55239474,-62.39167457,-179.44033848,-74.59630539,-82.51738445,-17.63302627
153.05320604,48.19050223,-27.98215378,-103.83575945,1.55196900,0.41963968
2.65036054

>  <Name>
ligand

>  <RI>
0

>  <Rbt.Current_Directory>
/home/itssahil/PROJECTS/Mol_Feturizer/Test_systems_manuscript/rnas/4l81

>  <Rbt.Executable>
rbdock ($Id: //depot/dev/client3/rdock/2013.1/src/exe/rbdock.cxx#4 $)

>  <Rbt.Library>
libRbt.so (2013.1, Build901 2013/11/27)

>  <Rbt.Parameter_File>
/export/apps/rDock/src/rDock_2013.1_src/data/scripts/dock_solv.prm

>  <Rbt.Receptor>
prm/pocket_docking_3.prm

>  <SCORE>
-8.99704

>  <SCORE.INTER>
-6.36706

>  <SCORE.INTER.CONST>
1

>  <SCORE.INTER.POLAR>
0

>  <SCORE.INTER.ROT>
7

>  <SCORE.INTER.SOLV>
11.2054

>  <SCORE.INTER.VDW>
-16.2465

>  <SCORE.INTER.norm>
-0.235817

>  <SCORE.INTRA>
-2.62998

>  <SCORE.INTRA.DIHEDRAL>
-0.261236

>  <SCORE.INTRA.DIHEDRAL.0>
8.34559

>  <SCORE.INTRA.POLAR>
0

>  <SCORE.INTRA.POLAR.0>
0

>  <SCORE.INTRA.REPUL>
0

>  <SCORE.INTRA.REPUL.0>
0

>  <SCORE.INTRA.SOLV>
0.819957

>  <SCORE.INTRA.SOLV.lig_0>
-48.829

>  <SCORE.INTRA.VDW>
-2.90934

>  <SCORE.INTRA.VDW.0>
-1.77092

>  <SCORE.INTRA.norm>
-0.0974067

>  <SCORE.RESTR>
0

>  <SCORE.RESTR.CAVITY>
0

>  <SCORE.RESTR.norm>
0

>  <SCORE.SYSTEM>
0

>  <SCORE.SYSTEM.CONST>
0

>  <SCORE.SYSTEM.DIHEDRAL>
0

>  <SCORE.SYSTEM.SOLV>
0

>  <SCORE.SYSTEM.norm>
0

>  <SCORE.heavy>
27

>  <SCORE.norm>
-0.333224

>  <RMSD>
5.377

$$$$
ligand
 OpenBabel02271912153D
libRbt.so/2013.1/901 2013/11/27
 27 29  0  0  0  0  0  0  0  0999 V2000
   48.9958  -23.3441 -102.6724 N   0  0  0  0  0  0  0  0  0  0  0  0
   49.6795  -24.3939 -103.4360 C   0  0  2  0  0  0  0  0  0  0  0  0
   50.5540  -23.7589 -104.4966 C   0  0  0  0  0  0  0  0  0  0  0  0
   51.2643  -24.4559 -105.2055 O   0  0  0  0  0  0  0  0  0  0  0  0
   48.6753  -25.3329 -104.1182 C   0  0  0  0  0  0  0  0  0  0  0  0
   47.8135  -26.0459 -103.0859 C   0  0  0  0  0  0  0  0  0  0  0  0
   46.6591  -27.2659 -103.8223 S   0  0  2  0  0  0  0  0  0  0  0  0
   45.2412  -26.2578 -104.3634 C   0  0  0  0  0  0  0  0  0  0  0  0
   46.0063  -27.8566 -102.2623 C   0  0  0  0  0  0  0  0  0  0  0  0
   44.9076  -28.8750 -102.4121 C   0  0  1  0  0  0  0  0  0  0  0  0
   45.3016  -29.8016 -103.4383 O   0  0  0  0  0  0  0  0  0  0  0  0
   44.9714  -29.6116 -101.1349 C   0  0  1  0  0  0  0  0  0  0  0  0
   43.9889  -29.0989 -100.2365 O   0  0  0  0  0  0  0  0  0  0  0  0
   44.6096  -31.0049 -101.5473 C   0  0  1  0  0  0  0  0  0  0  0  0
   43.1776  -31.1788 -101.5257 O   0  0  0  0  0  0  0  0  0  0  0  0
   45.1409  -31.1749 -103.0022 C   0  0  2  0  0  0  0  0  0  0  0  0
   50.5318  -22.5535 -104.6738 O   0  0  0  0  0  0  0  0  0  0  0  0
   50.2396  -31.5961 -101.5794 N   0  0  0  0  0  0  0  0  0  0  0  0
   49.3120  -30.7372 -101.0898 C   0  0  0  0  0  0  0  0  0  0  0  0
   48.0300  -30.7613 -101.5106 N   0  0  0  0  0  0  0  0  0  0  0  0
   47.6497  -31.5855 -102.5003 C   0  0  0  0  0  0  0  0  0  0  0  0
   48.6146  -32.4888 -103.0795 C   0  0  0  0  0  0  0  0  0  0  0  0
   49.9457  -32.4686 -102.5665 C   0  0  0  0  0  0  0  0  0  0  0  0
   50.9159  -33.3125 -103.0677 N   0  0  0  0  0  0  0  0  0  0  0  0
   47.9863  -33.1844 -104.0345 N   0  0  0  0  0  0  0  0  0  0  0  0
   46.7491  -32.7910 -104.0986 C   0  0  0  0  0  0  0  0  0  0  0  0
   46.4798  -31.8114 -103.1714 N   0  0  0  0  0  0  0  0  0  0  0  0
  2  1  1  6  0  0  0
  2  3  1  0  0  0  0
  2  5  1  0  0  0  0
  3  4  1  0  0  0  0
  3 17  1  0  0  0  0
  5  6  1  0  0  0  0
  7  6  1  1  0  0  0
  7  8  1  0  0  0  0
  7  9  1  0  0  0  0
 10  9  1  1  0  0  0
 10 11  1  0  0  0  0
 10 12  1  0  0  0  0
 11 16  1  0  0  0  0
 12 13  1  1  0  0  0
 12 14  1  0  0  0  0
 14 15  1  6  0  0  0
 14 16  1  0  0  0  0
 16 27  1  1  0  0  0
 18 19  2  0  0  0  0
 18 23  1  0  0  0  0
 19 20  1  0  0  0  0
 20 21  2  0  0  0  0
 21 22  1  0  0  0  0
 21 27  1  0  0  0  0
 22 23  2  0  0  0  0
 22 25  1  0  0  0  0
 23 24  1  0  0  0  0
 25 26  2  0  0  0  0
 26 27  1  0  0  0  0
M  END
>  <CHROM.1>
176.45264874,-61.80941546,-176.36936192,-82.56593444,176.65697603,43.45089600
67.95015332,47.45313180,-28.81233834,-102.94877265,1.21399711,0.21711246
-0.14358014

>  <Name>
ligand

>  <RI>
0

>  <Rbt.Current_Directory>
/home/itssahil/PROJECTS/Mol_Feturizer/Test_systems_manuscript/rnas/4l81

>  <Rbt.Executable>
rbdock ($Id: //depot/dev/client3/rdock/2013.1/src/exe/rbdock.cxx#4 $)

>  <Rbt.Library>
libRbt.so (2013.1, Build901 2013/11/27)

>  <Rbt.Parameter_File>
/export/apps/rDock/src/rDock_2013.1_src/data/scripts/dock_solv.prm

>  <Rbt.Receptor>
prm/pocket_docking_6.prm

>  <SCORE>
-16.3543

>  <SCORE.INTER>
-13.2265

>  <SCORE.INTER.CONST>
1

>  <SCORE.INTER.POLAR>
0

>  <SCORE.INTER.ROT>
7

>  <SCORE.INTER.SOLV>
14.5343

>  <SCORE.INTER.VDW>
-21.9291

>  <SCORE.INTER.norm>
-0.489869

>  <SCORE.INTRA>
-3.12787

>  <SCORE.INTRA.DIHEDRAL>
-3.67524

>  <SCORE.INTRA.DIHEDRAL.0>
8.34559

>  <SCORE.INTRA.POLAR>
0

>  <SCORE.INTRA.POLAR.0>
0

>  <SCORE.INTRA.REPUL>
0

>  <SCORE.INTRA.REPUL.0>
0

>  <SCORE.INTRA.SOLV>
-0.549807

>  <SCORE.INTRA.SOLV.lig_0>
-48.829

>  <SCORE.INTRA.VDW>
-1.01534

>  <SCORE.INTRA.VDW.0>
-1.77092

>  <SCORE.INTRA.norm>
-0.115847

>  <SCORE.RESTR>
0

>  <SCORE.RESTR.CAVITY>
0

>  <SCORE.RESTR.norm>
0

>  <SCORE.SYSTEM>
0

>  <SCORE.SYSTEM.CONST>
0

>  <SCORE.SYSTEM.DIHEDRAL>
0

>  <SCORE.SYSTEM.SOLV>
0

>  <SCORE.SYSTEM.norm>
0

>  <SCORE.heavy>
27

>  <SCORE.norm>
-0.605716

>  <RMSD>
5.386

$$$$
ligand
 OpenBabel02271912153D
libRbt.so/2013.1/901 2013/11/27
 27 29  0  0  0  0  0  0  0  0999 V2000
   46.4576  -22.9049 -107.1212 N   0  0  0  0  0  0  0  0  0  0  0  0
   46.8348  -24.3148 -106.9714 C   0  0  2  0  0  0  0  0  0  0  0  0
   47.3763  -24.8354 -108.2862 C   0  0  0  0  0  0  0  0  0  0  0  0
   46.9574  -24.3885 -109.3433 O   0  0  0  0  0  0  0  0  0  0  0  0
   45.6331  -25.1738 -106.5551 C   0  0  0  0  0  0  0  0  0  0  0  0
   46.0473  -26.6252 -106.3586 C   0  0  0  0  0  0  0  0  0  0  0  0
   44.7729  -27.6351 -105.5104 S   0  0  2  0  0  0  0  0  0  0  0  0
   44.6168  -26.8578 -103.8700 C   0  0  0  0  0  0  0  0  0  0  0  0
   45.8717  -28.9829 -105.0805 C   0  0  0  0  0  0  0  0  0  0  0  0
   45.1550  -30.2355 -104.6514 C   0  0  1  0  0  0  0  0  0  0  0  0
   46.0908  -31.3247 -104.7198 O   0  0  0  0  0  0  0  0  0  0  0  0
   44.9015  -29.9898 -103.2186 C   0  0  1  0  0  0  0  0  0  0  0  0
   43.5708  -29.5061 -103.0435 O   0  0  0  0  0  0  0  0  0  0  0  0
   45.0291  -31.3601 -102.6284 C   0  0  1  0  0  0  0  0  0  0  0  0
   43.7647  -32.0522 -102.6886 O   0  0  0  0  0  0  0  0  0  0  0  0
   46.0829  -32.1075 -103.4995 C   0  0  2  0  0  0  0  0  0  0  0  0
   48.2559  -25.6785 -108.3004 O   0  0  0  0  0  0  0  0  0  0  0  0
   51.1073  -33.7538 -103.9930 N   0  0  0  0  0  0  0  0  0  0  0  0
   50.0447  -34.0967 -104.7619 C   0  0  0  0  0  0  0  0  0  0  0  0
   48.8194  -33.5708 -104.5548 N   0  0  0  0  0  0  0  0  0  0  0  0
   48.5929  -32.7509 -103.5156 C   0  0  0  0  0  0  0  0  0  0  0  0
   49.6870  -32.3913 -102.6461 C   0  0  0  0  0  0  0  0  0  0  0  0
   50.9777  -32.9264 -102.9343 C   0  0  0  0  0  0  0  0  0  0  0  0
   52.0699  -32.6160 -102.1498 N   0  0  0  0  0  0  0  0  0  0  0  0
   49.1958  -31.5799 -101.7020 N   0  0  0  0  0  0  0  0  0  0  0  0
   47.9220  -31.4195 -101.9044 C   0  0  0  0  0  0  0  0  0  0  0  0
   47.4935  -32.1113 -103.0132 N   0  0  0  0  0  0  0  0  0  0  0  0
  2  1  1  6  0  0  0
  2  3  1  0  0  0  0
  2  5  1  0  0  0  0
  3  4  1  0  0  0  0
  3 17  1  0  0  0  0
  5  6  1  0  0  0  0
  7  6  1  6  0  0  0
  7  8  1  0  0  0  0
  7  9  1  0  0  0  0
 10  9  1  1  0  0  0
 10 11  1  0  0  0  0
 10 12  1  0  0  0  0
 11 16  1  0  0  0  0
 12 13  1  6  0  0  0
 12 14  1  0  0  0  0
 14 15  1  6  0  0  0
 14 16  1  0  0  0  0
 16 27  1  1  0  0  0
 18 19  2  0  0  0  0
 18 23  1  0  0  0  0
 19 20  1  0  0  0  0
 20 21  2  0  0  0  0
 21 22  1  0  0  0  0
 21 27  1  0  0  0  0
 22 23  2  0  0  0  0
 22 25  1  0  0  0  0
 23 24  1  0  0  0  0
 25 26  2  0  0  0  0
 26 27  1  0  0  0  0
M  END
>  <CHROM.1>
-31.35434670,-178.13016805,167.21892740,-62.67001823,-165.23063205,163.27397404
-71.47533148,46.96668043,-29.49174891,-104.64743645,-1.88804105,-0.26395298
2.56488342

>  <Name>
ligand

>  <RI>
0

>  <Rbt.Current_Directory>
/home/itssahil/PROJECTS/Mol_Feturizer/Test_systems_manuscript/rnas/4l81

>  <Rbt.Executable>
rbdock ($Id: //depot/dev/client3/rdock/2013.1/src/exe/rbdock.cxx#4 $)

>  <Rbt.Library>
libRbt.so (2013.1, Build901 2013/11/27)

>  <Rbt.Parameter_File>
/export/apps/rDock/src/rDock_2013.1_src/data/scripts/dock_solv.prm

>  <Rbt.Receptor>
prm/pocket_docking_5.prm

>  <SCORE>
-10.9068

>  <SCORE.INTER>
-9.80049

>  <SCORE.INTER.CONST>
1

>  <SCORE.INTER.POLAR>
0

>  <SCORE.INTER.ROT>
7

>  <SCORE.INTER.SOLV>
15.1876

>  <SCORE.INTER.VDW>
-19.8628

>  <SCORE.INTER.norm>
-0.362981

>  <SCORE.INTRA>
-1.10627

>  <SCORE.INTRA.DIHEDRAL>
-2.06896

>  <SCORE.INTRA.DIHEDRAL.0>
8.34559

>  <SCORE.INTRA.POLAR>
0

>  <SCORE.INTRA.POLAR.0>
0

>  <SCORE.INTRA.REPUL>
0

>  <SCORE.INTRA.REPUL.0>
0

>  <SCORE.INTRA.SOLV>
-0.999753

>  <SCORE.INTRA.SOLV.lig_0>
-48.829

>  <SCORE.INTRA.VDW>
0.428087

>  <SCORE.INTRA.VDW.0>
-1.77092

>  <SCORE.INTRA.norm>
-0.040973

>  <SCORE.RESTR>
0

>  <SCORE.RESTR.CAVITY>
0

>  <SCORE.RESTR.norm>
0

>  <SCORE.SYSTEM>
0

>  <SCORE.SYSTEM.CONST>
0

>  <SCORE.SYSTEM.DIHEDRAL>
0

>  <SCORE.SYSTEM.SOLV>
0

>  <SCORE.SYSTEM.norm>
0

>  <SCORE.heavy>
27

>  <SCORE.norm>
-0.403954

>  <RMSD>
5.388

$$$$
ligand
 OpenBabel02271912153D
libRbt.so/2013.1/901 2013/11/27
 27 29  0  0  0  0  0  0  0  0999 V2000
   44.6220  -29.3773 -105.6448 N   0  0  0  0  0  0  0  0  0  0  0  0
   44.4951  -28.8686 -104.2745 C   0  0  2  0  0  0  0  0  0  0  0  0
   44.6731  -27.3649 -104.2753 C   0  0  0  0  0  0  0  0  0  0  0  0
   45.7417  -26.8728 -104.6050 O   0  0  0  0  0  0  0  0  0  0  0  0
   45.5471  -29.4920 -103.3471 C   0  0  0  0  0  0  0  0  0  0  0  0
   45.3081  -29.0782 -101.9019 C   0  0  0  0  0  0  0  0  0  0  0  0
   46.4673  -29.8673 -100.7200 S   0  0  2  0  0  0  0  0  0  0  0  0
   46.1246  -29.0259  -99.1407 C   0  0  0  0  0  0  0  0  0  0  0  0
   47.9065  -28.9316 -101.2316 C   0  0  0  0  0  0  0  0  0  0  0  0
   48.8159  -29.6822 -102.1679 C   0  0  1  0  0  0  0  0  0  0  0  0
   48.7146  -29.0714 -103.4655 O   0  0  0  0  0  0  0  0  0  0  0  0
   50.1581  -29.3508 -101.6520 C   0  0  1  0  0  0  0  0  0  0  0  0
   50.6211  -30.4046 -100.8091 O   0  0  0  0  0  0  0  0  0  0  0  0
   50.9805  -29.2973 -102.9022 C   0  0  1  0  0  0  0  0  0  0  0  0
   51.4791  -30.6105 -103.2314 O   0  0  0  0  0  0  0  0  0  0  0  0
   50.0235  -28.7981 -104.0260 C   0  0  2  0  0  0  0  0  0  0  0  0
   43.7442  -26.6337 -103.9797 O   0  0  0  0  0  0  0  0  0  0  0  0
   48.6250  -23.8296 -102.7785 N   0  0  0  0  0  0  0  0  0  0  0  0
   48.3076  -24.9696 -102.1169 C   0  0  0  0  0  0  0  0  0  0  0  0
   48.7651  -26.1741 -102.5181 N   0  0  0  0  0  0  0  0  0  0  0  0
   49.4833  -26.2925 -103.6467 C   0  0  0  0  0  0  0  0  0  0  0  0
   49.8100  -25.1091 -104.4053 C   0  0  0  0  0  0  0  0  0  0  0  0
   49.3528  -23.8497 -103.9151 C   0  0  0  0  0  0  0  0  0  0  0  0
   49.6376  -22.6775 -104.5856 N   0  0  0  0  0  0  0  0  0  0  0  0
   50.5174  -25.5016 -105.4712 N   0  0  0  0  0  0  0  0  0  0  0  0
   50.6442  -26.7949 -105.4407 C   0  0  0  0  0  0  0  0  0  0  0  0
   50.0336  -27.3384 -104.3346 N   0  0  0  0  0  0  0  0  0  0  0  0
  2  1  1  6  0  0  0
  2  3  1  0  0  0  0
  2  5  1  0  0  0  0
  3  4  1  0  0  0  0
  3 17  1  0  0  0  0
  5  6  1  0  0  0  0
  7  6  1  6  0  0  0
  7  8  1  0  0  0  0
  7  9  1  0  0  0  0
 10  9  1  1  0  0  0
 10 11  1  0  0  0  0
 10 12  1  0  0  0  0
 11 16  1  0  0  0  0
 12 13  1  1  0  0  0
 12 14  1  0  0  0  0
 14 15  1  6  0  0  0
 14 16  1  0  0  0  0
 16 27  1  1  0  0  0
 18 19  2  0  0  0  0
 18 23  1  0  0  0  0
 19 20  1  0  0  0  0
 20 21  2  0  0  0  0
 21 22  1  0  0  0  0
 21 27  1  0  0  0  0
 22 23  2  0  0  0  0
 22 25  1  0  0  0  0
 23 24  1  0  0  0  0
 25 26  2  0  0  0  0
 26 27  1  0  0  0  0
M  END
>  <CHROM.1>
-64.10079704,-173.63296137,176.51251648,172.02297309,-99.83842474,110.11096502
37.33954336,48.05731424,-27.77683946,-103.06060940,2.26172789,0.04370104
2.62795123

>  <Name>
ligand

>  <RI>
0

>  <Rbt.Current_Directory>
/home/itssahil/PROJECTS/Mol_Feturizer/Test_systems_manuscript/rnas/4l81

>  <Rbt.Executable>
rbdock ($Id: //depot/dev/client3/rdock/2013.1/src/exe/rbdock.cxx#4 $)

>  <Rbt.Library>
libRbt.so (2013.1, Build901 2013/11/27)

>  <Rbt.Parameter_File>
/export/apps/rDock/src/rDock_2013.1_src/data/scripts/dock_solv.prm

>  <Rbt.Receptor>
prm/pocket_docking_5.prm

>  <SCORE>
-14.6297

>  <SCORE.INTER>
-13.1418

>  <SCORE.INTER.CONST>
1

>  <SCORE.INTER.POLAR>
0

>  <SCORE.INTER.ROT>
7

>  <SCORE.INTER.SOLV>
10.3099

>  <SCORE.INTER.VDW>
-20.4645

>  <SCORE.INTER.norm>
-0.486735

>  <SCORE.INTRA>
-1.48783

>  <SCORE.INTRA.DIHEDRAL>
2.29746

>  <SCORE.INTRA.DIHEDRAL.0>
8.34559

>  <SCORE.INTRA.POLAR>
0

>  <SCORE.INTRA.POLAR.0>
0

>  <SCORE.INTRA.REPUL>
0

>  <SCORE.INTRA.REPUL.0>
0

>  <SCORE.INTRA.SOLV>
-1.15743

>  <SCORE.INTRA.SOLV.lig_0>
-48.829

>  <SCORE.INTRA.VDW>
-2.05784

>  <SCORE.INTRA.VDW.0>
-1.77092

>  <SCORE.INTRA.norm>
-0.0551047

>  <SCORE.RESTR>
0

>  <SCORE.RESTR.CAVITY>
0

>  <SCORE.RESTR.norm>
0

>  <SCORE.SYSTEM>
0

>  <SCORE.SYSTEM.CONST>
0

>  <SCORE.SYSTEM.DIHEDRAL>
0

>  <SCORE.SYSTEM.SOLV>
0

>  <SCORE.SYSTEM.norm>
0

>  <SCORE.heavy>
27

>  <SCORE.norm>
-0.54184

>  <RMSD>
5.398

$$$$
ligand
 OpenBabel02271912153D
libRbt.so/2013.1/901 2013/11/27
 27 29  0  0  0  0  0  0  0  0999 V2000
   48.7200  -25.2650 -107.1757 N   0  0  0  0  0  0  0  0  0  0  0  0
   48.3128  -26.4648 -107.9155 C   0  0  2  0  0  0  0  0  0  0  0  0
   48.3621  -26.1825 -109.4024 C   0  0  0  0  0  0  0  0  0  0  0  0
   48.6280  -25.0605 -109.8063 O   0  0  0  0  0  0  0  0  0  0  0  0
   46.8889  -26.8968 -107.5397 C   0  0  0  0  0  0  0  0  0  0  0  0
   46.8262  -27.3502 -106.0880 C   0  0  0  0  0  0  0  0  0  0  0  0
   45.1528  -27.8917 -105.5686 S   0  0  2  0  0  0  0  0  0  0  0  0
   44.2493  -26.3320 -105.3028 C   0  0  0  0  0  0  0  0  0  0  0  0
   45.6012  -28.2506 -103.8719 C   0  0  0  0  0  0  0  0  0  0  0  0
   44.7378  -29.3017 -103.2264 C   0  0  1  0  0  0  0  0  0  0  0  0
   45.0609  -30.5676 -103.8265 O   0  0  0  0  0  0  0  0  0  0  0  0
   45.2584  -29.3467 -101.8463 C   0  0  1  0  0  0  0  0  0  0  0  0
   44.4339  -28.5503 -100.9970 O   0  0  0  0  0  0  0  0  0  0  0  0
   45.1097  -30.7940 -101.4922 C   0  0  1  0  0  0  0  0  0  0  0  0
   43.7939  -31.0473 -100.9576 O   0  0  0  0  0  0  0  0  0  0  0  0
   45.3015  -31.5844 -102.8213 C   0  0  2  0  0  0  0  0  0  0  0  0
   48.1702  -27.0775 -110.2067 O   0  0  0  0  0  0  0  0  0  0  0  0
   50.4832  -31.8069 -101.6820 N   0  0  0  0  0  0  0  0  0  0  0  0
   49.5346  -31.0506 -101.0770 C   0  0  0  0  0  0  0  0  0  0  0  0
   48.2359  -31.1187 -101.4374 N   0  0  0  0  0  0  0  0  0  0  0  0
   47.8524  -31.8795 -102.4755 C   0  0  0  0  0  0  0  0  0  0  0  0
   48.8362  -32.6702 -103.1752 C   0  0  0  0  0  0  0  0  0  0  0  0
   50.1889  -32.6106 -102.7257 C   0  0  0  0  0  0  0  0  0  0  0  0
   51.1786  -33.3483 -103.3430 N   0  0  0  0  0  0  0  0  0  0  0  0
   48.1999  -33.3214 -104.1559 N   0  0  0  0  0  0  0  0  0  0  0  0
   46.9405  -33.0011 -104.1275 C   0  0  0  0  0  0  0  0  0  0  0  0
   46.6641  -32.1207 -103.1077 N   0  0  0  0  0  0  0  0  0  0  0  0
  2  1  1  1  0  0  0
  2  3  1  0  0  0  0
  2  5  1  0  0  0  0
  3  4  1  0  0  0  0
  3 17  1  0  0  0  0
  5  6  1  0  0  0  0
  7  6  1  6  0  0  0
  7  8  1  0  0  0  0
  7  9  1  0  0  0  0
 10  9  1  6  0  0  0
 10 11  1  0  0  0  0
 10 12  1  0  0  0  0
 11 16  1  0  0  0  0
 12 13  1  1  0  0  0
 12 14  1  0  0  0  0
 14 15  1  6  0  0  0
 14 16  1  0  0  0  0
 16 27  1  1  0  0  0
 18 19  2  0  0  0  0
 18 23  1  0  0  0  0
 19 20  1  0  0  0  0
 20 21  2  0  0  0  0
 21 22  1  0  0  0  0
 21 27  1  0  0  0  0
 22 23  2  0  0  0  0
 22 25  1  0  0  0  0
 23 24  1  0  0  0  0
 25 26  2  0  0  0  0
 26 27  1  0  0  0  0
M  END
>  <CHROM.1>
-4.35093024,-65.89604762,-179.67461222,-77.64327839,-152.90013834,70.82273948
103.10922090,46.98192993,-29.49488970,-104.38163896,-1.55943911,-0.46869767
2.31545692

>  <Name>
ligand

>  <RI>
0

>  <Rbt.Current_Directory>
/home/itssahil/PROJECTS/Mol_Feturizer/Test_systems_manuscript/rnas/4l81

>  <Rbt.Executable>
rbdock ($Id: //depot/dev/client3/rdock/2013.1/src/exe/rbdock.cxx#4 $)

>  <Rbt.Library>
libRbt.so (2013.1, Build901 2013/11/27)

>  <Rbt.Parameter_File>
/export/apps/rDock/src/rDock_2013.1_src/data/scripts/dock_solv.prm

>  <Rbt.Receptor>
prm/pocket_docking_7.prm

>  <SCORE>
-15.7785

>  <SCORE.INTER>
-13.873

>  <SCORE.INTER.CONST>
1

>  <SCORE.INTER.POLAR>
0

>  <SCORE.INTER.ROT>
7

>  <SCORE.INTER.SOLV>
14.2384

>  <SCORE.INTER.VDW>
-22.2615

>  <SCORE.INTER.norm>
-0.513816

>  <SCORE.INTRA>
-1.90548

>  <SCORE.INTRA.DIHEDRAL>
-1.58

>  <SCORE.INTRA.DIHEDRAL.0>
8.34559

>  <SCORE.INTRA.POLAR>
0

>  <SCORE.INTRA.POLAR.0>
0

>  <SCORE.INTRA.REPUL>
0

>  <SCORE.INTRA.REPUL.0>
0

>  <SCORE.INTRA.SOLV>
-0.701957

>  <SCORE.INTRA.SOLV.lig_0>
-48.829

>  <SCORE.INTRA.VDW>
-0.7645

>  <SCORE.INTRA.VDW.0>
-1.77092

>  <SCORE.INTRA.norm>
-0.0705732

>  <SCORE.RESTR>
0

>  <SCORE.RESTR.CAVITY>
0

>  <SCORE.RESTR.norm>
0

>  <SCORE.SYSTEM>
0

>  <SCORE.SYSTEM.CONST>
0

>  <SCORE.SYSTEM.DIHEDRAL>
0

>  <SCORE.SYSTEM.SOLV>
0

>  <SCORE.SYSTEM.norm>
0

>  <SCORE.heavy>
27

>  <SCORE.norm>
-0.584389

>  <RMSD>
5.399

$$$$
ligand
 OpenBabel02271912153D
libRbt.so/2013.1/901 2013/11/27
 27 29  0  0  0  0  0  0  0  0999 V2000
   47.1774  -27.5864 -105.4418 N   0  0  0  0  0  0  0  0  0  0  0  0
   48.4495  -28.2824 -105.6655 C   0  0  2  0  0  0  0  0  0  0  0  0
   49.2642  -27.5277 -106.6948 C   0  0  0  0  0  0  0  0  0  0  0  0
   50.4017  -27.1664 -106.4335 O   0  0  0  0  0  0  0  0  0  0  0  0
   48.2222  -29.7152 -106.1664 C   0  0  0  0  0  0  0  0  0  0  0  0
   47.8388  -30.6361 -105.0167 C   0  0  0  0  0  0  0  0  0  0  0  0
   49.2200  -30.9593 -103.8543 S   0  0  2  0  0  0  0  0  0  0  0  0
   50.1305  -32.3358 -104.6261 C   0  0  0  0  0  0  0  0  0  0  0  0
   48.2453  -31.8917 -102.6755 C   0  0  0  0  0  0  0  0  0  0  0  0
   47.9295  -31.1316 -101.4148 C   0  0  1  0  0  0  0  0  0  0  0  0
   49.0236  -30.2363 -101.1535 O   0  0  0  0  0  0  0  0  0  0  0  0
   46.7869  -30.2904 -101.8205 C   0  0  1  0  0  0  0  0  0  0  0  0
   45.5676  -30.9112 -101.4163 O   0  0  0  0  0  0  0  0  0  0  0  0
   47.0102  -29.0390 -101.0292 C   0  0  1  0  0  0  0  0  0  0  0  0
   46.4052  -29.1553  -99.7247 O   0  0  0  0  0  0  0  0  0  0  0  0
   48.5546  -28.8910 -100.8844 C   0  0  2  0  0  0  0  0  0  0  0  0
   48.8053  -27.3041 -107.8013 O   0  0  0  0  0  0  0  0  0  0  0  0
   48.9851  -24.2297 -103.3915 N   0  0  0  0  0  0  0  0  0  0  0  0
   48.0427  -24.6009 -102.4904 C   0  0  0  0  0  0  0  0  0  0  0  0
   48.0709  -25.8094 -101.8906 N   0  0  0  0  0  0  0  0  0  0  0  0
   48.9915  -26.7240 -102.2362 C   0  0  0  0  0  0  0  0  0  0  0  0
   49.9898  -26.3861 -103.2219 C   0  0  0  0  0  0  0  0  0  0  0  0
   49.9565  -25.0780 -103.7903 C   0  0  0  0  0  0  0  0  0  0  0  0
   50.8868  -24.6853 -104.7310 N   0  0  0  0  0  0  0  0  0  0  0  0
   50.7701  -27.4611 -103.3837 N   0  0  0  0  0  0  0  0  0  0  0  0
   50.3436  -28.4128 -102.6080 C   0  0  0  0  0  0  0  0  0  0  0  0
   49.2532  -28.0153 -101.8699 N   0  0  0  0  0  0  0  0  0  0  0  0
  2  1  1  6  0  0  0
  2  3  1  0  0  0  0
  2  5  1  0  0  0  0
  3  4  1  0  0  0  0
  3 17  1  0  0  0  0
  5  6  1  0  0  0  0
  7  6  1  6  0  0  0
  7  8  1  0  0  0  0
  7  9  1  0  0  0  0
 10  9  1  6  0  0  0
 10 11  1  0  0  0  0
 10 12  1  0  0  0  0
 11 16  1  0  0  0  0
 12 13  1  1  0  0  0
 12 14  1  0  0  0  0
 14 15  1  1  0  0  0
 14 16  1  0  0  0  0
 16 27  1  6  0  0  0
 18 19  2  0  0  0  0
 18 23  1  0  0  0  0
 19 20  1  0  0  0  0
 20 21  2  0  0  0  0
 21 22  1  0  0  0  0
 21 27  1  0  0  0  0
 22 23  2  0  0  0  0
 22 25  1  0  0  0  0
 23 24  1  0  0  0  0
 25 26  2  0  0  0  0
 26 27  1  0  0  0  0
M  END
>  <CHROM.1>
124.92451899,-78.32941068,-69.92646554,-84.58541683,-105.53489762,-31.59318359
165.43542570,48.67980728,-28.50477827,-103.42121835,-0.46976671,-1.21004043
-2.63949678

>  <Name>
ligand

>  <RI>
0

>  <Rbt.Current_Directory>
/home/itssahil/PROJECTS/Mol_Feturizer/Test_systems_manuscript/rnas/4l81

>  <Rbt.Executable>
rbdock ($Id: //depot/dev/client3/rdock/2013.1/src/exe/rbdock.cxx#4 $)

>  <Rbt.Library>
libRbt.so (2013.1, Build901 2013/11/27)

>  <Rbt.Parameter_File>
/export/apps/rDock/src/rDock_2013.1_src/data/scripts/dock_solv.prm

>  <Rbt.Receptor>
prm/pocket_docking_4.prm

>  <SCORE>
-9.89917

>  <SCORE.INTER>
-8.2052

>  <SCORE.INTER.CONST>
1

>  <SCORE.INTER.POLAR>
0

>  <SCORE.INTER.ROT>
7

>  <SCORE.INTER.SOLV>
10.4945

>  <SCORE.INTER.VDW>
-17.235

>  <SCORE.INTER.norm>
-0.303896

>  <SCORE.INTRA>
-1.69398

>  <SCORE.INTRA.DIHEDRAL>
2.6128

>  <SCORE.INTRA.DIHEDRAL.0>
8.34559

>  <SCORE.INTRA.POLAR>
0

>  <SCORE.INTRA.POLAR.0>
0

>  <SCORE.INTRA.REPUL>
0

>  <SCORE.INTRA.REPUL.0>
0

>  <SCORE.INTRA.SOLV>
1.42283

>  <SCORE.INTRA.SOLV.lig_0>
-48.829

>  <SCORE.INTRA.VDW>
-3.7118

>  <SCORE.INTRA.VDW.0>
-1.77092

>  <SCORE.INTRA.norm>
-0.06274

>  <SCORE.RESTR>
0

>  <SCORE.RESTR.CAVITY>
0

>  <SCORE.RESTR.norm>
0

>  <SCORE.SYSTEM>
0

>  <SCORE.SYSTEM.CONST>
0

>  <SCORE.SYSTEM.DIHEDRAL>
0

>  <SCORE.SYSTEM.SOLV>
0

>  <SCORE.SYSTEM.norm>
0

>  <SCORE.heavy>
27

>  <SCORE.norm>
-0.366636

>  <RMSD>
5.421

$$$$
ligand
 OpenBabel02271912153D
libRbt.so/2013.1/901 2013/11/27
 27 29  0  0  0  0  0  0  0  0999 V2000
   44.1427  -29.0877 -105.3125 N   0  0  0  0  0  0  0  0  0  0  0  0
   44.2596  -28.6509 -103.9167 C   0  0  2  0  0  0  0  0  0  0  0  0
   44.8323  -27.2499 -103.8721 C   0  0  0  0  0  0  0  0  0  0  0  0
   45.5497  -26.8502 -104.7767 O   0  0  0  0  0  0  0  0  0  0  0  0
   45.1734  -29.5860 -103.1131 C   0  0  0  0  0  0  0  0  0  0  0  0
   45.1561  -29.2214 -101.6354 C   0  0  0  0  0  0  0  0  0  0  0  0
   46.5134  -30.0009 -100.6796 S   0  0  2  0  0  0  0  0  0  0  0  0
   46.3430  -29.2864  -99.0123 C   0  0  0  0  0  0  0  0  0  0  0  0
   47.8088  -28.9371 -101.3113 C   0  0  0  0  0  0  0  0  0  0  0  0
   48.7709  -29.6366 -102.2344 C   0  0  1  0  0  0  0  0  0  0  0  0
   48.6928  -28.9974 -103.5198 O   0  0  0  0  0  0  0  0  0  0  0  0
   50.0848  -29.2775 -101.6665 C   0  0  1  0  0  0  0  0  0  0  0  0
   50.5526  -30.3373 -100.8339 O   0  0  0  0  0  0  0  0  0  0  0  0
   50.9452  -29.1685 -102.8871 C   0  0  1  0  0  0  0  0  0  0  0  0
   51.4948  -30.4574 -103.2305 O   0  0  0  0  0  0  0  0  0  0  0  0
   50.0101  -28.6709 -104.0300 C   0  0  2  0  0  0  0  0  0  0  0  0
   44.5561  -26.4997 -102.9524 O   0  0  0  0  0  0  0  0  0  0  0  0
   48.4513  -23.7746 -102.6905 N   0  0  0  0  0  0  0  0  0  0  0  0
   48.1542  -24.9386 -102.0623 C   0  0  0  0  0  0  0  0  0  0  0  0
   48.6523  -26.1199 -102.4836 N   0  0  0  0  0  0  0  0  0  0  0  0
   49.3935  -26.1910 -103.6012 C   0  0  0  0  0  0  0  0  0  0  0  0
   49.7004  -24.9810 -104.3252 C   0  0  0  0  0  0  0  0  0  0  0  0
   49.1995  -23.7470 -103.8137 C   0  0  0  0  0  0  0  0  0  0  0  0
   49.4634  -22.5515 -104.4507 N   0  0  0  0  0  0  0  0  0  0  0  0
   50.4373  -25.3279 -105.3870 N   0  0  0  0  0  0  0  0  0  0  0  0
   50.5997  -26.6175 -105.3849 C   0  0  0  0  0  0  0  0  0  0  0  0
   49.9850  -27.2044 -104.3035 N   0  0  0  0  0  0  0  0  0  0  0  0
  2  1  1  6  0  0  0
  2  3  1  0  0  0  0
  2  5  1  0  0  0  0
  3  4  1  0  0  0  0
  3 17  1  0  0  0  0
  5  6  1  0  0  0  0
  7  6  1  6  0  0  0
  7  8  1  0  0  0  0
  7  9  1  0  0  0  0
 10  9  1  1  0  0  0
 10 11  1  0  0  0  0
 10 12  1  0  0  0  0
 11 16  1  0  0  0  0
 12 13  1  1  0  0  0
 12 14  1  0  0  0  0
 14 15  1  6  0  0  0
 14 16  1  0  0  0  0
 16 27  1  1  0  0  0
 18 19  2  0  0  0  0
 18 23  1  0  0  0  0
 19 20  1  0  0  0  0
 20 21  2  0  0  0  0
 21 22  1  0  0  0  0
 21 27  1  0  0  0  0
 22 23  2  0  0  0  0
 22 25  1  0  0  0  0
 23 24  1  0  0  0  0
 25 26  2  0  0  0  0
 26 27  1  0  0  0  0
M  END
>  <CHROM.1>
-26.69535018,-173.27252359,-165.72426740,175.10587511,-109.96673174,118.56169415
38.19878728,48.00563772,-27.71826166,-102.94767645,2.19299593,-0.00853233
2.65437946

>  <Name>
ligand

>  <RI>
0

>  <Rbt.Current_Directory>
/home/itssahil/PROJECTS/Mol_Feturizer/Test_systems_manuscript/rnas/4l81

>  <Rbt.Executable>
rbdock ($Id: //depot/dev/client3/rdock/2013.1/src/exe/rbdock.cxx#4 $)

>  <Rbt.Library>
libRbt.so (2013.1, Build901 2013/11/27)

>  <Rbt.Parameter_File>
/export/apps/rDock/src/rDock_2013.1_src/data/scripts/dock_solv.prm

>  <Rbt.Receptor>
prm/pocket_docking_7.prm

>  <SCORE>
-14.2892

>  <SCORE.INTER>
-13.7847

>  <SCORE.INTER.CONST>
1

>  <SCORE.INTER.POLAR>
0

>  <SCORE.INTER.ROT>
7

>  <SCORE.INTER.SOLV>
11.1648

>  <SCORE.INTER.VDW>
-21.1781

>  <SCORE.INTER.norm>
-0.510546

>  <SCORE.INTRA>
-0.504464

>  <SCORE.INTRA.DIHEDRAL>
4.52467

>  <SCORE.INTRA.DIHEDRAL.0>
8.34559

>  <SCORE.INTRA.POLAR>
0

>  <SCORE.INTRA.POLAR.0>
0

>  <SCORE.INTRA.REPUL>
0

>  <SCORE.INTRA.REPUL.0>
0

>  <SCORE.INTRA.SOLV>
-1.18177

>  <SCORE.INTRA.SOLV.lig_0>
-48.829

>  <SCORE.INTRA.VDW>
-2.17591

>  <SCORE.INTRA.VDW.0>
-1.77092

>  <SCORE.INTRA.norm>
-0.0186838

>  <SCORE.RESTR>
0

>  <SCORE.RESTR.CAVITY>
0

>  <SCORE.RESTR.norm>
0

>  <SCORE.SYSTEM>
0

>  <SCORE.SYSTEM.CONST>
0

>  <SCORE.SYSTEM.DIHEDRAL>
0

>  <SCORE.SYSTEM.SOLV>
0

>  <SCORE.SYSTEM.norm>
0

>  <SCORE.heavy>
27

>  <SCORE.norm>
-0.529229

>  <RMSD>
5.423

$$$$
ligand
 OpenBabel02271912153D
libRbt.so/2013.1/901 2013/11/27
 27 29  0  0  0  0  0  0  0  0999 V2000
   44.9885  -28.5447 -105.8937 N   0  0  0  0  0  0  0  0  0  0  0  0
   44.2614  -27.8512 -104.8246 C   0  0  2  0  0  0  0  0  0  0  0  0
   44.6398  -26.3850 -104.8249 C   0  0  0  0  0  0  0  0  0  0  0  0
   44.1389  -25.6213 -105.6365 O   0  0  0  0  0  0  0  0  0  0  0  0
   44.5881  -28.4473 -103.4486 C   0  0  0  0  0  0  0  0  0  0  0  0
   44.2106  -29.9209 -103.3937 C   0  0  0  0  0  0  0  0  0  0  0  0
   45.0586  -30.8376 -102.0506 S   0  0  2  0  0  0  0  0  0  0  0  0
   44.7931  -29.8009 -100.5759 C   0  0  0  0  0  0  0  0  0  0  0  0
   46.7108  -30.2964 -102.4821 C   0  0  0  0  0  0  0  0  0  0  0  0
   47.8020  -31.0891 -101.8131 C   0  0  1  0  0  0  0  0  0  0  0  0
   47.9998  -32.2946 -102.5711 O   0  0  0  0  0  0  0  0  0  0  0  0
   48.9961  -30.2516 -102.0379 C   0  0  1  0  0  0  0  0  0  0  0  0
   49.2498  -29.4583 -100.8796 O   0  0  0  0  0  0  0  0  0  0  0  0
   50.0791  -31.2719 -102.2060 C   0  0  1  0  0  0  0  0  0  0  0  0
   50.6295  -31.6356 -100.9230 O   0  0  0  0  0  0  0  0  0  0  0  0
   49.4032  -32.5130 -102.8623 C   0  0  2  0  0  0  0  0  0  0  0  0
   45.4200  -25.9492 -103.9965 O   0  0  0  0  0  0  0  0  0  0  0  0
   51.5221  -34.7971 -107.1625 N   0  0  0  0  0  0  0  0  0  0  0  0
   51.8298  -35.0332 -105.8635 C   0  0  0  0  0  0  0  0  0  0  0  0
   51.1826  -34.4108 -104.8562 N   0  0  0  0  0  0  0  0  0  0  0  0
   50.2656  -33.4639 -105.1132 C   0  0  0  0  0  0  0  0  0  0  0  0
   49.9361  -33.1508 -106.4828 C   0  0  0  0  0  0  0  0  0  0  0  0
   50.6048  -33.8721 -107.5162 C   0  0  0  0  0  0  0  0  0  0  0  0
   50.3307  -33.6301 -108.8470 N   0  0  0  0  0  0  0  0  0  0  0  0
   49.0118  -32.1834 -106.4592 N   0  0  0  0  0  0  0  0  0  0  0  0
   48.7558  -31.8742 -105.2230 C   0  0  0  0  0  0  0  0  0  0  0  0
   49.4932  -32.6358 -104.3466 N   0  0  0  0  0  0  0  0  0  0  0  0
  2  1  1  6  0  0  0
  2  3  1  0  0  0  0
  2  5  1  0  0  0  0
  3  4  1  0  0  0  0
  3 17  1  0  0  0  0
  5  6  1  0  0  0  0
  7  6  1  6  0  0  0
  7  8  1  0  0  0  0
  7  9  1  0  0  0  0
 10  9  1  6  0  0  0
 10 11  1  0  0  0  0
 10 12  1  0  0  0  0
 11 16  1  0  0  0  0
 12 13  1  1  0  0  0
 12 14  1  0  0  0  0
 14 15  1  1  0  0  0
 14 16  1  0  0  0  0
 16 27  1  6  0  0  0
 18 19  2  0  0  0  0
 18 23  1  0  0  0  0
 19 20  1  0  0  0  0
 20 21  2  0  0  0  0
 21 22  1  0  0  0  0
 21 27  1  0  0  0  0
 22 23  2  0  0  0  0
 22 25  1  0  0  0  0
 23 24  1  0  0  0  0
 25 26  2  0  0  0  0
 26 27  1  0  0  0  0
M  END
>  <CHROM.1>
79.15908461,-59.79325568,160.37308828,49.33309961,-165.99178589,81.89074493
-141.38509192,47.79606297,-30.91108032,-103.98350837,2.87074172,-0.77192476
1.55663607

>  <Name>
ligand

>  <RI>
0

>  <Rbt.Current_Directory>
/home/itssahil/PROJECTS/Mol_Feturizer/Test_systems_manuscript/rnas/4l81

>  <Rbt.Executable>
rbdock ($Id: //depot/dev/client3/rdock/2013.1/src/exe/rbdock.cxx#4 $)

>  <Rbt.Library>
libRbt.so (2013.1, Build901 2013/11/27)

>  <Rbt.Parameter_File>
/export/apps/rDock/src/rDock_2013.1_src/data/scripts/dock_solv.prm

>  <Rbt.Receptor>
prm/pocket_docking_8.prm

>  <SCORE>
-12.1298

>  <SCORE.INTER>
-13.2443

>  <SCORE.INTER.CONST>
1

>  <SCORE.INTER.POLAR>
0

>  <SCORE.INTER.ROT>
7

>  <SCORE.INTER.SOLV>
11.1353

>  <SCORE.INTER.VDW>
-20.8079

>  <SCORE.INTER.norm>
-0.490529

>  <SCORE.INTRA>
1.11448

>  <SCORE.INTRA.DIHEDRAL>
-0.923236

>  <SCORE.INTRA.DIHEDRAL.0>
8.34559

>  <SCORE.INTRA.POLAR>
0

>  <SCORE.INTRA.POLAR.0>
0

>  <SCORE.INTRA.REPUL>
0

>  <SCORE.INTRA.REPUL.0>
0

>  <SCORE.INTRA.SOLV>
-0.253138

>  <SCORE.INTRA.SOLV.lig_0>
-48.829

>  <SCORE.INTRA.VDW>
1.70267

>  <SCORE.INTRA.VDW.0>
-1.77092

>  <SCORE.INTRA.norm>
0.041277

>  <SCORE.RESTR>
0

>  <SCORE.RESTR.CAVITY>
0

>  <SCORE.RESTR.norm>
0

>  <SCORE.SYSTEM>
0

>  <SCORE.SYSTEM.CONST>
0

>  <SCORE.SYSTEM.DIHEDRAL>
0

>  <SCORE.SYSTEM.SOLV>
0

>  <SCORE.SYSTEM.norm>
0

>  <SCORE.heavy>
27

>  <SCORE.norm>
-0.449251

>  <RMSD>
5.459

$$$$
ligand
 OpenBabel02271912153D
libRbt.so/2013.1/901 2013/11/27
 27 29  0  0  0  0  0  0  0  0999 V2000
   45.0321  -30.0511 -104.5386 N   0  0  0  0  0  0  0  0  0  0  0  0
   46.1874  -30.8683 -104.1509 C   0  0  2  0  0  0  0  0  0  0  0  0
   46.2205  -32.1274 -104.9914 C   0  0  0  0  0  0  0  0  0  0  0  0
   45.6117  -32.1760 -106.0496 O   0  0  0  0  0  0  0  0  0  0  0  0
   46.1210  -31.2628 -102.6692 C   0  0  0  0  0  0  0  0  0  0  0  0
   46.2569  -30.0375 -101.7763 C   0  0  0  0  0  0  0  0  0  0  0  0
   46.7890  -30.4401 -100.0680 S   0  0  2  0  0  0  0  0  0  0  0  0
   46.2503  -29.0006  -99.0896 C   0  0  0  0  0  0  0  0  0  0  0  0
   48.5067  -29.9917 -100.3070 C   0  0  0  0  0  0  0  0  0  0  0  0
   49.2835  -30.9854 -101.1292 C   0  0  1  0  0  0  0  0  0  0  0  0
   48.8603  -30.8533 -102.4968 O   0  0  0  0  0  0  0  0  0  0  0  0
   50.6595  -30.4565 -101.0630 C   0  0  1  0  0  0  0  0  0  0  0  0
   51.3904  -31.1477 -100.0513 O   0  0  0  0  0  0  0  0  0  0  0  0
   51.2041  -30.8030 -102.4141 C   0  0  1  0  0  0  0  0  0  0  0  0
   51.7618  -32.1335 -102.4043 O   0  0  0  0  0  0  0  0  0  0  0  0
   49.9940  -30.7442 -103.3940 C   0  0  2  0  0  0  0  0  0  0  0  0
   46.8799  -33.0887 -104.6364 O   0  0  0  0  0  0  0  0  0  0  0  0
   50.7059  -25.5021 -103.8542 N   0  0  0  0  0  0  0  0  0  0  0  0
   51.1036  -26.3051 -102.8370 C   0  0  0  0  0  0  0  0  0  0  0  0
   50.8958  -27.6383 -102.8621 N   0  0  0  0  0  0  0  0  0  0  0  0
   50.2037  -28.2046 -103.8639 C   0  0  0  0  0  0  0  0  0  0  0  0
   49.7254  -27.3809 -104.9480 C   0  0  0  0  0  0  0  0  0  0  0  0
   50.0153  -25.9846 -104.9089 C   0  0  0  0  0  0  0  0  0  0  0  0
   49.5965  -25.1408 -105.9176 N   0  0  0  0  0  0  0  0  0  0  0  0
   49.0721  -28.1814 -105.7985 N   0  0  0  0  0  0  0  0  0  0  0  0
   49.0980  -29.3968 -105.3387 C   0  0  0  0  0  0  0  0  0  0  0  0
   49.7885  -29.4754 -104.1517 N   0  0  0  0  0  0  0  0  0  0  0  0
  2  1  1  6  0  0  0
  2  3  1  0  0  0  0
  2  5  1  0  0  0  0
  3  4  1  0  0  0  0
  3 17  1  0  0  0  0
  5  6  1  0  0  0  0
  7  6  1  6  0  0  0
  7  8  1  0  0  0  0
  7  9  1  0  0  0  0
 10  9  1  1  0  0  0
 10 11  1  0  0  0  0
 10 12  1  0  0  0  0
 11 16  1  0  0  0  0
 12 13  1  1  0  0  0
 12 14  1  0  0  0  0
 14 15  1  1  0  0  0
 14 16  1  0  0  0  0
 16 27  1  1  0  0  0
 18 19  2  0  0  0  0
 18 23  1  0  0  0  0
 19 20  1  0  0  0  0
 20 21  2  0  0  0  0
 21 22  1  0  0  0  0
 21 27  1  0  0  0  0
 22 23  2  0  0  0  0
 22 25  1  0  0  0  0
 23 24  1  0  0  0  0
 25 26  2  0  0  0  0
 26 27  1  0  0  0  0
M  END
>  <CHROM.1>
19.75446884,-66.10694668,-159.20395055,-158.48265939,-73.81388007,72.92425908
90.27800139,48.66206955,-29.72907612,-102.98793620,2.46156826,0.65082482
2.10795144

>  <Name>
ligand

>  <RI>
0

>  <Rbt.Current_Directory>
/home/itssahil/PROJECTS/Mol_Feturizer/Test_systems_manuscript/rnas/4l81

>  <Rbt.Executable>
rbdock ($Id: //depot/dev/client3/rdock/2013.1/src/exe/rbdock.cxx#4 $)

>  <Rbt.Library>
libRbt.so (2013.1, Build901 2013/11/27)

>  <Rbt.Parameter_File>
/export/apps/rDock/src/rDock_2013.1_src/data/scripts/dock_solv.prm

>  <Rbt.Receptor>
prm/pocket_docking_7.prm

>  <SCORE>
-17.8175

>  <SCORE.INTER>
-16.3633

>  <SCORE.INTER.CONST>
1

>  <SCORE.INTER.POLAR>
0

>  <SCORE.INTER.ROT>
7

>  <SCORE.INTER.SOLV>
10.5807

>  <SCORE.INTER.VDW>
-22.7024

>  <SCORE.INTER.norm>
-0.606047

>  <SCORE.INTRA>
-1.45422

>  <SCORE.INTRA.DIHEDRAL>
-0.580487

>  <SCORE.INTRA.DIHEDRAL.0>
8.34559

>  <SCORE.INTRA.POLAR>
0

>  <SCORE.INTRA.POLAR.0>
0

>  <SCORE.INTRA.REPUL>
0

>  <SCORE.INTRA.REPUL.0>
0

>  <SCORE.INTRA.SOLV>
-0.229296

>  <SCORE.INTRA.SOLV.lig_0>
-48.829

>  <SCORE.INTRA.VDW>
-1.04932

>  <SCORE.INTRA.VDW.0>
-1.77092

>  <SCORE.INTRA.norm>
-0.0538598

>  <SCORE.RESTR>
0

>  <SCORE.RESTR.CAVITY>
0

>  <SCORE.RESTR.norm>
0

>  <SCORE.SYSTEM>
0

>  <SCORE.SYSTEM.CONST>
0

>  <SCORE.SYSTEM.DIHEDRAL>
0

>  <SCORE.SYSTEM.SOLV>
0

>  <SCORE.SYSTEM.norm>
0

>  <SCORE.heavy>
27

>  <SCORE.norm>
-0.659907

>  <RMSD>
5.488

$$$$
ligand
 OpenBabel02271912153D
libRbt.so/2013.1/901 2013/11/27
 27 29  0  0  0  0  0  0  0  0999 V2000
   47.9648  -26.7147 -104.6170 N   0  0  0  0  0  0  0  0  0  0  0  0
   47.2504  -27.3176 -103.4861 C   0  0  2  0  0  0  0  0  0  0  0  0
   45.9207  -26.6184 -103.2978 C   0  0  0  0  0  0  0  0  0  0  0  0
   45.7390  -25.5061 -103.7697 O   0  0  0  0  0  0  0  0  0  0  0  0
   48.0601  -27.2015 -102.1875 C   0  0  0  0  0  0  0  0  0  0  0  0
   48.0804  -28.5283 -101.4419 C   0  0  0  0  0  0  0  0  0  0  0  0
   46.4151  -29.0945 -100.9226 S   0  0  2  0  0  0  0  0  0  0  0  0
   46.5850  -29.3725  -99.1300 C   0  0  0  0  0  0  0  0  0  0  0  0
   46.6164  -30.7816 -101.4901 C   0  0  0  0  0  0  0  0  0  0  0  0
   46.6587  -30.9156 -102.9891 C   0  0  1  0  0  0  0  0  0  0  0  0
   48.0301  -30.7981 -103.4042 O   0  0  0  0  0  0  0  0  0  0  0  0
   46.2760  -32.3252 -103.1998 C   0  0  1  0  0  0  0  0  0  0  0  0
   44.8866  -32.4027 -103.5141 O   0  0  0  0  0  0  0  0  0  0  0  0
   47.0927  -32.7062 -104.3957 C   0  0  1  0  0  0  0  0  0  0  0  0
   46.3868  -32.3785 -105.6105 O   0  0  0  0  0  0  0  0  0  0  0  0
   48.4048  -31.8706 -104.3049 C   0  0  2  0  0  0  0  0  0  0  0  0
   45.0116  -27.1715 -102.7040 O   0  0  0  0  0  0  0  0  0  0  0  0
   51.7735  -32.3481 -100.2279 N   0  0  0  0  0  0  0  0  0  0  0  0
   50.7454  -31.4735 -100.3539 C   0  0  0  0  0  0  0  0  0  0  0  0
   49.9324  -31.4839 -101.4309 N   0  0  0  0  0  0  0  0  0  0  0  0
   50.1723  -32.3104 -102.4619 C   0  0  0  0  0  0  0  0  0  0  0  0
   51.2815  -33.2306 -102.3882 C   0  0  0  0  0  0  0  0  0  0  0  0
   52.0822  -33.2241 -101.2074 C   0  0  0  0  0  0  0  0  0  0  0  0
   53.1521  -34.0844 -101.0666 N   0  0  0  0  0  0  0  0  0  0  0  0
   51.2999  -33.9250 -103.5319 N   0  0  0  0  0  0  0  0  0  0  0  0
   50.3265  -33.5158 -104.2899 C   0  0  0  0  0  0  0  0  0  0  0  0
   49.5912  -32.5259 -103.6808 N   0  0  0  0  0  0  0  0  0  0  0  0
  2  1  1  6  0  0  0
  2  3  1  0  0  0  0
  2  5  1  0  0  0  0
  3  4  1  0  0  0  0
  3 17  1  0  0  0  0
  5  6  1  0  0  0  0
  7  6  1  6  0  0  0
  7  8  1  0  0  0  0
  7  9  1  0  0  0  0
 10  9  1  1  0  0  0
 10 11  1  0  0  0  0
 10 12  1  0  0  0  0
 11 16  1  0  0  0  0
 12 13  1  6  0  0  0
 12 14  1  0  0  0  0
 14 15  1  6  0  0  0
 14 16  1  0  0  0  0
 16 27  1  1  0  0  0
 18 19  2  0  0  0  0
 18 23  1  0  0  0  0
 19 20  1  0  0  0  0
 20 21  2  0  0  0  0
 21 22  1  0  0  0  0
 21 27  1  0  0  0  0
 22 23  2  0  0  0  0
 22 25  1  0  0  0  0
 23 24  1  0  0  0  0
 25 26  2  0  0  0  0
 26 27  1  0  0  0  0
M  END
>  <CHROM.1>
-19.67437323,-133.55402721,-61.95657125,-125.76266528,-69.45514618,89.87823043
6.27751419,48.16835324,-30.59270560,-102.57084234,-2.51380062,0.62199897
-2.57213808

>  <Name>
ligand

>  <RI>
0

>  <Rbt.Current_Directory>
/home/itssahil/PROJECTS/Mol_Feturizer/Test_systems_manuscript/rnas/4l81

>  <Rbt.Executable>
rbdock ($Id: //depot/dev/client3/rdock/2013.1/src/exe/rbdock.cxx#4 $)

>  <Rbt.Library>
libRbt.so (2013.1, Build901 2013/11/27)

>  <Rbt.Parameter_File>
/export/apps/rDock/src/rDock_2013.1_src/data/scripts/dock_solv.prm

>  <Rbt.Receptor>
prm/pocket_docking_7.prm

>  <SCORE>
-16.3183

>  <SCORE.INTER>
-16.8142

>  <SCORE.INTER.CONST>
1

>  <SCORE.INTER.POLAR>
0

>  <SCORE.INTER.ROT>
7

>  <SCORE.INTER.SOLV>
13.2714

>  <SCORE.INTER.VDW>
-23.8999

>  <SCORE.INTER.norm>
-0.622746

>  <SCORE.INTRA>
0.495849

>  <SCORE.INTRA.DIHEDRAL>
6.85906

>  <SCORE.INTRA.DIHEDRAL.0>
8.34559

>  <SCORE.INTRA.POLAR>
0

>  <SCORE.INTRA.POLAR.0>
0

>  <SCORE.INTRA.REPUL>
0

>  <SCORE.INTRA.REPUL.0>
0

>  <SCORE.INTRA.SOLV>
-0.756153

>  <SCORE.INTRA.SOLV.lig_0>
-48.829

>  <SCORE.INTRA.VDW>
-2.55561

>  <SCORE.INTRA.VDW.0>
-1.77092

>  <SCORE.INTRA.norm>
0.0183648

>  <SCORE.RESTR>
0

>  <SCORE.RESTR.CAVITY>
0

>  <SCORE.RESTR.norm>
0

>  <SCORE.SYSTEM>
0

>  <SCORE.SYSTEM.CONST>
0

>  <SCORE.SYSTEM.DIHEDRAL>
0

>  <SCORE.SYSTEM.SOLV>
0

>  <SCORE.SYSTEM.norm>
0

>  <SCORE.heavy>
27

>  <SCORE.norm>
-0.604382

>  <RMSD>
5.498

$$$$
ligand
 OpenBabel02271912153D
libRbt.so/2013.1/901 2013/11/27
 27 29  0  0  0  0  0  0  0  0999 V2000
   49.5403  -27.2108 -104.3281 N   0  0  0  0  0  0  0  0  0  0  0  0
   50.2860  -27.5984 -103.1254 C   0  0  2  0  0  0  0  0  0  0  0  0
   50.8448  -28.9941 -103.3054 C   0  0  0  0  0  0  0  0  0  0  0  0
   50.2857  -29.7892 -104.0457 O   0  0  0  0  0  0  0  0  0  0  0  0
   49.3880  -27.5805 -101.8810 C   0  0  0  0  0  0  0  0  0  0  0  0
   48.1904  -28.5019 -102.0643 C   0  0  0  0  0  0  0  0  0  0  0  0
   48.0286  -29.7547 -100.7348 S   0  0  2  0  0  0  0  0  0  0  0  0
   49.6590  -30.5672 -100.6963 C   0  0  0  0  0  0  0  0  0  0  0  0
   47.1400  -30.9525 -101.7270 C   0  0  0  0  0  0  0  0  0  0  0  0
   45.6428  -30.8441 -101.6108 C   0  0  1  0  0  0  0  0  0  0  0  0
   45.3102  -29.4518 -101.4775 O   0  0  0  0  0  0  0  0  0  0  0  0
   45.1824  -31.2589 -102.9501 C   0  0  1  0  0  0  0  0  0  0  0  0
   44.8026  -32.6338 -102.9217 O   0  0  0  0  0  0  0  0  0  0  0  0
   43.9741  -30.3990 -103.1569 C   0  0  1  0  0  0  0  0  0  0  0  0
   42.8037  -31.0369 -102.6049 O   0  0  0  0  0  0  0  0  0  0  0  0
   44.2581  -29.0679 -102.3982 C   0  0  2  0  0  0  0  0  0  0  0  0
   51.8729  -29.3244 -102.7407 O   0  0  0  0  0  0  0  0  0  0  0  0
   46.3490  -27.2078 -106.9111 N   0  0  0  0  0  0  0  0  0  0  0  0
   45.9951  -28.4855 -106.6279 C   0  0  0  0  0  0  0  0  0  0  0  0
   45.4309  -28.8211 -105.4488 N   0  0  0  0  0  0  0  0  0  0  0  0
   45.2820  -27.9071 -104.4762 C   0  0  0  0  0  0  0  0  0  0  0  0
   45.6834  -26.5425 -104.7197 C   0  0  0  0  0  0  0  0  0  0  0  0
   46.2242  -26.2198 -105.9999 C   0  0  0  0  0  0  0  0  0  0  0  0
   46.6191  -24.9327 -106.3033 N   0  0  0  0  0  0  0  0  0  0  0  0
   45.4361  -25.8489 -103.6023 N   0  0  0  0  0  0  0  0  0  0  0  0
   44.9373  -26.6509 -102.7094 C   0  0  0  0  0  0  0  0  0  0  0  0
   44.8113  -27.9325 -103.1925 N   0  0  0  0  0  0  0  0  0  0  0  0
  2  1  1  6  0  0  0
  2  3  1  0  0  0  0
  2  5  1  0  0  0  0
  3  4  1  0  0  0  0
  3 17  1  0  0  0  0
  5  6  1  0  0  0  0
  7  6  1  6  0  0  0
  7  8  1  0  0  0  0
  7  9  1  0  0  0  0
 10  9  1  6  0  0  0
 10 11  1  0  0  0  0
 10 12  1  0  0  0  0
 11 16  1  0  0  0  0
 12 13  1  1  0  0  0
 12 14  1  0  0  0  0
 14 15  1  1  0  0  0
 14 16  1  0  0  0  0
 16 27  1  6  0  0  0
 18 19  2  0  0  0  0
 18 23  1  0  0  0  0
 19 20  1  0  0  0  0
 20 21  2  0  0  0  0
 21 22  1  0  0  0  0
 21 27  1  0  0  0  0
 22 23  2  0  0  0  0
 22 25  1  0  0  0  0
 23 24  1  0  0  0  0
 25 26  2  0  0  0  0
 26 27  1  0  0  0  0
M  END
>  <CHROM.1>
-27.13475546,57.46430472,124.86987654,-53.35408972,-93.43904757,35.68383379
103.92285821,46.90478112,-28.84389547,-103.22305994,-0.19212110,-0.17162360
-0.73057084

>  <Name>
ligand

>  <RI>
0

>  <Rbt.Current_Directory>
/home/itssahil/PROJECTS/Mol_Feturizer/Test_systems_manuscript/rnas/4l81

>  <Rbt.Executable>
rbdock ($Id: //depot/dev/client3/rdock/2013.1/src/exe/rbdock.cxx#4 $)

>  <Rbt.Library>
libRbt.so (2013.1, Build901 2013/11/27)

>  <Rbt.Parameter_File>
/export/apps/rDock/src/rDock_2013.1_src/data/scripts/dock_solv.prm

>  <Rbt.Receptor>
prm/pocket_docking_3.prm

>  <SCORE>
-12.0756

>  <SCORE.INTER>
-12.6427

>  <SCORE.INTER.CONST>
1

>  <SCORE.INTER.POLAR>
0

>  <SCORE.INTER.ROT>
7

>  <SCORE.INTER.SOLV>
9.71396

>  <SCORE.INTER.VDW>
-19.9331

>  <SCORE.INTER.norm>
-0.468248

>  <SCORE.INTRA>
0.567085

>  <SCORE.INTRA.DIHEDRAL>
4.63537

>  <SCORE.INTRA.DIHEDRAL.0>
8.34559

>  <SCORE.INTRA.POLAR>
0

>  <SCORE.INTRA.POLAR.0>
0

>  <SCORE.INTRA.REPUL>
0

>  <SCORE.INTRA.REPUL.0>
0

>  <SCORE.INTRA.SOLV>
0.0388263

>  <SCORE.INTRA.SOLV.lig_0>
-48.829

>  <SCORE.INTRA.VDW>
-1.77001

>  <SCORE.INTRA.VDW.0>
-1.77092

>  <SCORE.INTRA.norm>
0.0210031

>  <SCORE.RESTR>
0

>  <SCORE.RESTR.CAVITY>
0

>  <SCORE.RESTR.norm>
0

>  <SCORE.SYSTEM>
0

>  <SCORE.SYSTEM.CONST>
0

>  <SCORE.SYSTEM.DIHEDRAL>
0

>  <SCORE.SYSTEM.SOLV>
0

>  <SCORE.SYSTEM.norm>
0

>  <SCORE.heavy>
27

>  <SCORE.norm>
-0.447245

>  <RMSD>
5.539

$$$$
ligand
 OpenBabel02271912153D
libRbt.so/2013.1/901 2013/11/27
 27 29  0  0  0  0  0  0  0  0999 V2000
   47.4884  -29.1903 -105.9180 N   0  0  0  0  0  0  0  0  0  0  0  0
   48.7993  -29.7119 -105.5151 C   0  0  2  0  0  0  0  0  0  0  0  0
   48.8074  -31.2197 -105.6535 C   0  0  0  0  0  0  0  0  0  0  0  0
   47.7557  -31.8414 -105.6646 O   0  0  0  0  0  0  0  0  0  0  0  0
   49.1235  -29.3457 -104.0604 C   0  0  0  0  0  0  0  0  0  0  0  0
   48.1296  -29.9912 -103.1053 C   0  0  0  0  0  0  0  0  0  0  0  0
   48.3308  -29.4406 -101.3675 S   0  0  2  0  0  0  0  0  0  0  0  0
   49.8741  -30.2449 -100.8280 C   0  0  0  0  0  0  0  0  0  0  0  0
   47.1524  -30.5995 -100.6767 C   0  0  0  0  0  0  0  0  0  0  0  0
   45.7177  -30.1712 -100.8347 C   0  0  1  0  0  0  0  0  0  0  0  0
   45.6817  -28.7340 -100.8165 O   0  0  0  0  0  0  0  0  0  0  0  0
   45.4069  -30.5810 -102.2178 C   0  0  1  0  0  0  0  0  0  0  0  0
   44.7351  -31.8395 -102.2051 O   0  0  0  0  0  0  0  0  0  0  0  0
   44.4688  -29.5052 -102.6703 C   0  0  1  0  0  0  0  0  0  0  0  0
   43.1117  -29.8397 -102.3128 O   0  0  0  0  0  0  0  0  0  0  0  0
   44.9079  -28.2094 -101.9247 C   0  0  2  0  0  0  0  0  0  0  0  0
   49.8587  -31.8211 -105.7881 O   0  0  0  0  0  0  0  0  0  0  0  0
   45.7979  -24.8421 -105.9331 N   0  0  0  0  0  0  0  0  0  0  0  0
   44.6728  -25.5575 -105.6875 C   0  0  0  0  0  0  0  0  0  0  0  0
   44.5592  -26.3515 -104.6023 N   0  0  0  0  0  0  0  0  0  0  0  0
   45.5991  -26.5280 -103.7711 C   0  0  0  0  0  0  0  0  0  0  0  0
   46.8307  -25.8174 -104.0174 C   0  0  0  0  0  0  0  0  0  0  0  0
   46.8890  -24.9456 -105.1452 C   0  0  0  0  0  0  0  0  0  0  0  0
   48.0323  -24.2283 -105.4337 N   0  0  0  0  0  0  0  0  0  0  0  0
   47.6939  -26.1714 -103.0580 N   0  0  0  0  0  0  0  0  0  0  0  0
   47.1173  -27.0254 -102.2657 C   0  0  0  0  0  0  0  0  0  0  0  0
   45.8214  -27.2790 -102.6501 N   0  0  0  0  0  0  0  0  0  0  0  0
  2  1  1  1  0  0  0
  2  3  1  0  0  0  0
  2  5  1  0  0  0  0
  3  4  1  0  0  0  0
  3 17  1  0  0  0  0
  5  6  1  0  0  0  0
  7  6  1  6  0  0  0
  7  8  1  0  0  0  0
  7  9  1  0  0  0  0
 10  9  1  6  0  0  0
 10 11  1  0  0  0  0
 10 12  1  0  0  0  0
 11 16  1  0  0  0  0
 12 13  1  1  0  0  0
 12 14  1  0  0  0  0
 14 15  1  1  0  0  0
 14 16  1  0  0  0  0
 16 27  1  6  0  0  0
 18 19  2  0  0  0  0
 18 23  1  0  0  0  0
 19 20  1  0  0  0  0
 20 21  2  0  0  0  0
 21 22  1  0  0  0  0
 21 27  1  0  0  0  0
 22 23  2  0  0  0  0
 22 25  1  0  0  0  0
 23 24  1  0  0  0  0
 25 26  2  0  0  0  0
 26 27  1  0  0  0  0
M  END
>  <CHROM.1>
-21.42139395,63.39198097,-173.15306323,-72.00160005,-79.98780269,-30.74582962
179.53611764,46.83653860,-28.69868493,-103.35969893,-1.88236025,-0.69021822
2.55214080

>  <Name>
ligand

>  <RI>
0

>  <Rbt.Current_Directory>
/home/itssahil/PROJECTS/Mol_Feturizer/Test_systems_manuscript/rnas/4l81

>  <Rbt.Executable>
rbdock ($Id: //depot/dev/client3/rdock/2013.1/src/exe/rbdock.cxx#4 $)

>  <Rbt.Library>
libRbt.so (2013.1, Build901 2013/11/27)

>  <Rbt.Parameter_File>
/export/apps/rDock/src/rDock_2013.1_src/data/scripts/dock_solv.prm

>  <Rbt.Receptor>
prm/pocket_docking_5.prm

>  <SCORE>
-11.9182

>  <SCORE.INTER>
-11.2119

>  <SCORE.INTER.CONST>
1

>  <SCORE.INTER.POLAR>
0

>  <SCORE.INTER.ROT>
7

>  <SCORE.INTER.SOLV>
7.31914

>  <SCORE.INTER.VDW>
-18.181

>  <SCORE.INTER.norm>
-0.415257

>  <SCORE.INTRA>
-0.706269

>  <SCORE.INTRA.DIHEDRAL>
-1.87461

>  <SCORE.INTRA.DIHEDRAL.0>
8.34559

>  <SCORE.INTRA.POLAR>
0

>  <SCORE.INTRA.POLAR.0>
0

>  <SCORE.INTRA.REPUL>
0

>  <SCORE.INTRA.REPUL.0>
0

>  <SCORE.INTRA.SOLV>
0.0622745

>  <SCORE.INTRA.SOLV.lig_0>
-48.829

>  <SCORE.INTRA.VDW>
0.199901

>  <SCORE.INTRA.VDW.0>
-1.77092

>  <SCORE.INTRA.norm>
-0.0261581

>  <SCORE.RESTR>
0

>  <SCORE.RESTR.CAVITY>
0

>  <SCORE.RESTR.norm>
0

>  <SCORE.SYSTEM>
0

>  <SCORE.SYSTEM.CONST>
0

>  <SCORE.SYSTEM.DIHEDRAL>
0

>  <SCORE.SYSTEM.SOLV>
0

>  <SCORE.SYSTEM.norm>
0

>  <SCORE.heavy>
27

>  <SCORE.norm>
-0.441415

>  <RMSD>
5.595

$$$$
ligand
 OpenBabel02271912153D
libRbt.so/2013.1/901 2013/11/27
 27 29  0  0  0  0  0  0  0  0999 V2000
   48.7371  -32.8061 -107.9738 N   0  0  0  0  0  0  0  0  0  0  0  0
   49.2225  -31.8913 -106.9345 C   0  0  2  0  0  0  0  0  0  0  0  0
   49.2532  -32.6106 -105.6025 C   0  0  0  0  0  0  0  0  0  0  0  0
   48.2700  -33.2211 -105.2110 O   0  0  0  0  0  0  0  0  0  0  0  0
   48.3195  -30.6564 -106.8106 C   0  0  0  0  0  0  0  0  0  0  0  0
   48.4889  -29.7392 -108.0135 C   0  0  0  0  0  0  0  0  0  0  0  0
   47.7600  -28.0747 -107.7650 S   0  0  2  0  0  0  0  0  0  0  0  0
   48.2445  -27.1553 -109.2615 C   0  0  0  0  0  0  0  0  0  0  0  0
   49.0329  -27.4884 -106.6493 C   0  0  0  0  0  0  0  0  0  0  0  0
   48.8131  -26.0795 -106.1662 C   0  0  1  0  0  0  0  0  0  0  0  0
   47.5048  -26.0152 -105.5736 O   0  0  0  0  0  0  0  0  0  0  0  0
   49.7814  -25.9612 -105.0589 C   0  0  1  0  0  0  0  0  0  0  0  0
   50.9658  -25.3166 -105.5249 O   0  0  0  0  0  0  0  0  0  0  0  0
   49.0611  -25.0715 -104.0937 C   0  0  1  0  0  0  0  0  0  0  0  0
   49.3135  -23.6855 -104.4044 O   0  0  0  0  0  0  0  0  0  0  0  0
   47.5447  -25.3849 -104.2686 C   0  0  2  0  0  0  0  0  0  0  0  0
   50.2672  -32.6142 -104.9268 O   0  0  0  0  0  0  0  0  0  0  0  0
   48.0994  -29.0692 -100.4850 N   0  0  0  0  0  0  0  0  0  0  0  0
   49.0805  -28.3964 -101.1351 C   0  0  0  0  0  0  0  0  0  0  0  0
   48.8022  -27.4475 -102.0534 N   0  0  0  0  0  0  0  0  0  0  0  0
   47.5340  -27.1997 -102.4192 C   0  0  0  0  0  0  0  0  0  0  0  0
   46.4595  -27.9223 -101.7822 C   0  0  0  0  0  0  0  0  0  0  0  0
   46.7956  -28.8774 -100.7771 C   0  0  0  0  0  0  0  0  0  0  0  0
   45.8173  -29.5964 -100.1209 N   0  0  0  0  0  0  0  0  0  0  0  0
   45.3141  -27.4948 -102.3264 N   0  0  0  0  0  0  0  0  0  0  0  0
   45.5840  -26.5989 -103.2286 C   0  0  0  0  0  0  0  0  0  0  0  0
   46.9365  -26.3689 -103.3262 N   0  0  0  0  0  0  0  0  0  0  0  0
  2  1  1  6  0  0  0
  2  3  1  0  0  0  0
  2  5  1  0  0  0  0
  3  4  1  0  0  0  0
  3 17  1  0  0  0  0
  5  6  1  0  0  0  0
  7  6  1  6  0  0  0
  7  8  1  0  0  0  0
  7  9  1  0  0  0  0
 10  9  1  1  0  0  0
 10 11  1  0  0  0  0
 10 12  1  0  0  0  0
 11 16  1  0  0  0  0
 12 13  1  6  0  0  0
 12 14  1  0  0  0  0
 14 15  1  6  0  0  0
 14 16  1  0  0  0  0
 16 27  1  1  0  0  0
 18 19  2  0  0  0  0
 18 23  1  0  0  0  0
 19 20  1  0  0  0  0
 20 21  2  0  0  0  0
 21 22  1  0  0  0  0
 21 27  1  0  0  0  0
 22 23  2  0  0  0  0
 22 25  1  0  0  0  0
 23 24  1  0  0  0  0
 25 26  2  0  0  0  0
 26 27  1  0  0  0  0
M  END
>  <CHROM.1>
-50.46076178,-71.46169309,-166.39237522,174.61352779,-179.81329571,55.07629989
103.41504226,48.20707023,-28.24350624,-104.74553443,0.80333555,-1.30133111
-3.13076079

>  <Name>
ligand

>  <RI>
0

>  <Rbt.Current_Directory>
/home/itssahil/PROJECTS/Mol_Feturizer/Test_systems_manuscript/rnas/4l81

>  <Rbt.Executable>
rbdock ($Id: //depot/dev/client3/rdock/2013.1/src/exe/rbdock.cxx#4 $)

>  <Rbt.Library>
libRbt.so (2013.1, Build901 2013/11/27)

>  <Rbt.Parameter_File>
/export/apps/rDock/src/rDock_2013.1_src/data/scripts/dock_solv.prm

>  <Rbt.Receptor>
prm/pocket_docking_6.prm

>  <SCORE>
-11.7722

>  <SCORE.INTER>
-8.71443

>  <SCORE.INTER.CONST>
1

>  <SCORE.INTER.POLAR>
0

>  <SCORE.INTER.ROT>
7

>  <SCORE.INTER.SOLV>
13.024

>  <SCORE.INTER.VDW>
-18.4176

>  <SCORE.INTER.norm>
-0.322757

>  <SCORE.INTRA>
-3.05779

>  <SCORE.INTRA.DIHEDRAL>
-3.57003

>  <SCORE.INTRA.DIHEDRAL.0>
8.34559

>  <SCORE.INTRA.POLAR>
0

>  <SCORE.INTRA.POLAR.0>
0

>  <SCORE.INTRA.REPUL>
0

>  <SCORE.INTRA.REPUL.0>
0

>  <SCORE.INTRA.SOLV>
-0.68988

>  <SCORE.INTRA.SOLV.lig_0>
-48.829

>  <SCORE.INTRA.VDW>
-0.927831

>  <SCORE.INTRA.VDW.0>
-1.77092

>  <SCORE.INTRA.norm>
-0.113251

>  <SCORE.RESTR>
0

>  <SCORE.RESTR.CAVITY>
0

>  <SCORE.RESTR.norm>
0

>  <SCORE.SYSTEM>
0

>  <SCORE.SYSTEM.CONST>
0

>  <SCORE.SYSTEM.DIHEDRAL>
0

>  <SCORE.SYSTEM.SOLV>
0

>  <SCORE.SYSTEM.norm>
0

>  <SCORE.heavy>
27

>  <SCORE.norm>
-0.436008

>  <RMSD>
5.612

$$$$
ligand
 OpenBabel02271912153D
libRbt.so/2013.1/901 2013/11/27
 27 29  0  0  0  0  0  0  0  0999 V2000
   51.5246  -31.9646 -101.2543 N   0  0  0  0  0  0  0  0  0  0  0  0
   50.8307  -32.7045 -102.3144 C   0  0  2  0  0  0  0  0  0  0  0  0
   51.7618  -32.8892 -103.4941 C   0  0  0  0  0  0  0  0  0  0  0  0
   51.3633  -33.4355 -104.5118 O   0  0  0  0  0  0  0  0  0  0  0  0
   49.5746  -31.9594 -102.7859 C   0  0  0  0  0  0  0  0  0  0  0  0
   49.9255  -30.5599 -103.2710 C   0  0  0  0  0  0  0  0  0  0  0  0
   48.4541  -29.5362 -103.6588 S   0  0  2  0  0  0  0  0  0  0  0  0
   47.7481  -30.3259 -105.1413 C   0  0  0  0  0  0  0  0  0  0  0  0
   49.3634  -28.2116 -104.4508 C   0  0  0  0  0  0  0  0  0  0  0  0
   48.5992  -26.9169 -104.5331 C   0  0  1  0  0  0  0  0  0  0  0  0
   47.2781  -27.2143 -105.0159 O   0  0  0  0  0  0  0  0  0  0  0  0
   48.4516  -26.5364 -103.1150 C   0  0  1  0  0  0  0  0  0  0  0  0
   49.4615  -25.5914 -102.7648 O   0  0  0  0  0  0  0  0  0  0  0  0
   47.1068  -25.8782 -103.0955 C   0  0  1  0  0  0  0  0  0  0  0  0
   47.2294  -24.4764 -103.4136 O   0  0  0  0  0  0  0  0  0  0  0  0
   46.2601  -26.5963 -104.1889 C   0  0  2  0  0  0  0  0  0  0  0  0
   52.9037  -32.4660 -103.4508 O   0  0  0  0  0  0  0  0  0  0  0  0
   44.5730  -29.8843 -100.3756 N   0  0  0  0  0  0  0  0  0  0  0  0
   45.5505  -28.9490 -100.2891 C   0  0  0  0  0  0  0  0  0  0  0  0
   45.8561  -28.1434 -101.3277 N   0  0  0  0  0  0  0  0  0  0  0  0
   45.2561  -28.3038 -102.5184 C   0  0  0  0  0  0  0  0  0  0  0  0
   44.2379  -29.3155 -102.6673 C   0  0  0  0  0  0  0  0  0  0  0  0
   43.9070  -30.1081 -101.5282 C   0  0  0  0  0  0  0  0  0  0  0  0
   42.9361  -31.0864 -101.5979 N   0  0  0  0  0  0  0  0  0  0  0  0
   43.8125  -29.2692 -103.9353 N   0  0  0  0  0  0  0  0  0  0  0  0
   44.4713  -28.3445 -104.5680 C   0  0  0  0  0  0  0  0  0  0  0  0
   45.3709  -27.7090 -103.7444 N   0  0  0  0  0  0  0  0  0  0  0  0
  2  1  1  1  0  0  0
  2  3  1  0  0  0  0
  2  5  1  0  0  0  0
  3  4  1  0  0  0  0
  3 17  1  0  0  0  0
  5  6  1  0  0  0  0
  7  6  1  6  0  0  0
  7  8  1  0  0  0  0
  7  9  1  0  0  0  0
 10  9  1  1  0  0  0
 10 11  1  0  0  0  0
 10 12  1  0  0  0  0
 11 16  1  0  0  0  0
 12 13  1  6  0  0  0
 12 14  1  0  0  0  0
 14 15  1  6  0  0  0
 14 16  1  0  0  0  0
 16 27  1  1  0  0  0
 18 19  2  0  0  0  0
 18 23  1  0  0  0  0
 19 20  1  0  0  0  0
 20 21  2  0  0  0  0
 21 22  1  0  0  0  0
 21 27  1  0  0  0  0
 22 23  2  0  0  0  0
 22 25  1  0  0  0  0
 23 24  1  0  0  0  0
 25 26  2  0  0  0  0
 26 27  1  0  0  0  0
M  END
>  <CHROM.1>
-177.01868508,57.17027990,-172.98593682,-68.69673064,-160.53766572,-46.98258883
106.63260044,47.68753858,-29.20821665,-103.13891298,0.58683391,-0.24415577
2.89056417

>  <Name>
ligand

>  <RI>
0

>  <Rbt.Current_Directory>
/home/itssahil/PROJECTS/Mol_Feturizer/Test_systems_manuscript/rnas/4l81

>  <Rbt.Executable>
rbdock ($Id: //depot/dev/client3/rdock/2013.1/src/exe/rbdock.cxx#4 $)

>  <Rbt.Library>
libRbt.so (2013.1, Build901 2013/11/27)

>  <Rbt.Parameter_File>
/export/apps/rDock/src/rDock_2013.1_src/data/scripts/dock_solv.prm

>  <Rbt.Receptor>
prm/pocket_docking_3.prm

>  <SCORE>
-9.86889

>  <SCORE.INTER>
-7.30992

>  <SCORE.INTER.CONST>
1

>  <SCORE.INTER.POLAR>
0

>  <SCORE.INTER.ROT>
7

>  <SCORE.INTER.SOLV>
18.3353

>  <SCORE.INTER.VDW>
-19.2517

>  <SCORE.INTER.norm>
-0.270738

>  <SCORE.INTRA>
-2.55897

>  <SCORE.INTRA.DIHEDRAL>
-2.40925

>  <SCORE.INTRA.DIHEDRAL.0>
8.34559

>  <SCORE.INTRA.POLAR>
0

>  <SCORE.INTRA.POLAR.0>
0

>  <SCORE.INTRA.REPUL>
0

>  <SCORE.INTRA.REPUL.0>
0

>  <SCORE.INTRA.SOLV>
-0.272972

>  <SCORE.INTRA.SOLV.lig_0>
-48.829

>  <SCORE.INTRA.VDW>
-1.21786

>  <SCORE.INTRA.VDW.0>
-1.77092

>  <SCORE.INTRA.norm>
-0.0947766

>  <SCORE.RESTR>
0

>  <SCORE.RESTR.CAVITY>
0

>  <SCORE.RESTR.norm>
0

>  <SCORE.SYSTEM>
0

>  <SCORE.SYSTEM.CONST>
0

>  <SCORE.SYSTEM.DIHEDRAL>
0

>  <SCORE.SYSTEM.SOLV>
0

>  <SCORE.SYSTEM.norm>
0

>  <SCORE.heavy>
27

>  <SCORE.norm>
-0.365514

>  <RMSD>
5.635

$$$$
ligand
 OpenBabel02271912153D
libRbt.so/2013.1/901 2013/11/27
 27 29  0  0  0  0  0  0  0  0999 V2000
   47.9802  -32.4688 -106.1372 N   0  0  0  0  0  0  0  0  0  0  0  0
   47.3257  -31.2029 -105.7886 C   0  0  2  0  0  0  0  0  0  0  0  0
   47.6375  -30.8526 -104.3489 C   0  0  0  0  0  0  0  0  0  0  0  0
   48.1332  -29.7704 -104.0732 O   0  0  0  0  0  0  0  0  0  0  0  0
   45.8031  -31.2957 -105.9578 C   0  0  0  0  0  0  0  0  0  0  0  0
   45.1827  -29.9085 -106.0459 C   0  0  0  0  0  0  0  0  0  0  0  0
   45.2914  -28.9641 -104.4776 S   0  0  2  0  0  0  0  0  0  0  0  0
   44.1401  -29.8306 -103.3626 C   0  0  0  0  0  0  0  0  0  0  0  0
   44.2226  -27.6257 -105.0020 C   0  0  0  0  0  0  0  0  0  0  0  0
   44.7693  -26.2573 -104.6933 C   0  0  1  0  0  0  0  0  0  0  0  0
   45.2447  -26.2678 -103.3365 O   0  0  0  0  0  0  0  0  0  0  0  0
   45.9643  -26.1829 -105.5559 C   0  0  1  0  0  0  0  0  0  0  0  0
   45.6470  -25.4768 -106.7543 O   0  0  0  0  0  0  0  0  0  0  0  0
   46.9135  -25.3773 -104.7239 C   0  0  1  0  0  0  0  0  0  0  0  0
   46.7121  -23.9677 -104.9558 O   0  0  0  0  0  0  0  0  0  0  0  0
   46.5842  -25.7213 -103.2402 C   0  0  2  0  0  0  0  0  0  0  0  0
   47.3667  -31.6318 -103.4520 O   0  0  0  0  0  0  0  0  0  0  0  0
   46.9254  -29.9632 -100.0641 N   0  0  0  0  0  0  0  0  0  0  0  0
   45.8189  -29.2382 -100.3605 C   0  0  0  0  0  0  0  0  0  0  0  0
   45.8600  -28.2003 -101.2220 N   0  0  0  0  0  0  0  0  0  0  0  0
   47.0263  -27.7942 -101.7497 C   0  0  0  0  0  0  0  0  0  0  0  0
   48.2364  -28.5120 -101.4290 C   0  0  0  0  0  0  0  0  0  0  0  0
   48.1388  -29.6373 -100.5575 C   0  0  0  0  0  0  0  0  0  0  0  0
   49.2547  -30.3745 -100.2170 N   0  0  0  0  0  0  0  0  0  0  0  0
   49.2414  -27.9065 -102.0724 N   0  0  0  0  0  0  0  0  0  0  0  0
   48.7679  -26.8960 -102.7389 C   0  0  0  0  0  0  0  0  0  0  0  0
   47.4061  -26.7803 -102.5850 N   0  0  0  0  0  0  0  0  0  0  0  0
  2  1  1  1  0  0  0
  2  3  1  0  0  0  0
  2  5  1  0  0  0  0
  3  4  1  0  0  0  0
  3 17  1  0  0  0  0
  5  6  1  0  0  0  0
  7  6  1  6  0  0  0
  7  8  1  0  0  0  0
  7  9  1  0  0  0  0
 10  9  1  6  0  0  0
 10 11  1  0  0  0  0
 10 12  1  0  0  0  0
 11 16  1  0  0  0  0
 12 13  1  6  0  0  0
 12 14  1  0  0  0  0
 14 15  1  1  0  0  0
 14 16  1  0  0  0  0
 16 27  1  6  0  0  0
 18 19  2  0  0  0  0
 18 23  1  0  0  0  0
 19 20  1  0  0  0  0
 20 21  2  0  0  0  0
 21 22  1  0  0  0  0
 21 27  1  0  0  0  0
 22 23  2  0  0  0  0
 22 25  1  0  0  0  0
 23 24  1  0  0  0  0
 25 26  2  0  0  0  0
 26 27  1  0  0  0  0
M  END
>  <CHROM.1>
125.14402193,-161.38484090,-67.75695276,-69.87942985,-133.32590026,-46.24041703
-25.05421412,46.62792171,-28.45734309,-103.61921702,0.70228163,1.12809035
-2.82166905

>  <Name>
ligand

>  <RI>
0

>  <Rbt.Current_Directory>
/home/itssahil/PROJECTS/Mol_Feturizer/Test_systems_manuscript/rnas/4l81

>  <Rbt.Executable>
rbdock ($Id: //depot/dev/client3/rdock/2013.1/src/exe/rbdock.cxx#4 $)

>  <Rbt.Library>
libRbt.so (2013.1, Build901 2013/11/27)

>  <Rbt.Parameter_File>
/export/apps/rDock/src/rDock_2013.1_src/data/scripts/dock_solv.prm

>  <Rbt.Receptor>
prm/pocket_docking_5.prm

>  <SCORE>
-12.0619

>  <SCORE.INTER>
-8.33916

>  <SCORE.INTER.CONST>
1

>  <SCORE.INTER.POLAR>
0

>  <SCORE.INTER.ROT>
7

>  <SCORE.INTER.SOLV>
14.4617

>  <SCORE.INTER.VDW>
-18.6467

>  <SCORE.INTER.norm>
-0.308858

>  <SCORE.INTRA>
-3.72277

>  <SCORE.INTRA.DIHEDRAL>
1.39667

>  <SCORE.INTRA.DIHEDRAL.0>
8.34559

>  <SCORE.INTRA.POLAR>
0

>  <SCORE.INTRA.POLAR.0>
0

>  <SCORE.INTRA.REPUL>
0

>  <SCORE.INTRA.REPUL.0>
0

>  <SCORE.INTRA.SOLV>
-0.818648

>  <SCORE.INTRA.SOLV.lig_0>
-48.829

>  <SCORE.INTRA.VDW>
-4.01178

>  <SCORE.INTRA.VDW.0>
-1.77092

>  <SCORE.INTRA.norm>
-0.13788

>  <SCORE.RESTR>
0

>  <SCORE.RESTR.CAVITY>
0

>  <SCORE.RESTR.norm>
0

>  <SCORE.SYSTEM>
0

>  <SCORE.SYSTEM.CONST>
0

>  <SCORE.SYSTEM.DIHEDRAL>
0

>  <SCORE.SYSTEM.SOLV>
0

>  <SCORE.SYSTEM.norm>
0

>  <SCORE.heavy>
27

>  <SCORE.norm>
-0.446738

>  <RMSD>
5.668

$$$$
ligand
 OpenBabel02271912153D
libRbt.so/2013.1/901 2013/11/27
 27 29  0  0  0  0  0  0  0  0999 V2000
   47.5774  -29.6652 -100.0462 N   0  0  0  0  0  0  0  0  0  0  0  0
   47.6339  -29.7398 -101.5104 C   0  0  2  0  0  0  0  0  0  0  0  0
   46.9299  -30.9954 -101.9799 C   0  0  0  0  0  0  0  0  0  0  0  0
   45.7248  -30.9855 -102.1813 O   0  0  0  0  0  0  0  0  0  0  0  0
   49.0837  -29.7666 -102.0132 C   0  0  0  0  0  0  0  0  0  0  0  0
   49.6914  -28.3713 -101.9878 C   0  0  0  0  0  0  0  0  0  0  0  0
   49.2160  -27.3464 -103.4324 S   0  0  2  0  0  0  0  0  0  0  0  0
   49.9560  -25.7194 -103.0791 C   0  0  0  0  0  0  0  0  0  0  0  0
   47.5440  -27.0223 -102.8774 C   0  0  0  0  0  0  0  0  0  0  0  0
   46.6703  -26.3861 -103.9257 C   0  0  1  0  0  0  0  0  0  0  0  0
   47.2545  -26.6573 -105.2110 O   0  0  0  0  0  0  0  0  0  0  0  0
   45.4344  -27.1888 -103.8489 C   0  0  1  0  0  0  0  0  0  0  0  0
   44.4731  -26.5123 -103.0405 O   0  0  0  0  0  0  0  0  0  0  0  0
   44.9766  -27.2140 -105.2744 C   0  0  1  0  0  0  0  0  0  0  0  0
   44.1579  -26.0607 -105.5590 O   0  0  0  0  0  0  0  0  0  0  0  0
   46.2698  -27.1716 -106.1427 C   0  0  2  0  0  0  0  0  0  0  0  0
   47.5629  -32.0148 -102.1922 O   0  0  0  0  0  0  0  0  0  0  0  0
   46.4723  -32.4677 -105.8135 N   0  0  0  0  0  0  0  0  0  0  0  0
   45.7631  -31.6164 -105.0323 C   0  0  0  0  0  0  0  0  0  0  0  0
   45.7656  -30.2846 -105.2493 N   0  0  0  0  0  0  0  0  0  0  0  0
   46.5477  -29.7472 -106.1996 C   0  0  0  0  0  0  0  0  0  0  0  0
   47.3513  -30.6131 -107.0283 C   0  0  0  0  0  0  0  0  0  0  0  0
   47.2762  -32.0195 -106.8010 C   0  0  0  0  0  0  0  0  0  0  0  0
   48.0104  -32.9054 -107.5632 N   0  0  0  0  0  0  0  0  0  0  0  0
   48.0301  -29.8339 -107.8785 N   0  0  0  0  0  0  0  0  0  0  0  0
   47.7283  -28.5914 -107.6449 C   0  0  0  0  0  0  0  0  0  0  0  0
   46.8127  -28.4749 -106.6252 N   0  0  0  0  0  0  0  0  0  0  0  0
  2  1  1  1  0  0  0
  2  3  1  0  0  0  0
  2  5  1  0  0  0  0
  3  4  1  0  0  0  0
  3 17  1  0  0  0  0
  5  6  1  0  0  0  0
  7  6  1  1  0  0  0
  7  8  1  0  0  0  0
  7  9  1  0  0  0  0
 10  9  1  1  0  0  0
 10 11  1  0  0  0  0
 10 12  1  0  0  0  0
 11 16  1  0  0  0  0
 12 13  1  1  0  0  0
 12 14  1  0  0  0  0
 14 15  1  6  0  0  0
 14 16  1  0  0  0  0
 16 27  1  1  0  0  0
 18 19  2  0  0  0  0
 18 23  1  0  0  0  0
 19 20  1  0  0  0  0
 20 21  2  0  0  0  0
 21 22  1  0  0  0  0
 21 27  1  0  0  0  0
 22 23  2  0  0  0  0
 22 25  1  0  0  0  0
 23 24  1  0  0  0  0
 25 26  2  0  0  0  0
 26 27  1  0  0  0  0
M  END
>  <CHROM.1>
87.06488749,-78.23881651,-80.79772581,175.54619109,-169.30014922,20.89997432
96.84649456,47.12581530,-28.95522622,-104.34089066,-1.14994070,1.24155335
-2.77186357

>  <Name>
ligand

>  <RI>
0

>  <Rbt.Current_Directory>
/home/itssahil/PROJECTS/Mol_Feturizer/Test_systems_manuscript/rnas/4l81

>  <Rbt.Executable>
rbdock ($Id: //depot/dev/client3/rdock/2013.1/src/exe/rbdock.cxx#4 $)

>  <Rbt.Library>
libRbt.so (2013.1, Build901 2013/11/27)

>  <Rbt.Parameter_File>
/export/apps/rDock/src/rDock_2013.1_src/data/scripts/dock_solv.prm

>  <Rbt.Receptor>
prm/pocket_docking_5.prm

>  <SCORE>
-5.1265

>  <SCORE.INTER>
-5.21946

>  <SCORE.INTER.CONST>
1

>  <SCORE.INTER.POLAR>
0

>  <SCORE.INTER.ROT>
7

>  <SCORE.INTER.SOLV>
13.4298

>  <SCORE.INTER.VDW>
-16.2229

>  <SCORE.INTER.norm>
-0.193313

>  <SCORE.INTRA>
0.0929607

>  <SCORE.INTRA.DIHEDRAL>
2.31098

>  <SCORE.INTRA.DIHEDRAL.0>
8.34559

>  <SCORE.INTRA.POLAR>
0

>  <SCORE.INTRA.POLAR.0>
0

>  <SCORE.INTRA.REPUL>
0

>  <SCORE.INTRA.REPUL.0>
0

>  <SCORE.INTRA.SOLV>
0.187506

>  <SCORE.INTRA.SOLV.lig_0>
-48.829

>  <SCORE.INTRA.VDW>
-1.15628

>  <SCORE.INTRA.VDW.0>
-1.77092

>  <SCORE.INTRA.norm>
0.00344299

>  <SCORE.RESTR>
0

>  <SCORE.RESTR.CAVITY>
0

>  <SCORE.RESTR.norm>
0

>  <SCORE.SYSTEM>
0

>  <SCORE.SYSTEM.CONST>
0

>  <SCORE.SYSTEM.DIHEDRAL>
0

>  <SCORE.SYSTEM.SOLV>
0

>  <SCORE.SYSTEM.norm>
0

>  <SCORE.heavy>
27

>  <SCORE.norm>
-0.18987

>  <RMSD>
5.707

$$$$
ligand
 OpenBabel02271912153D
libRbt.so/2013.1/901 2013/11/27
 27 29  0  0  0  0  0  0  0  0999 V2000
   50.8271  -33.4620 -103.4924 N   0  0  0  0  0  0  0  0  0  0  0  0
   51.6203  -32.4175 -102.8349 C   0  0  2  0  0  0  0  0  0  0  0  0
   52.0823  -32.9114 -101.4801 C   0  0  0  0  0  0  0  0  0  0  0  0
   51.4686  -32.6000 -100.4706 O   0  0  0  0  0  0  0  0  0  0  0  0
   50.8029  -31.1329 -102.6421 C   0  0  0  0  0  0  0  0  0  0  0  0
   50.1286  -30.7201 -103.9428 C   0  0  0  0  0  0  0  0  0  0  0  0
   48.9305  -29.3473 -103.7351 S   0  0  2  0  0  0  0  0  0  0  0  0
   47.7356  -29.5989 -105.0873 C   0  0  0  0  0  0  0  0  0  0  0  0
   49.9605  -28.0959 -104.4980 C   0  0  0  0  0  0  0  0  0  0  0  0
   49.4859  -26.6883 -104.2525 C   0  0  1  0  0  0  0  0  0  0  0  0
   48.0833  -26.6349 -104.5635 O   0  0  0  0  0  0  0  0  0  0  0  0
   49.5956  -26.5599 -102.7865 C   0  0  1  0  0  0  0  0  0  0  0  0
   50.8186  -25.9054 -102.4529 O   0  0  0  0  0  0  0  0  0  0  0  0
   48.4346  -25.6753 -102.4521 C   0  0  1  0  0  0  0  0  0  0  0  0
   48.8142  -24.2875 -102.5582 O   0  0  0  0  0  0  0  0  0  0  0  0
   47.3284  -26.0024 -103.4996 C   0  0  2  0  0  0  0  0  0  0  0  0
   53.0481  -33.6489 -101.3890 O   0  0  0  0  0  0  0  0  0  0  0  0
   45.5840  -29.7653 -100.1836 N   0  0  0  0  0  0  0  0  0  0  0  0
   46.7649  -29.1014 -100.1342 C   0  0  0  0  0  0  0  0  0  0  0  0
   47.0710  -28.1304 -101.0200 N   0  0  0  0  0  0  0  0  0  0  0  0
   46.2450  -27.8498 -102.0410 C   0  0  0  0  0  0  0  0  0  0  0  0
   44.9948  -28.5614 -102.1562 C   0  0  0  0  0  0  0  0  0  0  0  0
   44.6861  -29.5412 -101.1663 C   0  0  0  0  0  0  0  0  0  0  0  0
   43.5037  -30.2516 -101.2105 N   0  0  0  0  0  0  0  0  0  0  0  0
   44.3730  -28.1004 -103.2478 N   0  0  0  0  0  0  0  0  0  0  0  0
   45.1182  -27.1942 -103.8071 C   0  0  0  0  0  0  0  0  0  0  0  0
   46.2827  -26.9905 -103.1041 N   0  0  0  0  0  0  0  0  0  0  0  0
  2  1  1  1  0  0  0
  2  3  1  0  0  0  0
  2  5  1  0  0  0  0
  3  4  1  0  0  0  0
  3 17  1  0  0  0  0
  5  6  1  0  0  0  0
  7  6  1  6  0  0  0
  7  8  1  0  0  0  0
  7  9  1  0  0  0  0
 10  9  1  1  0  0  0
 10 11  1  0  0  0  0
 10 12  1  0  0  0  0
 11 16  1  0  0  0  0
 12 13  1  6  0  0  0
 12 14  1  0  0  0  0
 14 15  1  6  0  0  0
 14 16  1  0  0  0  0
 16 27  1  1  0  0  0
 18 19  2  0  0  0  0
 18 23  1  0  0  0  0
 19 20  1  0  0  0  0
 20 21  2  0  0  0  0
 21 22  1  0  0  0  0
 21 27  1  0  0  0  0
 22 23  2  0  0  0  0
 22 25  1  0  0  0  0
 23 24  1  0  0  0  0
 25 26  2  0  0  0  0
 26 27  1  0  0  0  0
M  END
>  <CHROM.1>
-97.92712486,-50.05213847,171.09864583,-152.68256130,-166.12362174,-49.45682535
100.70212284,48.40969019,-28.95592201,-102.66898397,0.77056740,-0.22566035
2.82348589

>  <Name>
ligand

>  <RI>
0

>  <Rbt.Current_Directory>
/home/itssahil/PROJECTS/Mol_Feturizer/Test_systems_manuscript/rnas/4l81

>  <Rbt.Executable>
rbdock ($Id: //depot/dev/client3/rdock/2013.1/src/exe/rbdock.cxx#4 $)

>  <Rbt.Library>
libRbt.so (2013.1, Build901 2013/11/27)

>  <Rbt.Parameter_File>
/export/apps/rDock/src/rDock_2013.1_src/data/scripts/dock_solv.prm

>  <Rbt.Receptor>
prm/pocket_docking_5.prm

>  <SCORE>
-12.4819

>  <SCORE.INTER>
-11.3037

>  <SCORE.INTER.CONST>
1

>  <SCORE.INTER.POLAR>
0

>  <SCORE.INTER.ROT>
7

>  <SCORE.INTER.SOLV>
18.0083

>  <SCORE.INTER.VDW>
-21.8052

>  <SCORE.INTER.norm>
-0.418655

>  <SCORE.INTRA>
-1.1782

>  <SCORE.INTRA.DIHEDRAL>
0.0237616

>  <SCORE.INTRA.DIHEDRAL.0>
8.34559

>  <SCORE.INTRA.POLAR>
0

>  <SCORE.INTRA.POLAR.0>
0

>  <SCORE.INTRA.REPUL>
0

>  <SCORE.INTRA.REPUL.0>
0

>  <SCORE.INTRA.SOLV>
-0.160457

>  <SCORE.INTRA.SOLV.lig_0>
-48.829

>  <SCORE.INTRA.VDW>
-1.10985

>  <SCORE.INTRA.VDW.0>
-1.77092

>  <SCORE.INTRA.norm>
-0.0436371

>  <SCORE.RESTR>
0

>  <SCORE.RESTR.CAVITY>
0

>  <SCORE.RESTR.norm>
0

>  <SCORE.SYSTEM>
0

>  <SCORE.SYSTEM.CONST>
0

>  <SCORE.SYSTEM.DIHEDRAL>
0

>  <SCORE.SYSTEM.SOLV>
0

>  <SCORE.SYSTEM.norm>
0

>  <SCORE.heavy>
27

>  <SCORE.norm>
-0.462292

>  <RMSD>
5.729

$$$$
ligand
 OpenBabel02271912153D
libRbt.so/2013.1/901 2013/11/27
 27 29  0  0  0  0  0  0  0  0999 V2000
   50.5581  -31.0061 -101.8564 N   0  0  0  0  0  0  0  0  0  0  0  0
   50.6873  -29.8479 -102.7477 C   0  0  2  0  0  0  0  0  0  0  0  0
   50.0939  -28.6263 -102.0781 C   0  0  0  0  0  0  0  0  0  0  0  0
   49.4065  -28.7483 -101.0754 O   0  0  0  0  0  0  0  0  0  0  0  0
   49.9629  -30.0842 -104.0799 C   0  0  0  0  0  0  0  0  0  0  0  0
   48.4651  -30.2436 -103.8608 C   0  0  0  0  0  0  0  0  0  0  0  0
   48.0067  -31.8628 -103.1317 S   0  0  2  0  0  0  0  0  0  0  0  0
   48.0513  -33.0098 -104.5466 C   0  0  0  0  0  0  0  0  0  0  0  0
   46.2449  -31.5431 -103.0833 C   0  0  0  0  0  0  0  0  0  0  0  0
   45.7973  -30.8019 -101.8515 C   0  0  1  0  0  0  0  0  0  0  0  0
   46.6224  -29.6325 -101.7160 O   0  0  0  0  0  0  0  0  0  0  0  0
   44.4530  -30.3251 -102.2301 C   0  0  1  0  0  0  0  0  0  0  0  0
   43.4654  -31.2141 -101.7108 O   0  0  0  0  0  0  0  0  0  0  0  0
   44.3701  -29.0038 -101.5305 C   0  0  1  0  0  0  0  0  0  0  0  0
   43.8812  -29.1785 -100.1844 O   0  0  0  0  0  0  0  0  0  0  0  0
   45.8234  -28.4428 -101.4965 C   0  0  2  0  0  0  0  0  0  0  0  0
   50.3238  -27.5116 -102.5132 O   0  0  0  0  0  0  0  0  0  0  0  0
   44.5497  -25.6020 -105.7983 N   0  0  0  0  0  0  0  0  0  0  0  0
   43.7551  -26.4522 -105.1029 C   0  0  0  0  0  0  0  0  0  0  0  0
   44.1917  -27.0853 -103.9940 N   0  0  0  0  0  0  0  0  0  0  0  0
   45.4667  -26.9599 -103.5912 C   0  0  0  0  0  0  0  0  0  0  0  0
   46.3596  -26.0967 -104.3261 C   0  0  0  0  0  0  0  0  0  0  0  0
   45.8413  -25.4034 -105.4602 C   0  0  0  0  0  0  0  0  0  0  0  0
   46.6374  -24.5547 -106.2022 N   0  0  0  0  0  0  0  0  0  0  0  0
   47.5543  -26.1553 -103.7261 N   0  0  0  0  0  0  0  0  0  0  0  0
   47.4790  -26.9677 -102.7142 C   0  0  0  0  0  0  0  0  0  0  0  0
   46.2140  -27.4894 -102.5757 N   0  0  0  0  0  0  0  0  0  0  0  0
  2  1  1  1  0  0  0
  2  3  1  0  0  0  0
  2  5  1  0  0  0  0
  3  4  1  0  0  0  0
  3 17  1  0  0  0  0
  5  6  1  0  0  0  0
  7  6  1  6  0  0  0
  7  8  1  0  0  0  0
  7  9  1  0  0  0  0
 10  9  1  6  0  0  0
 10 11  1  0  0  0  0
 10 12  1  0  0  0  0
 11 16  1  0  0  0  0
 12 13  1  1  0  0  0
 12 14  1  0  0  0  0
 14 15  1  1  0  0  0
 14 16  1  0  0  0  0
 16 27  1  6  0  0  0
 18 19  2  0  0  0  0
 18 23  1  0  0  0  0
 19 20  1  0  0  0  0
 20 21  2  0  0  0  0
 21 22  1  0  0  0  0
 21 27  1  0  0  0  0
 22 23  2  0  0  0  0
 22 25  1  0  0  0  0
 23 24  1  0  0  0  0
 25 26  2  0  0  0  0
 26 27  1  0  0  0  0
M  END
>  <CHROM.1>
-12.75355136,63.65231594,-74.33019814,-79.31131927,-85.27947240,51.67159324
116.79077716,46.89803371,-28.88175171,-103.03486557,-0.94510308,0.10067179
-0.42622801

>  <Name>
ligand

>  <RI>
0

>  <Rbt.Current_Directory>
/home/itssahil/PROJECTS/Mol_Feturizer/Test_systems_manuscript/rnas/4l81

>  <Rbt.Executable>
rbdock ($Id: //depot/dev/client3/rdock/2013.1/src/exe/rbdock.cxx#4 $)

>  <Rbt.Library>
libRbt.so (2013.1, Build901 2013/11/27)

>  <Rbt.Parameter_File>
/export/apps/rDock/src/rDock_2013.1_src/data/scripts/dock_solv.prm

>  <Rbt.Receptor>
prm/pocket_docking_3.prm

>  <SCORE>
-15.4362

>  <SCORE.INTER>
-12.55

>  <SCORE.INTER.CONST>
1

>  <SCORE.INTER.POLAR>
0

>  <SCORE.INTER.ROT>
7

>  <SCORE.INTER.SOLV>
11.1887

>  <SCORE.INTER.VDW>
-20.3629

>  <SCORE.INTER.norm>
-0.464813

>  <SCORE.INTRA>
-2.89014

>  <SCORE.INTRA.DIHEDRAL>
-2.86218

>  <SCORE.INTRA.DIHEDRAL.0>
8.34559

>  <SCORE.INTRA.POLAR>
0

>  <SCORE.INTRA.POLAR.0>
0

>  <SCORE.INTRA.REPUL>
0

>  <SCORE.INTRA.REPUL.0>
0

>  <SCORE.INTRA.SOLV>
1.45875

>  <SCORE.INTRA.SOLV.lig_0>
-48.829

>  <SCORE.INTRA.VDW>
-2.18842

>  <SCORE.INTRA.VDW.0>
-1.77092

>  <SCORE.INTRA.norm>
-0.107042

>  <SCORE.RESTR>
0.00389154

>  <SCORE.RESTR.CAVITY>
0.00389154

>  <SCORE.RESTR.norm>
0.000144131

>  <SCORE.SYSTEM>
0

>  <SCORE.SYSTEM.CONST>
0

>  <SCORE.SYSTEM.DIHEDRAL>
0

>  <SCORE.SYSTEM.SOLV>
0

>  <SCORE.SYSTEM.norm>
0

>  <SCORE.heavy>
27

>  <SCORE.norm>
-0.571711

>  <RMSD>
5.755

$$$$
ligand
 OpenBabel02271912153D
libRbt.so/2013.1/901 2013/11/27
 27 29  0  0  0  0  0  0  0  0999 V2000
   49.2996  -23.6245 -102.8250 N   0  0  0  0  0  0  0  0  0  0  0  0
   49.9244  -24.8285 -103.3841 C   0  0  2  0  0  0  0  0  0  0  0  0
   50.6649  -24.4696 -104.6552 C   0  0  0  0  0  0  0  0  0  0  0  0
   51.3447  -25.3079 -105.2278 O   0  0  0  0  0  0  0  0  0  0  0  0
   48.8773  -25.9032 -103.7068 C   0  0  0  0  0  0  0  0  0  0  0  0
   48.2773  -26.4749 -102.4301 C   0  0  0  0  0  0  0  0  0  0  0  0
   47.1190  -27.8644 -102.7316 S   0  0  2  0  0  0  0  0  0  0  0  0
   46.7783  -28.5213 -101.0667 C   0  0  0  0  0  0  0  0  0  0  0  0
   48.3749  -29.0341 -103.2448 C   0  0  0  0  0  0  0  0  0  0  0  0
   47.8874  -30.0451 -104.2483 C   0  0  1  0  0  0  0  0  0  0  0  0
   49.0244  -30.7973 -104.7049 O   0  0  0  0  0  0  0  0  0  0  0  0
   47.0826  -30.9632 -103.4194 C   0  0  1  0  0  0  0  0  0  0  0  0
   45.7027  -30.6153 -103.5210 O   0  0  0  0  0  0  0  0  0  0  0  0
   47.3255  -32.2872 -104.0751 C   0  0  1  0  0  0  0  0  0  0  0  0
   46.3823  -32.4974 -105.1463 O   0  0  0  0  0  0  0  0  0  0  0  0
   48.7726  -32.2240 -104.6497 C   0  0  2  0  0  0  0  0  0  0  0  0
   50.5626  -23.3540 -105.1345 O   0  0  0  0  0  0  0  0  0  0  0  0
   51.6018  -32.2073 -100.1560 N   0  0  0  0  0  0  0  0  0  0  0  0
   50.6037  -31.3603 -100.5088 C   0  0  0  0  0  0  0  0  0  0  0  0
   49.9317  -31.4998 -101.6706 N   0  0  0  0  0  0  0  0  0  0  0  0
   50.2927  -32.4371 -102.5621 C   0  0  0  0  0  0  0  0  0  0  0  0
   51.3774  -33.3347 -102.2456 C   0  0  0  0  0  0  0  0  0  0  0  0
   52.0242  -33.1873 -100.9826 C   0  0  0  0  0  0  0  0  0  0  0  0
   53.0620  -34.0180 -100.6116 N   0  0  0  0  0  0  0  0  0  0  0  0
   51.5337  -34.1553 -103.2910 N   0  0  0  0  0  0  0  0  0  0  0  0
   50.6656  -33.8426 -104.2065 C   0  0  0  0  0  0  0  0  0  0  0  0
   49.8669  -32.7949 -103.8114 N   0  0  0  0  0  0  0  0  0  0  0  0
  2  1  1  6  0  0  0
  2  3  1  0  0  0  0
  2  5  1  0  0  0  0
  3  4  1  0  0  0  0
  3 17  1  0  0  0  0
  5  6  1  0  0  0  0
  7  6  1  1  0  0  0
  7  8  1  0  0  0  0
  7  9  1  0  0  0  0
 10  9  1  1  0  0  0
 10 11  1  0  0  0  0
 10 12  1  0  0  0  0
 11 16  1  0  0  0  0
 12 13  1  6  0  0  0
 12 14  1  0  0  0  0
 14 15  1  6  0  0  0
 14 16  1  0  0  0  0
 16 27  1  1  0  0  0
 18 19  2  0  0  0  0
 18 23  1  0  0  0  0
 19 20  1  0  0  0  0
 20 21  2  0  0  0  0
 21 22  1  0  0  0  0
 21 27  1  0  0  0  0
 22 23  2  0  0  0  0
 22 25  1  0  0  0  0
 23 24  1  0  0  0  0
 25 26  2  0  0  0  0
 26 27  1  0  0  0  0
M  END
>  <CHROM.1>
174.31375827,-69.21812719,-175.16951167,170.95073222,-149.26658147,172.37004870
52.42257296,49.25525929,-29.72962627,-103.14498504,-1.70659632,0.31217811
3.02237027

>  <Name>
ligand

>  <RI>
0

>  <Rbt.Current_Directory>
/home/itssahil/PROJECTS/Mol_Feturizer/Test_systems_manuscript/rnas/4l81

>  <Rbt.Executable>
rbdock ($Id: //depot/dev/client3/rdock/2013.1/src/exe/rbdock.cxx#4 $)

>  <Rbt.Library>
libRbt.so (2013.1, Build901 2013/11/27)

>  <Rbt.Parameter_File>
/export/apps/rDock/src/rDock_2013.1_src/data/scripts/dock_solv.prm

>  <Rbt.Receptor>
prm/pocket_docking_5.prm

>  <SCORE>
-12.5119

>  <SCORE.INTER>
-10.4861

>  <SCORE.INTER.CONST>
1

>  <SCORE.INTER.POLAR>
0

>  <SCORE.INTER.ROT>
7

>  <SCORE.INTER.SOLV>
14.1085

>  <SCORE.INTER.VDW>
-19.9603

>  <SCORE.INTER.norm>
-0.388375

>  <SCORE.INTRA>
-2.02579

>  <SCORE.INTRA.DIHEDRAL>
-1.35896

>  <SCORE.INTRA.DIHEDRAL.0>
8.34559

>  <SCORE.INTRA.POLAR>
0

>  <SCORE.INTRA.POLAR.0>
0

>  <SCORE.INTRA.REPUL>
0

>  <SCORE.INTRA.REPUL.0>
0

>  <SCORE.INTRA.SOLV>
-0.35516

>  <SCORE.INTRA.SOLV.lig_0>
-48.829

>  <SCORE.INTRA.VDW>
-1.16872

>  <SCORE.INTRA.VDW.0>
-1.77092

>  <SCORE.INTRA.norm>
-0.0750291

>  <SCORE.RESTR>
0

>  <SCORE.RESTR.CAVITY>
0

>  <SCORE.RESTR.norm>
0

>  <SCORE.SYSTEM>
0

>  <SCORE.SYSTEM.CONST>
0

>  <SCORE.SYSTEM.DIHEDRAL>
0

>  <SCORE.SYSTEM.SOLV>
0

>  <SCORE.SYSTEM.norm>
0

>  <SCORE.heavy>
27

>  <SCORE.norm>
-0.463404

>  <RMSD>
5.761

$$$$
ligand
 OpenBabel02271912153D
libRbt.so/2013.1/901 2013/11/27
 27 29  0  0  0  0  0  0  0  0999 V2000
   50.8693  -28.7922 -102.5278 N   0  0  0  0  0  0  0  0  0  0  0  0
   50.0139  -29.9840 -102.5488 C   0  0  2  0  0  0  0  0  0  0  0  0
   50.5611  -31.0157 -101.5849 C   0  0  0  0  0  0  0  0  0  0  0  0
   51.5649  -31.6512 -101.8697 O   0  0  0  0  0  0  0  0  0  0  0  0
   49.9499  -30.6014 -103.9524 C   0  0  0  0  0  0  0  0  0  0  0  0
   49.2427  -29.6665 -104.9233 C   0  0  0  0  0  0  0  0  0  0  0  0
   47.4720  -29.4079 -104.5221 S   0  0  2  0  0  0  0  0  0  0  0  0
   46.7148  -31.0409 -104.8044 C   0  0  0  0  0  0  0  0  0  0  0  0
   47.0495  -28.6284 -106.0786 C   0  0  0  0  0  0  0  0  0  0  0  0
   45.6518  -28.0699 -106.1168 C   0  0  1  0  0  0  0  0  0  0  0  0
   44.8012  -28.9583 -105.3725 O   0  0  0  0  0  0  0  0  0  0  0  0
   45.7731  -26.8364 -105.3158 C   0  0  1  0  0  0  0  0  0  0  0  0
   45.9418  -25.7164 -106.1834 O   0  0  0  0  0  0  0  0  0  0  0  0
   44.4411  -26.7605 -104.6361 C   0  0  1  0  0  0  0  0  0  0  0  0
   43.4892  -26.0714 -105.4729 O   0  0  0  0  0  0  0  0  0  0  0  0
   43.9842  -28.2342 -104.4185 C   0  0  2  0  0  0  0  0  0  0  0  0
   50.0252  -31.1966 -100.5055 O   0  0  0  0  0  0  0  0  0  0  0  0
   47.1281  -28.7258 -100.1673 N   0  0  0  0  0  0  0  0  0  0  0  0
   47.3403  -27.9664 -101.2702 C   0  0  0  0  0  0  0  0  0  0  0  0
   46.4356  -27.8970 -102.2690 N   0  0  0  0  0  0  0  0  0  0  0  0
   45.3264  -28.6536 -102.2421 C   0  0  0  0  0  0  0  0  0  0  0  0
   45.0800  -29.5083 -101.1057 C   0  0  0  0  0  0  0  0  0  0  0  0
   46.0356  -29.5093 -100.0464 C   0  0  0  0  0  0  0  0  0  0  0  0
   45.8576  -30.2953  -98.9261 N   0  0  0  0  0  0  0  0  0  0  0  0
   43.9263  -30.1479 -101.3308 N   0  0  0  0  0  0  0  0  0  0  0  0
   43.4561  -29.7770 -102.4843 C   0  0  0  0  0  0  0  0  0  0  0  0
   44.2722  -28.8506 -103.0906 N   0  0  0  0  0  0  0  0  0  0  0  0
  2  1  1  6  0  0  0
  2  3  1  0  0  0  0
  2  5  1  0  0  0  0
  3  4  1  0  0  0  0
  3 17  1  0  0  0  0
  5  6  1  0  0  0  0
  7  6  1  6  0  0  0
  7  8  1  0  0  0  0
  7  9  1  0  0  0  0
 10  9  1  1  0  0  0
 10 11  1  0  0  0  0
 10 12  1  0  0  0  0
 11 16  1  0  0  0  0
 12 13  1  6  0  0  0
 12 14  1  0  0  0  0
 14 15  1  6  0  0  0
 14 16  1  0  0  0  0
 16 27  1  1  0  0  0
 18 19  2  0  0  0  0
 18 23  1  0  0  0  0
 19 20  1  0  0  0  0
 20 21  2  0  0  0  0
 21 22  1  0  0  0  0
 21 27  1  0  0  0  0
 22 23  2  0  0  0  0
 22 25  1  0  0  0  0
 23 24  1  0  0  0  0
 25 26  2  0  0  0  0
 26 27  1  0  0  0  0
M  END
>  <CHROM.1>
-74.26418096,-66.39704103,-65.41012330,-66.59805365,-172.52927196,-36.24221477
80.04611380,46.82334017,-29.05223655,-103.22421411,-0.64103674,0.31170959
-1.20441282

>  <Name>
ligand

>  <RI>
0

>  <Rbt.Current_Directory>
/home/itssahil/PROJECTS/Mol_Feturizer/Test_systems_manuscript/rnas/4l81

>  <Rbt.Executable>
rbdock ($Id: //depot/dev/client3/rdock/2013.1/src/exe/rbdock.cxx#4 $)

>  <Rbt.Library>
libRbt.so (2013.1, Build901 2013/11/27)

>  <Rbt.Parameter_File>
/export/apps/rDock/src/rDock_2013.1_src/data/scripts/dock_solv.prm

>  <Rbt.Receptor>
prm/pocket_docking_3.prm

>  <SCORE>
-8.21413

>  <SCORE.INTER>
-4.89934

>  <SCORE.INTER.CONST>
1

>  <SCORE.INTER.POLAR>
0

>  <SCORE.INTER.ROT>
7

>  <SCORE.INTER.SOLV>
24.0183

>  <SCORE.INTER.VDW>
-19.539

>  <SCORE.INTER.norm>
-0.181457

>  <SCORE.INTRA>
-3.34316

>  <SCORE.INTRA.DIHEDRAL>
-2.45118

>  <SCORE.INTRA.DIHEDRAL.0>
8.34559

>  <SCORE.INTRA.POLAR>
0

>  <SCORE.INTRA.POLAR.0>
0

>  <SCORE.INTRA.REPUL>
0

>  <SCORE.INTRA.REPUL.0>
0

>  <SCORE.INTRA.SOLV>
0.329439

>  <SCORE.INTRA.SOLV.lig_0>
-48.829

>  <SCORE.INTRA.VDW>
-2.28228

>  <SCORE.INTRA.VDW.0>
-1.77092

>  <SCORE.INTRA.norm>
-0.123821

>  <SCORE.RESTR>
0.0283622

>  <SCORE.RESTR.CAVITY>
0.0283622

>  <SCORE.RESTR.norm>
0.00105045

>  <SCORE.SYSTEM>
0

>  <SCORE.SYSTEM.CONST>
0

>  <SCORE.SYSTEM.DIHEDRAL>
0

>  <SCORE.SYSTEM.SOLV>
0

>  <SCORE.SYSTEM.norm>
0

>  <SCORE.heavy>
27

>  <SCORE.norm>
-0.304227

>  <RMSD>
5.770

$$$$
ligand
 OpenBabel02271912153D
libRbt.so/2013.1/901 2013/11/27
 27 29  0  0  0  0  0  0  0  0999 V2000
   49.8199  -28.9112 -102.5945 N   0  0  0  0  0  0  0  0  0  0  0  0
   50.4933  -30.0943 -102.0471 C   0  0  2  0  0  0  0  0  0  0  0  0
   50.8858  -31.0209 -103.1785 C   0  0  0  0  0  0  0  0  0  0  0  0
   51.6204  -31.9737 -102.9656 O   0  0  0  0  0  0  0  0  0  0  0  0
   49.5822  -30.8564 -101.0753 C   0  0  0  0  0  0  0  0  0  0  0  0
   48.8680  -29.8949 -100.1359 C   0  0  0  0  0  0  0  0  0  0  0  0
   47.2596  -29.3032 -100.7887 S   0  0  2  0  0  0  0  0  0  0  0  0
   46.3849  -28.6910  -99.3123 C   0  0  0  0  0  0  0  0  0  0  0  0
   46.5093  -30.9253 -100.9087 C   0  0  0  0  0  0  0  0  0  0  0  0
   45.7015  -31.1279 -102.1630 C   0  0  1  0  0  0  0  0  0  0  0  0
   44.9745  -29.9146 -102.4204 O   0  0  0  0  0  0  0  0  0  0  0  0
   46.7406  -31.2236 -103.2064 C   0  0  1  0  0  0  0  0  0  0  0  0
   47.0066  -32.5956 -103.4933 O   0  0  0  0  0  0  0  0  0  0  0  0
   46.0784  -30.5746 -104.3822 C   0  0  1  0  0  0  0  0  0  0  0  0
   45.3077  -31.5439 -105.1223 O   0  0  0  0  0  0  0  0  0  0  0  0
   45.1328  -29.4837 -103.7957 C   0  0  2  0  0  0  0  0  0  0  0  0
   50.4468  -30.8438 -104.3013 O   0  0  0  0  0  0  0  0  0  0  0  0
   49.0706  -26.0128 -104.5986 N   0  0  0  0  0  0  0  0  0  0  0  0
   49.0884  -27.3503 -104.8195 C   0  0  0  0  0  0  0  0  0  0  0  0
   47.9986  -28.1186 -104.6123 N   0  0  0  0  0  0  0  0  0  0  0  0
   46.8782  -27.5917 -104.0921 C   0  0  0  0  0  0  0  0  0  0  0  0
   46.8285  -26.1787 -103.8029 C   0  0  0  0  0  0  0  0  0  0  0  0
   47.9848  -25.3936 -104.0890 C   0  0  0  0  0  0  0  0  0  0  0  0
   48.0024  -24.0352 -103.8461 N   0  0  0  0  0  0  0  0  0  0  0  0
   45.6182  -25.9182 -103.2949 N   0  0  0  0  0  0  0  0  0  0  0  0
   44.9370  -27.0238 -103.2389 C   0  0  0  0  0  0  0  0  0  0  0  0
   45.6588  -28.0893 -103.7239 N   0  0  0  0  0  0  0  0  0  0  0  0
  2  1  1  6  0  0  0
  2  3  1  0  0  0  0
  2  5  1  0  0  0  0
  3  4  1  0  0  0  0
  3 17  1  0  0  0  0
  5  6  1  0  0  0  0
  7  6  1  1  0  0  0
  7  8  1  0  0  0  0
  7  9  1  0  0  0  0
 10  9  1  1  0  0  0
 10 11  1  0  0  0  0
 10 12  1  0  0  0  0
 11 16  1  0  0  0  0
 12 13  1  6  0  0  0
 12 14  1  0  0  0  0
 14 15  1  1  0  0  0
 14 16  1  0  0  0  0
 16 27  1  1  0  0  0
 18 19  2  0  0  0  0
 18 23  1  0  0  0  0
 19 20  1  0  0  0  0
 20 21  2  0  0  0  0
 21 22  1  0  0  0  0
 21 27  1  0  0  0  0
 22 23  2  0  0  0  0
 22 25  1  0  0  0  0
 23 24  1  0  0  0  0
 25 26  2  0  0  0  0
 26 27  1  0  0  0  0
M  END
>  <CHROM.1>
169.81079390,-44.20708142,89.62102723,160.88709282,-138.64719212,-40.35631640
112.89857074,47.58115096,-29.16400420,-102.91256266,-1.19578581,0.06100341
-0.29831443

>  <Name>
ligand

>  <RI>
0

>  <Rbt.Current_Directory>
/home/itssahil/PROJECTS/Mol_Feturizer/Test_systems_manuscript/rnas/4l81

>  <Rbt.Executable>
rbdock ($Id: //depot/dev/client3/rdock/2013.1/src/exe/rbdock.cxx#4 $)

>  <Rbt.Library>
libRbt.so (2013.1, Build901 2013/11/27)

>  <Rbt.Parameter_File>
/export/apps/rDock/src/rDock_2013.1_src/data/scripts/dock_solv.prm

>  <Rbt.Receptor>
prm/pocket_docking_2.prm

>  <SCORE>
-5.67766

>  <SCORE.INTER>
-8.66461

>  <SCORE.INTER.CONST>
1

>  <SCORE.INTER.POLAR>
0

>  <SCORE.INTER.ROT>
7

>  <SCORE.INTER.SOLV>
7.75988

>  <SCORE.INTER.VDW>
-16.6297

>  <SCORE.INTER.norm>
-0.320912

>  <SCORE.INTRA>
1.23362

>  <SCORE.INTRA.DIHEDRAL>
4.09964

>  <SCORE.INTRA.DIHEDRAL.0>
8.34559

>  <SCORE.INTRA.POLAR>
0

>  <SCORE.INTRA.POLAR.0>
0

>  <SCORE.INTRA.REPUL>
0

>  <SCORE.INTRA.REPUL.0>
0

>  <SCORE.INTRA.SOLV>
3.4163

>  <SCORE.INTRA.SOLV.lig_0>
-48.829

>  <SCORE.INTRA.VDW>
-2.52435

>  <SCORE.INTRA.VDW.0>
-1.77092

>  <SCORE.INTRA.norm>
0.0456898

>  <SCORE.RESTR>
1.75333

>  <SCORE.RESTR.CAVITY>
1.75333

>  <SCORE.RESTR.norm>
0.064938

>  <SCORE.SYSTEM>
0

>  <SCORE.SYSTEM.CONST>
0

>  <SCORE.SYSTEM.DIHEDRAL>
0

>  <SCORE.SYSTEM.SOLV>
0

>  <SCORE.SYSTEM.norm>
0

>  <SCORE.heavy>
27

>  <SCORE.norm>
-0.210284

>  <RMSD>
5.823

$$$$
ligand
 OpenBabel02271912153D
libRbt.so/2013.1/901 2013/11/27
 27 29  0  0  0  0  0  0  0  0999 V2000
   45.8354  -26.1871 -103.5641 N   0  0  0  0  0  0  0  0  0  0  0  0
   45.4841  -27.5766 -103.8781 C   0  0  2  0  0  0  0  0  0  0  0  0
   44.1875  -27.6056 -104.6596 C   0  0  0  0  0  0  0  0  0  0  0  0
   43.5858  -26.5677 -104.8905 O   0  0  0  0  0  0  0  0  0  0  0  0
   45.3129  -28.4118 -102.6020 C   0  0  0  0  0  0  0  0  0  0  0  0
   46.6634  -28.7178 -101.9700 C   0  0  0  0  0  0  0  0  0  0  0  0
   46.6043  -30.0989 -100.7649 S   0  0  2  0  0  0  0  0  0  0  0  0
   46.4508  -29.2674  -99.1511 C   0  0  0  0  0  0  0  0  0  0  0  0
   48.3695  -30.4040 -100.7582 C   0  0  0  0  0  0  0  0  0  0  0  0
   48.9593  -30.5793 -102.1323 C   0  0  1  0  0  0  0  0  0  0  0  0
   50.3790  -30.7509 -101.9845 O   0  0  0  0  0  0  0  0  0  0  0  0
   48.4202  -31.8871 -102.5525 C   0  0  1  0  0  0  0  0  0  0  0  0
   47.2732  -31.6899 -103.3777 O   0  0  0  0  0  0  0  0  0  0  0  0
   49.5433  -32.4533 -103.3651 C   0  0  1  0  0  0  0  0  0  0  0  0
   49.4391  -32.0188 -104.7368 O   0  0  0  0  0  0  0  0  0  0  0  0
   50.8547  -31.8980 -102.7328 C   0  0  2  0  0  0  0  0  0  0  0  0
   43.7516  -28.6581 -105.0922 O   0  0  0  0  0  0  0  0  0  0  0  0
   53.2407  -36.4830 -101.5147 N   0  0  0  0  0  0  0  0  0  0  0  0
   52.6599  -36.1390 -102.6904 C   0  0  0  0  0  0  0  0  0  0  0  0
   52.1213  -34.9172 -102.8855 N   0  0  0  0  0  0  0  0  0  0  0  0
   52.0646  -34.0258 -101.8826 C   0  0  0  0  0  0  0  0  0  0  0  0
   52.6343  -34.3652 -100.6009 C   0  0  0  0  0  0  0  0  0  0  0  0
   53.2430  -35.6471 -100.4548 C   0  0  0  0  0  0  0  0  0  0  0  0
   53.8155  -36.0327  -99.2596 N   0  0  0  0  0  0  0  0  0  0  0  0
   52.4417  -33.3186  -99.7895 N   0  0  0  0  0  0  0  0  0  0  0  0
   51.8096  -32.3892 -100.4422 C   0  0  0  0  0  0  0  0  0  0  0  0
   51.5560  -32.7644 -101.7408 N   0  0  0  0  0  0  0  0  0  0  0  0
  2  1  1  1  0  0  0
  2  3  1  0  0  0  0
  2  5  1  0  0  0  0
  3  4  1  0  0  0  0
  3 17  1  0  0  0  0
  5  6  1  0  0  0  0
  7  6  1  6  0  0  0
  7  8  1  0  0  0  0
  7  9  1  0  0  0  0
 10  9  1  1  0  0  0
 10 11  1  0  0  0  0
 10 12  1  0  0  0  0
 11 16  1  0  0  0  0
 12 13  1  6  0  0  0
 12 14  1  0  0  0  0
 14 15  1  6  0  0  0
 14 16  1  0  0  0  0
 16 27  1  1  0  0  0
 18 19  2  0  0  0  0
 18 23  1  0  0  0  0
 19 20  1  0  0  0  0
 20 21  2  0  0  0  0
 21 22  1  0  0  0  0
 21 27  1  0  0  0  0
 22 23  2  0  0  0  0
 22 25  1  0  0  0  0
 23 24  1  0  0  0  0
 25 26  2  0  0  0  0
 26 27  1  0  0  0  0
M  END
>  <CHROM.1>
-2.50403970,-73.96040555,-162.60937672,-96.82479201,-51.70813914,177.27339637
172.28875265,48.90095253,-31.35253955,-102.17789395,3.09285794,0.75832717
-1.82258833

>  <Name>
ligand

>  <RI>
0

>  <Rbt.Current_Directory>
/home/itssahil/PROJECTS/Mol_Feturizer/Test_systems_manuscript/rnas/4l81

>  <Rbt.Executable>
rbdock ($Id: //depot/dev/client3/rdock/2013.1/src/exe/rbdock.cxx#4 $)

>  <Rbt.Library>
libRbt.so (2013.1, Build901 2013/11/27)

>  <Rbt.Parameter_File>
/export/apps/rDock/src/rDock_2013.1_src/data/scripts/dock_solv.prm

>  <Rbt.Receptor>
prm/pocket_docking_8.prm

>  <SCORE>
-18.8695

>  <SCORE.INTER>
-18.6285

>  <SCORE.INTER.CONST>
1

>  <SCORE.INTER.POLAR>
0

>  <SCORE.INTER.ROT>
7

>  <SCORE.INTER.SOLV>
10.155

>  <SCORE.INTER.VDW>
-24.0707

>  <SCORE.INTER.norm>
-0.689946

>  <SCORE.INTRA>
-0.240935

>  <SCORE.INTRA.DIHEDRAL>
-0.715521

>  <SCORE.INTRA.DIHEDRAL.0>
8.34559

>  <SCORE.INTRA.POLAR>
0

>  <SCORE.INTRA.POLAR.0>
0

>  <SCORE.INTRA.REPUL>
0

>  <SCORE.INTRA.REPUL.0>
0

>  <SCORE.INTRA.SOLV>
-0.320801

>  <SCORE.INTRA.SOLV.lig_0>
-48.829

>  <SCORE.INTRA.VDW>
0.277226

>  <SCORE.INTRA.VDW.0>
-1.77092

>  <SCORE.INTRA.norm>
-0.00892353

>  <SCORE.RESTR>
0

>  <SCORE.RESTR.CAVITY>
0

>  <SCORE.RESTR.norm>
0

>  <SCORE.SYSTEM>
0

>  <SCORE.SYSTEM.CONST>
0

>  <SCORE.SYSTEM.DIHEDRAL>
0

>  <SCORE.SYSTEM.SOLV>
0

>  <SCORE.SYSTEM.norm>
0

>  <SCORE.heavy>
27

>  <SCORE.norm>
-0.698869

>  <RMSD>
5.839

$$$$
ligand
 OpenBabel02271912153D
libRbt.so/2013.1/901 2013/11/27
 27 29  0  0  0  0  0  0  0  0999 V2000
   46.3101  -26.2574 -104.7552 N   0  0  0  0  0  0  0  0  0  0  0  0
   46.6851  -26.6024 -103.3793 C   0  0  2  0  0  0  0  0  0  0  0  0
   48.1935  -26.5887 -103.2482 C   0  0  0  0  0  0  0  0  0  0  0  0
   48.8895  -27.1149 -104.1035 O   0  0  0  0  0  0  0  0  0  0  0  0
   46.1661  -27.9934 -102.9906 C   0  0  0  0  0  0  0  0  0  0  0  0
   46.3802  -28.2558 -101.5066 C   0  0  0  0  0  0  0  0  0  0  0  0
   45.8949  -29.9477 -100.9915 S   0  0  2  0  0  0  0  0  0  0  0  0
   46.2421  -29.9788  -99.2032 C   0  0  0  0  0  0  0  0  0  0  0  0
   47.3850  -30.7472 -101.5822 C   0  0  0  0  0  0  0  0  0  0  0  0
   47.3782  -31.0241 -103.0621 C   0  0  1  0  0  0  0  0  0  0  0  0
   48.7442  -31.0784 -103.5071 O   0  0  0  0  0  0  0  0  0  0  0  0
   46.8592  -32.4037 -103.1318 C   0  0  1  0  0  0  0  0  0  0  0  0
   45.4615  -32.3760 -103.4163 O   0  0  0  0  0  0  0  0  0  0  0  0
   47.6071  -32.9715 -104.2982 C   0  0  1  0  0  0  0  0  0  0  0  0
   46.9062  -32.6923 -105.5278 O   0  0  0  0  0  0  0  0  0  0  0  0
   48.9941  -32.2614 -104.3072 C   0  0  2  0  0  0  0  0  0  0  0  0
   48.7258  -26.0253 -102.3079 O   0  0  0  0  0  0  0  0  0  0  0  0
   52.2400  -32.8307 -100.1433 N   0  0  0  0  0  0  0  0  0  0  0  0
   51.2653  -31.9037 -100.3122 C   0  0  0  0  0  0  0  0  0  0  0  0
   50.4770  -31.8939 -101.4074 N   0  0  0  0  0  0  0  0  0  0  0  0
   50.6932  -32.7557 -102.4144 C   0  0  0  0  0  0  0  0  0  0  0  0
   51.7475  -33.7338 -102.2949 C   0  0  0  0  0  0  0  0  0  0  0  0
   52.5209  -33.7445 -101.0962 C   0  0  0  0  0  0  0  0  0  0  0  0
   53.5379  -34.6591 -100.9118 N   0  0  0  0  0  0  0  0  0  0  0  0
   51.7524  -34.4543 -103.4226 N   0  0  0  0  0  0  0  0  0  0  0  0
   50.8203  -34.0095 -104.2117 C   0  0  0  0  0  0  0  0  0  0  0  0
   50.1280  -32.9667 -103.6416 N   0  0  0  0  0  0  0  0  0  0  0  0
  2  1  1  6  0  0  0
  2  3  1  0  0  0  0
  2  5  1  0  0  0  0
  3  4  1  0  0  0  0
  3 17  1  0  0  0  0
  5  6  1  0  0  0  0
  7  6  1  6  0  0  0
  7  8  1  0  0  0  0
  7  9  1  0  0  0  0
 10  9  1  1  0  0  0
 10 11  1  0  0  0  0
 10 12  1  0  0  0  0
 11 16  1  0  0  0  0
 12 13  1  6  0  0  0
 12 14  1  0  0  0  0
 14 15  1  6  0  0  0
 14 16  1  0  0  0  0
 16 27  1  1  0  0  0
 18 19  2  0  0  0  0
 18 23  1  0  0  0  0
 19 20  1  0  0  0  0
 20 21  2  0  0  0  0
 21 22  1  0  0  0  0
 21 27  1  0  0  0  0
 22 23  2  0  0  0  0
 22 25  1  0  0  0  0
 23 24  1  0  0  0  0
 25 26  2  0  0  0  0
 26 27  1  0  0  0  0
M  END
>  <CHROM.1>
-44.86540945,-171.65558426,-175.81994299,-179.68630833,-80.83676074,154.41324794
11.60090226,48.59899702,-30.89378328,-102.57872393,-2.37805792,0.49993252
-2.78997454

>  <Name>
ligand

>  <RI>
0

>  <Rbt.Current_Directory>
/home/itssahil/PROJECTS/Mol_Feturizer/Test_systems_manuscript/rnas/4l81

>  <Rbt.Executable>
rbdock ($Id: //depot/dev/client3/rdock/2013.1/src/exe/rbdock.cxx#4 $)

>  <Rbt.Library>
libRbt.so (2013.1, Build901 2013/11/27)

>  <Rbt.Parameter_File>
/export/apps/rDock/src/rDock_2013.1_src/data/scripts/dock_solv.prm

>  <Rbt.Receptor>
prm/pocket_docking_6.prm

>  <SCORE>
-19.7

>  <SCORE.INTER>
-16.6422

>  <SCORE.INTER.CONST>
1

>  <SCORE.INTER.POLAR>
0

>  <SCORE.INTER.ROT>
7

>  <SCORE.INTER.SOLV>
12.9979

>  <SCORE.INTER.VDW>
-23.6941

>  <SCORE.INTER.norm>
-0.616378

>  <SCORE.INTRA>
-3.05775

>  <SCORE.INTRA.DIHEDRAL>
-2.01882

>  <SCORE.INTRA.DIHEDRAL.0>
8.34559

>  <SCORE.INTRA.POLAR>
0

>  <SCORE.INTRA.POLAR.0>
0

>  <SCORE.INTRA.REPUL>
0

>  <SCORE.INTRA.REPUL.0>
0

>  <SCORE.INTRA.SOLV>
-1.09281

>  <SCORE.INTRA.SOLV.lig_0>
-48.829

>  <SCORE.INTRA.VDW>
-1.50194

>  <SCORE.INTRA.VDW.0>
-1.77092

>  <SCORE.INTRA.norm>
-0.11325

>  <SCORE.RESTR>
0

>  <SCORE.RESTR.CAVITY>
0

>  <SCORE.RESTR.norm>
0

>  <SCORE.SYSTEM>
0

>  <SCORE.SYSTEM.CONST>
0

>  <SCORE.SYSTEM.DIHEDRAL>
0

>  <SCORE.SYSTEM.SOLV>
0

>  <SCORE.SYSTEM.norm>
0

>  <SCORE.heavy>
27

>  <SCORE.norm>
-0.729628

>  <RMSD>
5.862

$$$$
ligand
 OpenBabel02271912153D
libRbt.so/2013.1/901 2013/11/27
 27 29  0  0  0  0  0  0  0  0999 V2000
   49.4644  -33.0912 -105.8024 N   0  0  0  0  0  0  0  0  0  0  0  0
   49.2626  -32.7063 -104.4010 C   0  0  2  0  0  0  0  0  0  0  0  0
   47.8150  -32.9318 -104.0185 C   0  0  0  0  0  0  0  0  0  0  0  0
   47.5372  -33.5575 -103.0066 O   0  0  0  0  0  0  0  0  0  0  0  0
   49.6120  -31.2296 -104.1711 C   0  0  0  0  0  0  0  0  0  0  0  0
   49.6542  -30.9086 -102.6838 C   0  0  0  0  0  0  0  0  0  0  0  0
   48.3156  -29.7753 -102.1480 S   0  0  2  0  0  0  0  0  0  0  0  0
   48.9211  -29.0958 -100.5696 C   0  0  0  0  0  0  0  0  0  0  0  0
   47.2417  -31.0587 -101.5091 C   0  0  0  0  0  0  0  0  0  0  0  0
   45.8433  -30.5864 -101.2119 C   0  0  1  0  0  0  0  0  0  0  0  0
   45.8945  -29.1664 -100.9927 O   0  0  0  0  0  0  0  0  0  0  0  0
   45.1522  -30.7872 -102.5002 C   0  0  1  0  0  0  0  0  0  0  0  0
   44.4383  -32.0221 -102.4736 O   0  0  0  0  0  0  0  0  0  0  0  0
   44.1895  -29.6407 -102.5324 C   0  0  1  0  0  0  0  0  0  0  0  0
   42.9604  -29.9987 -101.8671 O   0  0  0  0  0  0  0  0  0  0  0  0
   44.8839  -28.4739 -101.7680 C   0  0  2  0  0  0  0  0  0  0  0  0
   46.9177  -32.4639 -104.6973 O   0  0  0  0  0  0  0  0  0  0  0  0
   45.0234  -25.0811 -105.8507 N   0  0  0  0  0  0  0  0  0  0  0  0
   44.0063  -25.9024 -105.4915 C   0  0  0  0  0  0  0  0  0  0  0  0
   44.0828  -26.6912 -104.3993 N   0  0  0  0  0  0  0  0  0  0  0  0
   45.2134  -26.7533 -103.6773 C   0  0  0  0  0  0  0  0  0  0  0  0
   46.3364  -25.9262 -104.0480 C   0  0  0  0  0  0  0  0  0  0  0  0
   46.1930  -25.0660 -105.1771 C   0  0  0  0  0  0  0  0  0  0  0  0
   47.2235  -24.2415 -105.5809 N   0  0  0  0  0  0  0  0  0  0  0  0
   47.3228  -26.1811 -103.1804 N   0  0  0  0  0  0  0  0  0  0  0  0
   46.9176  -27.0791 -102.3326 C   0  0  0  0  0  0  0  0  0  0  0  0
   45.6217  -27.4654 -102.5835 N   0  0  0  0  0  0  0  0  0  0  0  0
  2  1  1  6  0  0  0
  2  3  1  0  0  0  0
  2  5  1  0  0  0  0
  3  4  1  0  0  0  0
  3 17  1  0  0  0  0
  5  6  1  0  0  0  0
  7  6  1  6  0  0  0
  7  8  1  0  0  0  0
  7  9  1  0  0  0  0
 10  9  1  6  0  0  0
 10 11  1  0  0  0  0
 10 12  1  0  0  0  0
 11 16  1  0  0  0  0
 12 13  1  1  0  0  0
 12 14  1  0  0  0  0
 14 15  1  1  0  0  0
 14 16  1  0  0  0  0
 16 27  1  6  0  0  0
 18 19  2  0  0  0  0
 18 23  1  0  0  0  0
 19 20  1  0  0  0  0
 20 21  2  0  0  0  0
 21 22  1  0  0  0  0
 21 27  1  0  0  0  0
 22 23  2  0  0  0  0
 22 25  1  0  0  0  0
 23 24  1  0  0  0  0
 25 26  2  0  0  0  0
 26 27  1  0  0  0  0
M  END
>  <CHROM.1>
129.67407817,-169.28681508,-112.71566857,-160.26654018,-167.56848049,-23.64947961
164.31321417,46.60687682,-29.30856237,-103.19156699,-1.15071007,0.43496171
-0.34711330

>  <Name>
ligand

>  <RI>
0

>  <Rbt.Current_Directory>
/home/itssahil/PROJECTS/Mol_Feturizer/Test_systems_manuscript/rnas/4l81

>  <Rbt.Executable>
rbdock ($Id: //depot/dev/client3/rdock/2013.1/src/exe/rbdock.cxx#4 $)

>  <Rbt.Library>
libRbt.so (2013.1, Build901 2013/11/27)

>  <Rbt.Parameter_File>
/export/apps/rDock/src/rDock_2013.1_src/data/scripts/dock_solv.prm

>  <Rbt.Receptor>
prm/pocket_docking_4.prm

>  <SCORE>
-14.1146

>  <SCORE.INTER>
-15.6466

>  <SCORE.INTER.CONST>
1

>  <SCORE.INTER.POLAR>
0

>  <SCORE.INTER.ROT>
7

>  <SCORE.INTER.SOLV>
9.66931

>  <SCORE.INTER.VDW>
-21.9209

>  <SCORE.INTER.norm>
-0.579505

>  <SCORE.INTRA>
1.52161

>  <SCORE.INTRA.DIHEDRAL>
7.13622

>  <SCORE.INTRA.DIHEDRAL.0>
8.34559

>  <SCORE.INTRA.POLAR>
0

>  <SCORE.INTRA.POLAR.0>
0

>  <SCORE.INTRA.REPUL>
0

>  <SCORE.INTRA.REPUL.0>
0

>  <SCORE.INTRA.SOLV>
-0.843695

>  <SCORE.INTRA.SOLV.lig_0>
-48.829

>  <SCORE.INTRA.VDW>
-1.62465

>  <SCORE.INTRA.VDW.0>
-1.77092

>  <SCORE.INTRA.norm>
0.0563559

>  <SCORE.RESTR>
0.010458

>  <SCORE.RESTR.CAVITY>
0.010458

>  <SCORE.RESTR.norm>
0.000387335

>  <SCORE.SYSTEM>
0

>  <SCORE.SYSTEM.CONST>
0

>  <SCORE.SYSTEM.DIHEDRAL>
0

>  <SCORE.SYSTEM.SOLV>
0

>  <SCORE.SYSTEM.norm>
0

>  <SCORE.heavy>
27

>  <SCORE.norm>
-0.522761

>  <RMSD>
5.888

$$$$
ligand
 OpenBabel02271912153D
libRbt.so/2013.1/901 2013/11/27
 27 29  0  0  0  0  0  0  0  0999 V2000
   49.5127  -33.0296 -104.7278 N   0  0  0  0  0  0  0  0  0  0  0  0
   48.1140  -32.6037 -104.6062 C   0  0  2  0  0  0  0  0  0  0  0  0
   47.4938  -32.5064 -105.9842 C   0  0  0  0  0  0  0  0  0  0  0  0
   47.3925  -31.4216 -106.5372 O   0  0  0  0  0  0  0  0  0  0  0  0
   48.0036  -31.2378 -103.9151 C   0  0  0  0  0  0  0  0  0  0  0  0
   48.2908  -31.3602 -102.4253 C   0  0  0  0  0  0  0  0  0  0  0  0
   48.1271  -29.7726 -101.5220 S   0  0  2  0  0  0  0  0  0  0  0  0
   49.5592  -29.7584 -100.3958 C   0  0  0  0  0  0  0  0  0  0  0  0
   46.8743  -30.3477 -100.3781 C   0  0  0  0  0  0  0  0  0  0  0  0
   45.4701  -29.9913 -100.7879 C   0  0  1  0  0  0  0  0  0  0  0  0
   45.3917  -28.5597 -100.8952 O   0  0  0  0  0  0  0  0  0  0  0  0
   45.3892  -30.5201 -102.1632 C   0  0  1  0  0  0  0  0  0  0  0  0
   44.7588  -31.7998 -102.1481 O   0  0  0  0  0  0  0  0  0  0  0  0
   44.5030  -29.5216 -102.8414 C   0  0  1  0  0  0  0  0  0  0  0  0
   43.1168  -29.8816 -102.6681 O   0  0  0  0  0  0  0  0  0  0  0  0
   44.7849  -28.1549 -102.1482 C   0  0  2  0  0  0  0  0  0  0  0  0
   47.1219  -33.5107 -106.5654 O   0  0  0  0  0  0  0  0  0  0  0  0
   45.9907  -24.6491 -105.9500 N   0  0  0  0  0  0  0  0  0  0  0  0
   44.8173  -25.3039 -105.7700 C   0  0  0  0  0  0  0  0  0  0  0  0
   44.6252  -26.1438 -104.7315 N   0  0  0  0  0  0  0  0  0  0  0  0
   45.6290  -26.4278 -103.8857 C   0  0  0  0  0  0  0  0  0  0  0  0
   46.9084  -25.7846 -104.0643 C   0  0  0  0  0  0  0  0  0  0  0  0
   47.0513  -24.8614 -105.1425 C   0  0  0  0  0  0  0  0  0  0  0  0
   48.2441  -24.2038 -105.3649 N   0  0  0  0  0  0  0  0  0  0  0  0
   47.7214  -26.2410 -103.1043 N   0  0  0  0  0  0  0  0  0  0  0  0
   47.0717  -27.0965 -102.3724 C   0  0  0  0  0  0  0  0  0  0  0  0
   45.7736  -27.2479 -102.8010 N   0  0  0  0  0  0  0  0  0  0  0  0
  2  1  1  6  0  0  0
  2  3  1  0  0  0  0
  2  5  1  0  0  0  0
  3  4  1  0  0  0  0
  3 17  1  0  0  0  0
  5  6  1  0  0  0  0
  7  6  1  6  0  0  0
  7  8  1  0  0  0  0
  7  9  1  0  0  0  0
 10  9  1  6  0  0  0
 10 11  1  0  0  0  0
 10 12  1  0  0  0  0
 11 16  1  0  0  0  0
 12 13  1  1  0  0  0
 12 14  1  0  0  0  0
 14 15  1  1  0  0  0
 14 16  1  0  0  0  0
 16 27  1  6  0  0  0
 18 19  2  0  0  0  0
 18 23  1  0  0  0  0
 19 20  1  0  0  0  0
 20 21  2  0  0  0  0
 21 22  1  0  0  0  0
 21 27  1  0  0  0  0
 22 23  2  0  0  0  0
 22 25  1  0  0  0  0
 23 24  1  0  0  0  0
 25 26  2  0  0  0  0
 26 27  1  0  0  0  0
M  END
>  <CHROM.1>
-99.28387243,-73.20109776,-178.23935364,-137.51210259,-97.20832725,-58.68896814
-168.49305634,46.65053864,-29.09864231,-103.36593899,-0.92878554,1.22318416
-0.71963010

>  <Name>
ligand

>  <RI>
0

>  <Rbt.Current_Directory>
/home/itssahil/PROJECTS/Mol_Feturizer/Test_systems_manuscript/rnas/4l81

>  <Rbt.Executable>
rbdock ($Id: //depot/dev/client3/rdock/2013.1/src/exe/rbdock.cxx#4 $)

>  <Rbt.Library>
libRbt.so (2013.1, Build901 2013/11/27)

>  <Rbt.Parameter_File>
/export/apps/rDock/src/rDock_2013.1_src/data/scripts/dock_solv.prm

>  <Rbt.Receptor>
prm/pocket_docking_4.prm

>  <SCORE>
-11.0507

>  <SCORE.INTER>
-12.5091

>  <SCORE.INTER.CONST>
1

>  <SCORE.INTER.POLAR>
0

>  <SCORE.INTER.ROT>
7

>  <SCORE.INTER.SOLV>
7.78653

>  <SCORE.INTER.VDW>
-19.2016

>  <SCORE.INTER.norm>
-0.4633

>  <SCORE.INTRA>
1.4584

>  <SCORE.INTRA.DIHEDRAL>
1.78221

>  <SCORE.INTRA.DIHEDRAL.0>
8.34559

>  <SCORE.INTRA.POLAR>
0

>  <SCORE.INTRA.POLAR.0>
0

>  <SCORE.INTRA.REPUL>
0

>  <SCORE.INTRA.REPUL.0>
0

>  <SCORE.INTRA.SOLV>
-0.0836596

>  <SCORE.INTRA.SOLV.lig_0>
-48.829

>  <SCORE.INTRA.VDW>
0.609123

>  <SCORE.INTRA.VDW.0>
-1.77092

>  <SCORE.INTRA.norm>
0.0540148

>  <SCORE.RESTR>
0

>  <SCORE.RESTR.CAVITY>
0

>  <SCORE.RESTR.norm>
0

>  <SCORE.SYSTEM>
0

>  <SCORE.SYSTEM.CONST>
0

>  <SCORE.SYSTEM.DIHEDRAL>
0

>  <SCORE.SYSTEM.SOLV>
0

>  <SCORE.SYSTEM.norm>
0

>  <SCORE.heavy>
27

>  <SCORE.norm>
-0.409285

>  <RMSD>
5.934

$$$$
ligand
 OpenBabel02271912153D
libRbt.so/2013.1/901 2013/11/27
 27 29  0  0  0  0  0  0  0  0999 V2000
   47.2131  -33.1005 -105.3397 N   0  0  0  0  0  0  0  0  0  0  0  0
   46.3672  -32.1889 -104.5612 C   0  0  2  0  0  0  0  0  0  0  0  0
   46.3551  -30.8252 -105.2190 C   0  0  0  0  0  0  0  0  0  0  0  0
   47.4059  -30.2732 -105.5086 O   0  0  0  0  0  0  0  0  0  0  0  0
   46.8812  -32.0410 -103.1226 C   0  0  0  0  0  0  0  0  0  0  0  0
   45.9717  -31.1266 -102.3142 C   0  0  0  0  0  0  0  0  0  0  0  0
   46.7307  -30.5486 -100.7480 S   0  0  2  0  0  0  0  0  0  0  0  0
   45.4684  -29.4498 -100.0276 C   0  0  0  0  0  0  0  0  0  0  0  0
   47.7817  -29.3118 -101.5060 C   0  0  0  0  0  0  0  0  0  0  0  0
   48.9019  -29.8905 -102.3288 C   0  0  1  0  0  0  0  0  0  0  0  0
   49.0551  -29.0738 -103.5020 O   0  0  0  0  0  0  0  0  0  0  0  0
   50.0868  -29.6399 -101.4857 C   0  0  1  0  0  0  0  0  0  0  0  0
   50.4031  -30.8157 -100.7421 O   0  0  0  0  0  0  0  0  0  0  0  0
   51.1551  -29.3743 -102.5008 C   0  0  1  0  0  0  0  0  0  0  0  0
   51.7685  -30.6113 -102.9192 O   0  0  0  0  0  0  0  0  0  0  0  0
   50.4408  -28.7024 -103.7117 C   0  0  2  0  0  0  0  0  0  0  0  0
   45.2992  -30.2828 -105.4946 O   0  0  0  0  0  0  0  0  0  0  0  0
   49.7852  -24.2116 -106.4687 N   0  0  0  0  0  0  0  0  0  0  0  0
   49.6780  -25.4845 -106.9227 C   0  0  0  0  0  0  0  0  0  0  0  0
   49.8288  -26.5456 -106.1027 N   0  0  0  0  0  0  0  0  0  0  0  0
   50.1802  -26.3738 -104.8180 C   0  0  0  0  0  0  0  0  0  0  0  0
   50.3455  -25.0362 -104.3022 C   0  0  0  0  0  0  0  0  0  0  0  0
   50.1223  -23.9418 -105.1898 C   0  0  0  0  0  0  0  0  0  0  0  0
   50.2534  -22.6369 -104.7600 N   0  0  0  0  0  0  0  0  0  0  0  0
   50.6969  -25.1458 -103.0156 N   0  0  0  0  0  0  0  0  0  0  0  0
   50.7696  -26.4055 -102.7037 C   0  0  0  0  0  0  0  0  0  0  0  0
   50.4543  -27.2116 -103.7726 N   0  0  0  0  0  0  0  0  0  0  0  0
  2  1  1  6  0  0  0
  2  3  1  0  0  0  0
  2  5  1  0  0  0  0
  3  4  1  0  0  0  0
  3 17  1  0  0  0  0
  5  6  1  0  0  0  0
  7  6  1  6  0  0  0
  7  8  1  0  0  0  0
  7  9  1  0  0  0  0
 10  9  1  1  0  0  0
 10 11  1  0  0  0  0
 10 12  1  0  0  0  0
 11 16  1  0  0  0  0
 12 13  1  6  0  0  0
 12 14  1  0  0  0  0
 14 15  1  6  0  0  0
 14 16  1  0  0  0  0
 16 27  1  1  0  0  0
 18 19  2  0  0  0  0
 18 23  1  0  0  0  0
 19 20  1  0  0  0  0
 20 21  2  0  0  0  0
 21 22  1  0  0  0  0
 21 27  1  0  0  0  0
 22 23  2  0  0  0  0
 22 25  1  0  0  0  0
 23 24  1  0  0  0  0
 25 26  2  0  0  0  0
 26 27  1  0  0  0  0
M  END
>  <CHROM.1>
-51.36112301,-178.28834646,-164.90980081,178.20061926,-69.45005660,140.94387314
-82.40353737,48.72821156,-28.71583226,-103.49710296,2.29814758,0.81720494
2.21706873

>  <Name>
ligand

>  <RI>
0

>  <Rbt.Current_Directory>
/home/itssahil/PROJECTS/Mol_Feturizer/Test_systems_manuscript/rnas/4l81

>  <Rbt.Executable>
rbdock ($Id: //depot/dev/client3/rdock/2013.1/src/exe/rbdock.cxx#4 $)

>  <Rbt.Library>
libRbt.so (2013.1, Build901 2013/11/27)

>  <Rbt.Parameter_File>
/export/apps/rDock/src/rDock_2013.1_src/data/scripts/dock_solv.prm

>  <Rbt.Receptor>
prm/pocket_docking_7.prm

>  <SCORE>
-15.9399

>  <SCORE.INTER>
-14.2146

>  <SCORE.INTER.CONST>
1

>  <SCORE.INTER.POLAR>
0

>  <SCORE.INTER.ROT>
7

>  <SCORE.INTER.SOLV>
11.0577

>  <SCORE.INTER.VDW>
-21.429

>  <SCORE.INTER.norm>
-0.526468

>  <SCORE.INTRA>
-1.72531

>  <SCORE.INTRA.DIHEDRAL>
-0.450263

>  <SCORE.INTRA.DIHEDRAL.0>
8.34559

>  <SCORE.INTRA.POLAR>
0

>  <SCORE.INTRA.POLAR.0>
0

>  <SCORE.INTRA.REPUL>
0

>  <SCORE.INTRA.REPUL.0>
0

>  <SCORE.INTRA.SOLV>
-1.00902

>  <SCORE.INTRA.SOLV.lig_0>
-48.829

>  <SCORE.INTRA.VDW>
-0.995668

>  <SCORE.INTRA.VDW.0>
-1.77092

>  <SCORE.INTRA.norm>
-0.0639003

>  <SCORE.RESTR>
0

>  <SCORE.RESTR.CAVITY>
0

>  <SCORE.RESTR.norm>
0

>  <SCORE.SYSTEM>
0

>  <SCORE.SYSTEM.CONST>
0

>  <SCORE.SYSTEM.DIHEDRAL>
0

>  <SCORE.SYSTEM.SOLV>
0

>  <SCORE.SYSTEM.norm>
0

>  <SCORE.heavy>
27

>  <SCORE.norm>
-0.590368

>  <RMSD>
5.959

$$$$
ligand
 OpenBabel02271912153D
libRbt.so/2013.1/901 2013/11/27
 27 29  0  0  0  0  0  0  0  0999 V2000
   47.7135  -26.7677 -102.2659 N   0  0  0  0  0  0  0  0  0  0  0  0
   48.6246  -25.6408 -102.4952 C   0  0  2  0  0  0  0  0  0  0  0  0
   47.8319  -24.4359 -102.9565 C   0  0  0  0  0  0  0  0  0  0  0  0
   46.7304  -24.5828 -103.4643 O   0  0  0  0  0  0  0  0  0  0  0  0
   49.6762  -25.9800 -103.5603 C   0  0  0  0  0  0  0  0  0  0  0  0
   50.5737  -27.1168 -103.0922 C   0  0  0  0  0  0  0  0  0  0  0  0
   49.6786  -28.7012 -102.8647 S   0  0  2  0  0  0  0  0  0  0  0  0
   51.0057  -29.9210 -102.5993 C   0  0  0  0  0  0  0  0  0  0  0  0
   49.3777  -28.9866 -104.6074 C   0  0  0  0  0  0  0  0  0  0  0  0
   48.0148  -29.5548 -104.9017 C   0  0  1  0  0  0  0  0  0  0  0  0
   47.0358  -28.5740 -104.5189 O   0  0  0  0  0  0  0  0  0  0  0  0
   47.9980  -29.6108 -106.3762 C   0  0  1  0  0  0  0  0  0  0  0  0
   48.3307  -30.9288 -106.8095 O   0  0  0  0  0  0  0  0  0  0  0  0
   46.5651  -29.3146 -106.6944 C   0  0  1  0  0  0  0  0  0  0  0  0
   45.7870  -30.5294 -106.6829 O   0  0  0  0  0  0  0  0  0  0  0  0
   46.0645  -28.3555 -105.5729 C   0  0  2  0  0  0  0  0  0  0  0  0
   48.2705  -23.3105 -102.7953 O   0  0  0  0  0  0  0  0  0  0  0  0
   48.7621  -24.0332 -107.0691 N   0  0  0  0  0  0  0  0  0  0  0  0
   49.2387  -25.2924 -106.9101 C   0  0  0  0  0  0  0  0  0  0  0  0
   48.4330  -26.3179 -106.5636 N   0  0  0  0  0  0  0  0  0  0  0  0
   47.1384  -26.1049 -106.2768 C   0  0  0  0  0  0  0  0  0  0  0  0
   46.5977  -24.7720 -106.3930 C   0  0  0  0  0  0  0  0  0  0  0  0
   47.4721  -23.7270 -106.8159 C   0  0  0  0  0  0  0  0  0  0  0  0
   47.0186  -22.4313 -106.9575 N   0  0  0  0  0  0  0  0  0  0  0  0
   45.3058  -24.8346 -106.0496 N   0  0  0  0  0  0  0  0  0  0  0  0
   45.0128  -26.0601 -105.7306 C   0  0  0  0  0  0  0  0  0  0  0  0
   46.1010  -26.8915 -105.8584 N   0  0  0  0  0  0  0  0  0  0  0  0
  2  1  1  6  0  0  0
  2  3  1  0  0  0  0
  2  5  1  0  0  0  0
  3  4  1  0  0  0  0
  3 17  1  0  0  0  0
  5  6  1  0  0  0  0
  7  6  1  6  0  0  0
  7  8  1  0  0  0  0
  7  9  1  0  0  0  0
 10  9  1  6  0  0  0
 10 11  1  0  0  0  0
 10 12  1  0  0  0  0
 11 16  1  0  0  0  0
 12 13  1  1  0  0  0
 12 14  1  0  0  0  0
 14 15  1  1  0  0  0
 14 16  1  0  0  0  0
 16 27  1  6  0  0  0
 18 19  2  0  0  0  0
 18 23  1  0  0  0  0
 19 20  1  0  0  0  0
 20 21  2  0  0  0  0
 21 22  1  0  0  0  0
 21 27  1  0  0  0  0
 22 23  2  0  0  0  0
 22 25  1  0  0  0  0
 23 24  1  0  0  0  0
 25 26  2  0  0  0  0
 26 27  1  0  0  0  0
M  END
>  <CHROM.1>
-22.07338449,-63.74300091,64.45099430,170.42781250,-140.57683539,64.37608702
59.69517999,47.89478724,-26.91846702,-104.92993153,-1.18371273,-0.90085714
0.16275474

>  <Name>
ligand

>  <RI>
0

>  <Rbt.Current_Directory>
/home/itssahil/PROJECTS/Mol_Feturizer/Test_systems_manuscript/rnas/4l81

>  <Rbt.Executable>
rbdock ($Id: //depot/dev/client3/rdock/2013.1/src/exe/rbdock.cxx#4 $)

>  <Rbt.Library>
libRbt.so (2013.1, Build901 2013/11/27)

>  <Rbt.Parameter_File>
/export/apps/rDock/src/rDock_2013.1_src/data/scripts/dock_solv.prm

>  <Rbt.Receptor>
prm/pocket_docking_5.prm

>  <SCORE>
-8.6869

>  <SCORE.INTER>
-5.61541

>  <SCORE.INTER.CONST>
1

>  <SCORE.INTER.POLAR>
0

>  <SCORE.INTER.ROT>
7

>  <SCORE.INTER.SOLV>
7.20538

>  <SCORE.INTER.VDW>
-14.4121

>  <SCORE.INTER.norm>
-0.207978

>  <SCORE.INTRA>
-3.07781

>  <SCORE.INTRA.DIHEDRAL>
-0.873992

>  <SCORE.INTRA.DIHEDRAL.0>
8.34559

>  <SCORE.INTRA.POLAR>
0

>  <SCORE.INTRA.POLAR.0>
0

>  <SCORE.INTRA.REPUL>
0

>  <SCORE.INTRA.REPUL.0>
0

>  <SCORE.INTRA.SOLV>
3.33101

>  <SCORE.INTRA.SOLV.lig_0>
-48.829

>  <SCORE.INTRA.VDW>
-4.30632

>  <SCORE.INTRA.VDW.0>
-1.77092

>  <SCORE.INTRA.norm>
-0.113993

>  <SCORE.RESTR>
0.00632911

>  <SCORE.RESTR.CAVITY>
0.00632911

>  <SCORE.RESTR.norm>
0.000234411

>  <SCORE.SYSTEM>
0

>  <SCORE.SYSTEM.CONST>
0

>  <SCORE.SYSTEM.DIHEDRAL>
0

>  <SCORE.SYSTEM.SOLV>
0

>  <SCORE.SYSTEM.norm>
0

>  <SCORE.heavy>
27

>  <SCORE.norm>
-0.321737

>  <RMSD>
5.969

$$$$
ligand
 OpenBabel02271912153D
libRbt.so/2013.1/901 2013/11/27
 27 29  0  0  0  0  0  0  0  0999 V2000
   46.8935  -30.9178 -100.9148 N   0  0  0  0  0  0  0  0  0  0  0  0
   46.1704  -29.6415 -100.9458 C   0  0  2  0  0  0  0  0  0  0  0  0
   44.6906  -29.8943 -100.7481 C   0  0  0  0  0  0  0  0  0  0  0  0
   44.2135  -30.9879 -101.0111 O   0  0  0  0  0  0  0  0  0  0  0  0
   46.3753  -28.9153 -102.2822 C   0  0  0  0  0  0  0  0  0  0  0  0
   45.7132  -29.6790 -103.4203 C   0  0  0  0  0  0  0  0  0  0  0  0
   46.7177  -29.7097 -104.9544 S   0  0  2  0  0  0  0  0  0  0  0  0
   45.5560  -30.2991 -106.2282 C   0  0  0  0  0  0  0  0  0  0  0  0
   47.5473  -31.2555 -104.5923 C   0  0  0  0  0  0  0  0  0  0  0  0
   48.4872  -31.7075 -105.6782 C   0  0  1  0  0  0  0  0  0  0  0  0
   49.8307  -31.5648 -105.1865 O   0  0  0  0  0  0  0  0  0  0  0  0
   48.2207  -33.1569 -105.7556 C   0  0  1  0  0  0  0  0  0  0  0  0
   47.3111  -33.4204 -106.8227 O   0  0  0  0  0  0  0  0  0  0  0  0
   49.5702  -33.7163 -106.0843 C   0  0  1  0  0  0  0  0  0  0  0  0
   49.7768  -33.7223 -107.5121 O   0  0  0  0  0  0  0  0  0  0  0  0
   50.6054  -32.7708 -105.4043 C   0  0  2  0  0  0  0  0  0  0  0  0
   43.9710  -29.0215 -100.2948 O   0  0  0  0  0  0  0  0  0  0  0  0
   51.3294  -31.6866 -100.2567 N   0  0  0  0  0  0  0  0  0  0  0  0
   50.7706  -30.8890 -101.1998 C   0  0  0  0  0  0  0  0  0  0  0  0
   50.6063  -31.3035 -102.4734 N   0  0  0  0  0  0  0  0  0  0  0  0
   51.0758  -32.4973 -102.8709 C   0  0  0  0  0  0  0  0  0  0  0  0
   51.7149  -33.3625 -101.9090 C   0  0  0  0  0  0  0  0  0  0  0  0
   51.8181  -32.9075 -100.5608 C   0  0  0  0  0  0  0  0  0  0  0  0
   52.4086  -33.6882  -99.5879 N   0  0  0  0  0  0  0  0  0  0  0  0
   52.0897  -34.4715 -102.5575 N   0  0  0  0  0  0  0  0  0  0  0  0
   51.7529  -34.3632 -103.8082 C   0  0  0  0  0  0  0  0  0  0  0  0
   51.1171  -33.1700 -104.0608 N   0  0  0  0  0  0  0  0  0  0  0  0
  2  1  1  6  0  0  0
  2  3  1  0  0  0  0
  2  5  1  0  0  0  0
  3  4  1  0  0  0  0
  3 17  1  0  0  0  0
  5  6  1  0  0  0  0
  7  6  1  1  0  0  0
  7  8  1  0  0  0  0
  7  9  1  0  0  0  0
 10  9  1  1  0  0  0
 10 11  1  0  0  0  0
 10 12  1  0  0  0  0
 11 16  1  0  0  0  0
 12 13  1  6  0  0  0
 12 14  1  0  0  0  0
 14 15  1  6  0  0  0
 14 16  1  0  0  0  0
 16 27  1  1  0  0  0
 18 19  2  0  0  0  0
 18 23  1  0  0  0  0
 19 20  1  0  0  0  0
 20 21  2  0  0  0  0
 21 22  1  0  0  0  0
 21 27  1  0  0  0  0
 22 23  2  0  0  0  0
 22 25  1  0  0  0  0
 23 24  1  0  0  0  0
 25 26  2  0  0  0  0
 26 27  1  0  0  0  0
M  END
>  <CHROM.1>
-23.10249122,67.30513476,-139.51911220,-166.59569273,177.98113923,109.63230101
-8.92015480,48.56023778,-31.68098090,-103.36116139,-2.90036043,0.49739971
-1.79367387

>  <Name>
ligand

>  <RI>
0

>  <Rbt.Current_Directory>
/home/itssahil/PROJECTS/Mol_Feturizer/Test_systems_manuscript/rnas/4l81

>  <Rbt.Executable>
rbdock ($Id: //depot/dev/client3/rdock/2013.1/src/exe/rbdock.cxx#4 $)

>  <Rbt.Library>
libRbt.so (2013.1, Build901 2013/11/27)

>  <Rbt.Parameter_File>
/export/apps/rDock/src/rDock_2013.1_src/data/scripts/dock_solv.prm

>  <Rbt.Receptor>
prm/pocket_docking_7.prm

>  <SCORE>
-7.71204

>  <SCORE.INTER>
-10.0422

>  <SCORE.INTER.CONST>
1

>  <SCORE.INTER.POLAR>
0

>  <SCORE.INTER.ROT>
7

>  <SCORE.INTER.SOLV>
18.1954

>  <SCORE.INTER.VDW>
-21.0266

>  <SCORE.INTER.norm>
-0.371934

>  <SCORE.INTRA>
2.33019

>  <SCORE.INTRA.DIHEDRAL>
5.48397

>  <SCORE.INTRA.DIHEDRAL.0>
8.34559

>  <SCORE.INTRA.POLAR>
0

>  <SCORE.INTRA.POLAR.0>
0

>  <SCORE.INTRA.REPUL>
0

>  <SCORE.INTRA.REPUL.0>
0

>  <SCORE.INTRA.SOLV>
0.466288

>  <SCORE.INTRA.SOLV.lig_0>
-48.829

>  <SCORE.INTRA.VDW>
-0.644939

>  <SCORE.INTRA.VDW.0>
-1.77092

>  <SCORE.INTRA.norm>
0.0863033

>  <SCORE.RESTR>
0

>  <SCORE.RESTR.CAVITY>
0

>  <SCORE.RESTR.norm>
0

>  <SCORE.SYSTEM>
0

>  <SCORE.SYSTEM.CONST>
0

>  <SCORE.SYSTEM.DIHEDRAL>
0

>  <SCORE.SYSTEM.SOLV>
0

>  <SCORE.SYSTEM.norm>
0

>  <SCORE.heavy>
27

>  <SCORE.norm>
-0.285631

>  <RMSD>
5.972

$$$$
ligand
 OpenBabel02271912153D
libRbt.so/2013.1/901 2013/11/27
 27 29  0  0  0  0  0  0  0  0999 V2000
   46.3203  -26.5725 -103.5544 N   0  0  0  0  0  0  0  0  0  0  0  0
   45.7099  -27.8864 -103.7866 C   0  0  2  0  0  0  0  0  0  0  0  0
   44.3314  -27.7043 -104.3859 C   0  0  0  0  0  0  0  0  0  0  0  0
   43.7795  -28.6358 -104.9520 O   0  0  0  0  0  0  0  0  0  0  0  0
   45.5817  -28.6818 -102.4803 C   0  0  0  0  0  0  0  0  0  0  0  0
   46.9537  -29.0529 -101.9356 C   0  0  0  0  0  0  0  0  0  0  0  0
   46.9155  -30.4794 -100.7836 S   0  0  2  0  0  0  0  0  0  0  0  0
   46.5606  -29.7258  -99.1632 C   0  0  0  0  0  0  0  0  0  0  0  0
   48.6938  -30.6373 -100.6378 C   0  0  0  0  0  0  0  0  0  0  0  0
   49.4062  -30.7103 -101.9622 C   0  0  1  0  0  0  0  0  0  0  0  0
   50.7972  -30.9638 -101.7016 O   0  0  0  0  0  0  0  0  0  0  0  0
   48.8593  -31.9449 -102.5574 C   0  0  1  0  0  0  0  0  0  0  0  0
   47.8060  -31.6151 -103.4614 O   0  0  0  0  0  0  0  0  0  0  0  0
   50.0324  -32.4856 -103.3147 C   0  0  1  0  0  0  0  0  0  0  0  0
   50.0783  -31.9187 -104.6406 O   0  0  0  0  0  0  0  0  0  0  0  0
   51.2975  -32.0567 -102.5123 C   0  0  2  0  0  0  0  0  0  0  0  0
   43.7484  -26.6395 -104.2798 O   0  0  0  0  0  0  0  0  0  0  0  0
   53.0607  -36.9550 -101.4652 N   0  0  0  0  0  0  0  0  0  0  0  0
   52.5497  -36.4912 -102.6322 C   0  0  0  0  0  0  0  0  0  0  0  0
   52.1739  -35.2036 -102.7806 N   0  0  0  0  0  0  0  0  0  0  0  0
   52.2123  -34.3549 -101.7405 C   0  0  0  0  0  0  0  0  0  0  0  0
   52.7108  -34.8172 -100.4676 C   0  0  0  0  0  0  0  0  0  0  0  0
   53.1495  -36.1712 -100.3699 C   0  0  0  0  0  0  0  0  0  0  0  0
   53.6465  -36.6760  -99.1854 N   0  0  0  0  0  0  0  0  0  0  0  0
   52.6376  -33.7894  -99.6138 N   0  0  0  0  0  0  0  0  0  0  0  0
   52.1404  -32.7606 -100.2333 C   0  0  0  0  0  0  0  0  0  0  0  0
   51.8651  -33.0460 -101.5503 N   0  0  0  0  0  0  0  0  0  0  0  0
  2  1  1  1  0  0  0
  2  3  1  0  0  0  0
  2  5  1  0  0  0  0
  3  4  1  0  0  0  0
  3 17  1  0  0  0  0
  5  6  1  0  0  0  0
  7  6  1  6  0  0  0
  7  8  1  0  0  0  0
  7  9  1  0  0  0  0
 10  9  1  1  0  0  0
 10 11  1  0  0  0  0
 10 12  1  0  0  0  0
 11 16  1  0  0  0  0
 12 13  1  6  0  0  0
 12 14  1  0  0  0  0
 14 15  1  6  0  0  0
 14 16  1  0  0  0  0
 16 27  1  1  0  0  0
 18 19  2  0  0  0  0
 18 23  1  0  0  0  0
 19 20  1  0  0  0  0
 20 21  2  0  0  0  0
 21 22  1  0  0  0  0
 21 27  1  0  0  0  0
 22 23  2  0  0  0  0
 22 25  1  0  0  0  0
 23 24  1  0  0  0  0
 25 26  2  0  0  0  0
 26 27  1  0  0  0  0
M  END
>  <CHROM.1>
162.27747117,-66.81163195,-158.52794426,-86.55508862,-51.70267845,-174.52951122
165.01438132,49.14373939,-31.61472550,-102.06007867,-3.02743899,-0.77632391
1.42210181

>  <Name>
ligand

>  <RI>
0

>  <Rbt.Current_Directory>
/home/itssahil/PROJECTS/Mol_Feturizer/Test_systems_manuscript/rnas/4l81

>  <Rbt.Executable>
rbdock ($Id: //depot/dev/client3/rdock/2013.1/src/exe/rbdock.cxx#4 $)

>  <Rbt.Library>
libRbt.so (2013.1, Build901 2013/11/27)

>  <Rbt.Parameter_File>
/export/apps/rDock/src/rDock_2013.1_src/data/scripts/dock_solv.prm

>  <Rbt.Receptor>
prm/pocket_docking_8.prm

>  <SCORE>
-19.0458

>  <SCORE.INTER>
-18.6474

>  <SCORE.INTER.CONST>
1

>  <SCORE.INTER.POLAR>
0

>  <SCORE.INTER.ROT>
7

>  <SCORE.INTER.SOLV>
8.12859

>  <SCORE.INTER.VDW>
-23.4078

>  <SCORE.INTER.norm>
-0.690644

>  <SCORE.INTRA>
-0.398406

>  <SCORE.INTRA.DIHEDRAL>
-1.7797

>  <SCORE.INTRA.DIHEDRAL.0>
8.34559

>  <SCORE.INTRA.POLAR>
0

>  <SCORE.INTRA.POLAR.0>
0

>  <SCORE.INTRA.REPUL>
0

>  <SCORE.INTRA.REPUL.0>
0

>  <SCORE.INTRA.SOLV>
-0.175548

>  <SCORE.INTRA.SOLV.lig_0>
-48.829

>  <SCORE.INTRA.VDW>
0.57922

>  <SCORE.INTRA.VDW.0>
-1.77092

>  <SCORE.INTRA.norm>
-0.0147558

>  <SCORE.RESTR>
0

>  <SCORE.RESTR.CAVITY>
0

>  <SCORE.RESTR.norm>
0

>  <SCORE.SYSTEM>
0

>  <SCORE.SYSTEM.CONST>
0

>  <SCORE.SYSTEM.DIHEDRAL>
0

>  <SCORE.SYSTEM.SOLV>
0

>  <SCORE.SYSTEM.norm>
0

>  <SCORE.heavy>
27

>  <SCORE.norm>
-0.7054

>  <RMSD>
5.980

$$$$
ligand
 OpenBabel02271912153D
libRbt.so/2013.1/901 2013/11/27
 27 29  0  0  0  0  0  0  0  0999 V2000
   48.1026  -25.4637 -102.9539 N   0  0  0  0  0  0  0  0  0  0  0  0
   48.7592  -26.7367 -103.2716 C   0  0  2  0  0  0  0  0  0  0  0  0
   49.1607  -26.7476 -104.7315 C   0  0  0  0  0  0  0  0  0  0  0  0
   48.6828  -25.9327 -105.5063 O   0  0  0  0  0  0  0  0  0  0  0  0
   47.8287  -27.9275 -103.0042 C   0  0  0  0  0  0  0  0  0  0  0  0
   47.5882  -28.1021 -101.5114 C   0  0  0  0  0  0  0  0  0  0  0  0
   46.5821  -29.5810 -101.1065 S   0  0  2  0  0  0  0  0  0  0  0  0
   46.7241  -29.7265  -99.2960 C   0  0  0  0  0  0  0  0  0  0  0  0
   47.8262  -30.7780 -101.5841 C   0  0  0  0  0  0  0  0  0  0  0  0
   47.8100  -31.1162 -103.0512 C   0  0  1  0  0  0  0  0  0  0  0  0
   49.1708  -31.3012 -103.4764 O   0  0  0  0  0  0  0  0  0  0  0  0
   47.1798  -32.4504 -103.0698 C   0  0  1  0  0  0  0  0  0  0  0  0
   45.7917  -32.3204 -103.3727 O   0  0  0  0  0  0  0  0  0  0  0  0
   47.8889  -33.1268 -104.2020 C   0  0  1  0  0  0  0  0  0  0  0  0
   47.2246  -32.8437 -105.4509 O   0  0  0  0  0  0  0  0  0  0  0  0
   49.3297  -32.5337 -104.2232 C   0  0  2  0  0  0  0  0  0  0  0  0
   49.9868  -27.5459 -105.1380 O   0  0  0  0  0  0  0  0  0  0  0  0
   52.4917  -33.1793 -100.0063 N   0  0  0  0  0  0  0  0  0  0  0  0
   51.6006  -32.1819 -100.2275 C   0  0  0  0  0  0  0  0  0  0  0  0
   50.8222  -32.1569 -101.3296 N   0  0  0  0  0  0  0  0  0  0  0  0
   50.9697  -33.0806 -102.2932 C   0  0  0  0  0  0  0  0  0  0  0  0
   51.9361  -34.1380 -102.1181 C   0  0  0  0  0  0  0  0  0  0  0  0
   52.6991  -34.1577 -100.9128 C   0  0  0  0  0  0  0  0  0  0  0  0
   53.6333  -35.1456 -100.6763 N   0  0  0  0  0  0  0  0  0  0  0  0
   51.8859  -34.9087 -103.2110 N   0  0  0  0  0  0  0  0  0  0  0  0
   50.9996  -34.4240 -104.0289 C   0  0  0  0  0  0  0  0  0  0  0  0
   50.3955  -33.3005 -103.5146 N   0  0  0  0  0  0  0  0  0  0  0  0
  2  1  1  6  0  0  0
  2  3  1  0  0  0  0
  2  5  1  0  0  0  0
  3  4  1  0  0  0  0
  3 17  1  0  0  0  0
  5  6  1  0  0  0  0
  7  6  1  1  0  0  0
  7  8  1  0  0  0  0
  7  9  1  0  0  0  0
 10  9  1  1  0  0  0
 10 11  1  0  0  0  0
 10 12  1  0  0  0  0
 11 16  1  0  0  0  0
 12 13  1  6  0  0  0
 12 14  1  0  0  0  0
 14 15  1  6  0  0  0
 14 16  1  0  0  0  0
 16 27  1  1  0  0  0
 18 19  2  0  0  0  0
 18 23  1  0  0  0  0
 19 20  1  0  0  0  0
 20 21  2  0  0  0  0
 21 22  1  0  0  0  0
 21 27  1  0  0  0  0
 22 23  2  0  0  0  0
 22 25  1  0  0  0  0
 23 24  1  0  0  0  0
 25 26  2  0  0  0  0
 26 27  1  0  0  0  0
M  END
>  <CHROM.1>
-15.73692099,-68.91738000,-175.82324048,169.39886229,-85.72590511,143.31772286
11.23251214,49.16404062,-30.99802249,-102.67738844,-2.11188408,0.29044681
3.11067282

>  <Name>
ligand

>  <RI>
0

>  <Rbt.Current_Directory>
/home/itssahil/PROJECTS/Mol_Feturizer/Test_systems_manuscript/rnas/4l81

>  <Rbt.Executable>
rbdock ($Id: //depot/dev/client3/rdock/2013.1/src/exe/rbdock.cxx#4 $)

>  <Rbt.Library>
libRbt.so (2013.1, Build901 2013/11/27)

>  <Rbt.Parameter_File>
/export/apps/rDock/src/rDock_2013.1_src/data/scripts/dock_solv.prm

>  <Rbt.Receptor>
prm/pocket_docking_6.prm

>  <SCORE>
-16.0625

>  <SCORE.INTER>
-14.5113

>  <SCORE.INTER.CONST>
1

>  <SCORE.INTER.POLAR>
0

>  <SCORE.INTER.ROT>
7

>  <SCORE.INTER.SOLV>
12.4003

>  <SCORE.INTER.VDW>
-22.0743

>  <SCORE.INTER.norm>
-0.537455

>  <SCORE.INTRA>
-1.55122

>  <SCORE.INTRA.DIHEDRAL>
-0.393657

>  <SCORE.INTRA.DIHEDRAL.0>
8.34559

>  <SCORE.INTRA.POLAR>
0

>  <SCORE.INTRA.POLAR.0>
0

>  <SCORE.INTRA.REPUL>
0

>  <SCORE.INTRA.REPUL.0>
0

>  <SCORE.INTRA.SOLV>
-0.487559

>  <SCORE.INTRA.SOLV.lig_0>
-48.829

>  <SCORE.INTRA.VDW>
-1.11061

>  <SCORE.INTRA.VDW.0>
-1.77092

>  <SCORE.INTRA.norm>
-0.0574525

>  <SCORE.RESTR>
0

>  <SCORE.RESTR.CAVITY>
0

>  <SCORE.RESTR.norm>
0

>  <SCORE.SYSTEM>
0

>  <SCORE.SYSTEM.CONST>
0

>  <SCORE.SYSTEM.DIHEDRAL>
0

>  <SCORE.SYSTEM.SOLV>
0

>  <SCORE.SYSTEM.norm>
0

>  <SCORE.heavy>
27

>  <SCORE.norm>
-0.594907

>  <RMSD>
5.981

$$$$
ligand
 OpenBabel02271912153D
libRbt.so/2013.1/901 2013/11/27
 27 29  0  0  0  0  0  0  0  0999 V2000
   49.4447  -28.5255 -101.4383 N   0  0  0  0  0  0  0  0  0  0  0  0
   48.1498  -29.0484 -100.9883 C   0  0  2  0  0  0  0  0  0  0  0  0
   48.3724  -30.2619 -100.1104 C   0  0  0  0  0  0  0  0  0  0  0  0
   47.5524  -30.5605  -99.2554 O   0  0  0  0  0  0  0  0  0  0  0  0
   47.2661  -29.4514 -102.1766 C   0  0  0  0  0  0  0  0  0  0  0  0
   45.8587  -29.7975 -101.7118 C   0  0  0  0  0  0  0  0  0  0  0  0
   44.7399  -30.2801 -103.0826 S   0  0  2  0  0  0  0  0  0  0  0  0
   43.1036  -30.4038 -102.2910 C   0  0  0  0  0  0  0  0  0  0  0  0
   45.1885  -32.0143 -103.0753 C   0  0  0  0  0  0  0  0  0  0  0  0
   46.0229  -32.4292 -104.2579 C   0  0  1  0  0  0  0  0  0  0  0  0
   45.6079  -31.6436 -105.3882 O   0  0  0  0  0  0  0  0  0  0  0  0
   47.3698  -31.9530 -103.8879 C   0  0  1  0  0  0  0  0  0  0  0  0
   48.1240  -33.0306 -103.3353 O   0  0  0  0  0  0  0  0  0  0  0  0
   47.9452  -31.5519 -105.2109 C   0  0  1  0  0  0  0  0  0  0  0  0
   48.5691  -32.6844 -105.8509 O   0  0  0  0  0  0  0  0  0  0  0  0
   46.7439  -31.0548 -106.0699 C   0  0  2  0  0  0  0  0  0  0  0  0
   49.3524  -30.9680 -100.2713 O   0  0  0  0  0  0  0  0  0  0  0  0
   48.5600  -26.0691 -106.2767 N   0  0  0  0  0  0  0  0  0  0  0  0
   49.2859  -27.2135 -106.2405 C   0  0  0  0  0  0  0  0  0  0  0  0
   48.6971  -28.4277 -106.2317 N   0  0  0  0  0  0  0  0  0  0  0  0
   47.3604  -28.5400 -106.1687 C   0  0  0  0  0  0  0  0  0  0  0  0
   46.5492  -27.3465 -106.1636 C   0  0  0  0  0  0  0  0  0  0  0  0
   47.2110  -26.0844 -106.2299 C   0  0  0  0  0  0  0  0  0  0  0  0
   46.4962  -24.9039 -106.2387 N   0  0  0  0  0  0  0  0  0  0  0  0
   45.2704  -27.7340 -106.0912 N   0  0  0  0  0  0  0  0  0  0  0  0
   45.2248  -29.0321 -106.0433 C   0  0  0  0  0  0  0  0  0  0  0  0
   46.4826  -29.5860 -106.0952 N   0  0  0  0  0  0  0  0  0  0  0  0
  2  1  1  6  0  0  0
  2  3  1  0  0  0  0
  2  5  1  0  0  0  0
  3  4  1  0  0  0  0
  3 17  1  0  0  0  0
  5  6  1  0  0  0  0
  7  6  1  1  0  0  0
  7  8  1  0  0  0  0
  7  9  1  0  0  0  0
 10  9  1  1  0  0  0
 10 11  1  0  0  0  0
 10 12  1  0  0  0  0
 11 16  1  0  0  0  0
 12 13  1  6  0  0  0
 12 14  1  0  0  0  0
 14 15  1  6  0  0  0
 14 16  1  0  0  0  0
 16 27  1  1  0  0  0
 18 19  2  0  0  0  0
 18 23  1  0  0  0  0
 19 20  1  0  0  0  0
 20 21  2  0  0  0  0
 21 22  1  0  0  0  0
 21 27  1  0  0  0  0
 22 23  2  0  0  0  0
 22 25  1  0  0  0  0
 23 24  1  0  0  0  0
 25 26  2  0  0  0  0
 26 27  1  0  0  0  0
M  END
>  <CHROM.1>
153.05061356,-171.67718818,179.65081230,-172.27503089,-108.01091849,-33.32724814
154.27303369,46.94876819,-29.76567405,-103.96435594,-1.56080404,-0.99936325
-0.89039293

>  <Name>
ligand

>  <RI>
0

>  <Rbt.Current_Directory>
/home/itssahil/PROJECTS/Mol_Feturizer/Test_systems_manuscript/rnas/4l81

>  <Rbt.Executable>
rbdock ($Id: //depot/dev/client3/rdock/2013.1/src/exe/rbdock.cxx#4 $)

>  <Rbt.Library>
libRbt.so (2013.1, Build901 2013/11/27)

>  <Rbt.Parameter_File>
/export/apps/rDock/src/rDock_2013.1_src/data/scripts/dock_solv.prm

>  <Rbt.Receptor>
prm/pocket_docking_8.prm

>  <SCORE>
-11.2301

>  <SCORE.INTER>
-9.78811

>  <SCORE.INTER.CONST>
1

>  <SCORE.INTER.POLAR>
0

>  <SCORE.INTER.ROT>
7

>  <SCORE.INTER.SOLV>
10.7949

>  <SCORE.INTER.VDW>
-18.3904

>  <SCORE.INTER.norm>
-0.362523

>  <SCORE.INTRA>
-1.44203

>  <SCORE.INTRA.DIHEDRAL>
1.42687

>  <SCORE.INTRA.DIHEDRAL.0>
8.34559

>  <SCORE.INTRA.POLAR>
0

>  <SCORE.INTRA.POLAR.0>
0

>  <SCORE.INTRA.REPUL>
0

>  <SCORE.INTRA.REPUL.0>
0

>  <SCORE.INTRA.SOLV>
-0.788776

>  <SCORE.INTRA.SOLV.lig_0>
-48.829

>  <SCORE.INTRA.VDW>
-1.76108

>  <SCORE.INTRA.VDW.0>
-1.77092

>  <SCORE.INTRA.norm>
-0.0534087

>  <SCORE.RESTR>
0

>  <SCORE.RESTR.CAVITY>
0

>  <SCORE.RESTR.norm>
0

>  <SCORE.SYSTEM>
0

>  <SCORE.SYSTEM.CONST>
0

>  <SCORE.SYSTEM.DIHEDRAL>
0

>  <SCORE.SYSTEM.SOLV>
0

>  <SCORE.SYSTEM.norm>
0

>  <SCORE.heavy>
27

>  <SCORE.norm>
-0.415931

>  <RMSD>
5.994

$$$$
ligand
 OpenBabel02271912153D
libRbt.so/2013.1/901 2013/11/27
 27 29  0  0  0  0  0  0  0  0999 V2000
   48.2571  -29.7804 -101.0792 N   0  0  0  0  0  0  0  0  0  0  0  0
   47.3877  -28.7885 -101.7219 C   0  0  2  0  0  0  0  0  0  0  0  0
   48.1873  -27.5403 -102.0308 C   0  0  0  0  0  0  0  0  0  0  0  0
   49.4045  -27.5485 -101.9250 O   0  0  0  0  0  0  0  0  0  0  0  0
   46.2073  -28.4100 -100.8170 C   0  0  0  0  0  0  0  0  0  0  0  0
   45.1985  -29.5472 -100.7393 C   0  0  0  0  0  0  0  0  0  0  0  0
   44.4253  -29.9428 -102.3546 S   0  0  2  0  0  0  0  0  0  0  0  0
   43.1908  -31.2201 -101.9494 C   0  0  0  0  0  0  0  0  0  0  0  0
   45.7496  -31.0030 -102.9301 C   0  0  0  0  0  0  0  0  0  0  0  0
   45.5254  -31.5563 -104.3123 C   0  0  1  0  0  0  0  0  0  0  0  0
   45.0087  -30.4956 -105.1338 O   0  0  0  0  0  0  0  0  0  0  0  0
   46.8989  -31.8201 -104.7830 C   0  0  1  0  0  0  0  0  0  0  0  0
   47.2156  -33.1976 -104.5889 O   0  0  0  0  0  0  0  0  0  0  0  0
   46.8021  -31.5192 -106.2467 C   0  0  1  0  0  0  0  0  0  0  0  0
   46.3750  -32.6904 -106.9727 O   0  0  0  0  0  0  0  0  0  0  0  0
   45.7341  -30.3929 -106.3849 C   0  0  2  0  0  0  0  0  0  0  0  0
   47.6278  -26.5296 -102.4184 O   0  0  0  0  0  0  0  0  0  0  0  0
   44.9641  -25.2093 -105.5277 N   0  0  0  0  0  0  0  0  0  0  0  0
   44.0926  -26.2234 -105.3045 C   0  0  0  0  0  0  0  0  0  0  0  0
   44.4297  -27.5110 -105.5270 N   0  0  0  0  0  0  0  0  0  0  0  0
   45.6196  -27.8241 -106.0650 C   0  0  0  0  0  0  0  0  0  0  0  0
   46.5632  -26.7721 -106.3572 C   0  0  0  0  0  0  0  0  0  0  0  0
   46.1871  -25.4296 -106.0548 C   0  0  0  0  0  0  0  0  0  0  0  0
   47.0447  -24.3764 -106.2996 N   0  0  0  0  0  0  0  0  0  0  0  0
   47.6507  -27.3471 -106.8841 N   0  0  0  0  0  0  0  0  0  0  0  0
   47.4599  -28.6312 -106.9486 C   0  0  0  0  0  0  0  0  0  0  0  0
   46.2279  -28.9865 -106.4510 N   0  0  0  0  0  0  0  0  0  0  0  0
  2  1  1  1  0  0  0
  2  3  1  0  0  0  0
  2  5  1  0  0  0  0
  3  4  1  0  0  0  0
  3 17  1  0  0  0  0
  5  6  1  0  0  0  0
  7  6  1  1  0  0  0
  7  8  1  0  0  0  0
  7  9  1  0  0  0  0
 10  9  1  1  0  0  0
 10 11  1  0  0  0  0
 10 12  1  0  0  0  0
 11 16  1  0  0  0  0
 12 13  1  6  0  0  0
 12 14  1  0  0  0  0
 14 15  1  6  0  0  0
 14 16  1  0  0  0  0
 16 27  1  1  0  0  0
 18 19  2  0  0  0  0
 18 23  1  0  0  0  0
 19 20  1  0  0  0  0
 20 21  2  0  0  0  0
 21 22  1  0  0  0  0
 21 27  1  0  0  0  0
 22 23  2  0  0  0  0
 22 25  1  0  0  0  0
 23 24  1  0  0  0  0
 25 26  2  0  0  0  0
 26 27  1  0  0  0  0
M  END
>  <CHROM.1>
10.71749022,-72.33543615,-63.05342760,-175.67664364,-178.79699339,42.50864733
-38.31062418,46.19853592,-29.01653223,-104.22180886,-2.29774157,-1.40537229
-1.13455593

>  <Name>
ligand

>  <RI>
0

>  <Rbt.Current_Directory>
/home/itssahil/PROJECTS/Mol_Feturizer/Test_systems_manuscript/rnas/4l81

>  <Rbt.Executable>
rbdock ($Id: //depot/dev/client3/rdock/2013.1/src/exe/rbdock.cxx#4 $)

>  <Rbt.Library>
libRbt.so (2013.1, Build901 2013/11/27)

>  <Rbt.Parameter_File>
/export/apps/rDock/src/rDock_2013.1_src/data/scripts/dock_solv.prm

>  <Rbt.Receptor>
prm/pocket_docking_5.prm

>  <SCORE>
-15.0668

>  <SCORE.INTER>
-13.3735

>  <SCORE.INTER.CONST>
1

>  <SCORE.INTER.POLAR>
0

>  <SCORE.INTER.ROT>
7

>  <SCORE.INTER.SOLV>
9.50764

>  <SCORE.INTER.VDW>
-20.3516

>  <SCORE.INTER.norm>
-0.495316

>  <SCORE.INTRA>
-1.69324

>  <SCORE.INTRA.DIHEDRAL>
-2.79022

>  <SCORE.INTRA.DIHEDRAL.0>
8.34559

>  <SCORE.INTRA.POLAR>
0

>  <SCORE.INTRA.POLAR.0>
0

>  <SCORE.INTRA.REPUL>
0

>  <SCORE.INTRA.REPUL.0>
0

>  <SCORE.INTRA.SOLV>
0.976697

>  <SCORE.INTRA.SOLV.lig_0>
-48.829

>  <SCORE.INTRA.VDW>
-0.786474

>  <SCORE.INTRA.VDW.0>
-1.77092

>  <SCORE.INTRA.norm>
-0.0627125

>  <SCORE.RESTR>
0

>  <SCORE.RESTR.CAVITY>
0

>  <SCORE.RESTR.norm>
0

>  <SCORE.SYSTEM>
0

>  <SCORE.SYSTEM.CONST>
0

>  <SCORE.SYSTEM.DIHEDRAL>
0

>  <SCORE.SYSTEM.SOLV>
0

>  <SCORE.SYSTEM.norm>
0

>  <SCORE.heavy>
27

>  <SCORE.norm>
-0.558028

>  <RMSD>
6.017

$$$$
ligand
 OpenBabel02271912153D
libRbt.so/2013.1/901 2013/11/27
 27 29  0  0  0  0  0  0  0  0999 V2000
   47.8379  -20.4891 -107.1451 N   0  0  0  0  0  0  0  0  0  0  0  0
   48.8633  -21.5348 -107.0573 C   0  0  2  0  0  0  0  0  0  0  0  0
   50.1057  -21.0876 -107.7984 C   0  0  0  0  0  0  0  0  0  0  0  0
   51.1324  -20.8407 -107.1837 O   0  0  0  0  0  0  0  0  0  0  0  0
   48.3700  -22.8539 -107.6671 C   0  0  0  0  0  0  0  0  0  0  0  0
   49.2762  -24.0087 -107.2645 C   0  0  0  0  0  0  0  0  0  0  0  0
   48.7196  -25.6296 -107.9174 S   0  0  2  0  0  0  0  0  0  0  0  0
   47.0258  -25.8057 -107.2697 C   0  0  0  0  0  0  0  0  0  0  0  0
   49.5900  -26.6182 -106.7035 C   0  0  0  0  0  0  0  0  0  0  0  0
   49.3753  -26.1626 -105.2846 C   0  0  1  0  0  0  0  0  0  0  0  0
   48.9301  -27.2957 -104.5199 O   0  0  0  0  0  0  0  0  0  0  0  0
   50.7464  -25.8620 -104.8292 C   0  0  1  0  0  0  0  0  0  0  0  0
   50.9930  -24.4614 -104.9436 O   0  0  0  0  0  0  0  0  0  0  0  0
   50.7012  -26.2568 -103.3856 C   0  0  1  0  0  0  0  0  0  0  0  0
   50.2382  -25.1546 -102.5781 O   0  0  0  0  0  0  0  0  0  0  0  0
   49.6912  -27.4399 -103.2943 C   0  0  2  0  0  0  0  0  0  0  0  0
   50.1017  -21.0023 -109.0140 O   0  0  0  0  0  0  0  0  0  0  0  0
   49.7883  -32.3077 -105.4142 N   0  0  0  0  0  0  0  0  0  0  0  0
   48.9754  -31.2755 -105.7484 C   0  0  0  0  0  0  0  0  0  0  0  0
   49.0820  -30.0675 -105.1565 N   0  0  0  0  0  0  0  0  0  0  0  0
   49.9457  -29.8736 -104.1467 C   0  0  0  0  0  0  0  0  0  0  0  0
   50.8025  -30.9575 -103.7301 C   0  0  0  0  0  0  0  0  0  0  0  0
   50.6953  -32.2016 -104.4201 C   0  0  0  0  0  0  0  0  0  0  0  0
   51.4909  -33.2767 -104.0798 N   0  0  0  0  0  0  0  0  0  0  0  0
   51.5518  -30.5066 -102.7171 N   0  0  0  0  0  0  0  0  0  0  0  0
   51.2321  -29.2706 -102.4732 C   0  0  0  0  0  0  0  0  0  0  0  0
   50.2521  -28.8222 -103.3277 N   0  0  0  0  0  0  0  0  0  0  0  0
  2  1  1  6  0  0  0
  2  3  1  0  0  0  0
  2  5  1  0  0  0  0
  3  4  1  0  0  0  0
  3 17  1  0  0  0  0
  5  6  1  0  0  0  0
  7  6  1  1  0  0  0
  7  8  1  0  0  0  0
  7  9  1  0  0  0  0
 10  9  1  6  0  0  0
 10 11  1  0  0  0  0
 10 12  1  0  0  0  0
 11 16  1  0  0  0  0
 12 13  1  1  0  0  0
 12 14  1  0  0  0  0
 14 15  1  1  0  0  0
 14 16  1  0  0  0  0
 16 27  1  6  0  0  0
 18 19  2  0  0  0  0
 18 23  1  0  0  0  0
 19 20  1  0  0  0  0
 20 21  2  0  0  0  0
 21 22  1  0  0  0  0
 21 27  1  0  0  0  0
 22 23  2  0  0  0  0
 22 25  1  0  0  0  0
 23 24  1  0  0  0  0
 25 26  2  0  0  0  0
 26 27  1  0  0  0  0
M  END
>  <CHROM.1>
112.02479127,-165.60328864,178.30486495,-57.30767794,48.84075063,126.76465653
-12.54792068,49.77157231,-26.52022669,-105.53059816,-1.80177644,1.05551689
2.97359587

>  <Name>
ligand

>  <RI>
0

>  <Rbt.Current_Directory>
/home/itssahil/PROJECTS/Mol_Feturizer/Test_systems_manuscript/rnas/4l81

>  <Rbt.Executable>
rbdock ($Id: //depot/dev/client3/rdock/2013.1/src/exe/rbdock.cxx#4 $)

>  <Rbt.Library>
libRbt.so (2013.1, Build901 2013/11/27)

>  <Rbt.Parameter_File>
/export/apps/rDock/src/rDock_2013.1_src/data/scripts/dock_solv.prm

>  <Rbt.Receptor>
prm/pocket_docking_8.prm

>  <SCORE>
-8.64505

>  <SCORE.INTER>
-9.39651

>  <SCORE.INTER.CONST>
1

>  <SCORE.INTER.POLAR>
0

>  <SCORE.INTER.ROT>
7

>  <SCORE.INTER.SOLV>
13.5141

>  <SCORE.INTER.VDW>
-19.0357

>  <SCORE.INTER.norm>
-0.348019

>  <SCORE.INTRA>
0.74979

>  <SCORE.INTRA.DIHEDRAL>
1.02987

>  <SCORE.INTRA.DIHEDRAL.0>
8.34559

>  <SCORE.INTRA.POLAR>
0

>  <SCORE.INTRA.POLAR.0>
0

>  <SCORE.INTRA.REPUL>
0

>  <SCORE.INTRA.REPUL.0>
0

>  <SCORE.INTRA.SOLV>
-0.878811

>  <SCORE.INTRA.SOLV.lig_0>
-48.829

>  <SCORE.INTRA.VDW>
0.67426

>  <SCORE.INTRA.VDW.0>
-1.77092

>  <SCORE.INTRA.norm>
0.02777

>  <SCORE.RESTR>
0.0016706

>  <SCORE.RESTR.CAVITY>
0.0016706

>  <SCORE.RESTR.norm>
6.18741e-05

>  <SCORE.SYSTEM>
0

>  <SCORE.SYSTEM.CONST>
0

>  <SCORE.SYSTEM.DIHEDRAL>
0

>  <SCORE.SYSTEM.SOLV>
0

>  <SCORE.SYSTEM.norm>
0

>  <SCORE.heavy>
27

>  <SCORE.norm>
-0.320187

>  <RMSD>
6.018

$$$$
ligand
 OpenBabel02271912153D
libRbt.so/2013.1/901 2013/11/27
 27 29  0  0  0  0  0  0  0  0999 V2000
   46.6455  -28.2131 -101.4749 N   0  0  0  0  0  0  0  0  0  0  0  0
   46.9393  -29.5491 -100.9442 C   0  0  2  0  0  0  0  0  0  0  0  0
   46.5307  -29.6154  -99.4878 C   0  0  0  0  0  0  0  0  0  0  0  0
   47.1124  -30.3668  -98.7199 O   0  0  0  0  0  0  0  0  0  0  0  0
   48.4342  -29.8783 -101.0554 C   0  0  0  0  0  0  0  0  0  0  0  0
   48.8113  -30.2039 -102.4936 C   0  0  0  0  0  0  0  0  0  0  0  0
   48.1436  -31.8108 -103.0728 S   0  0  2  0  0  0  0  0  0  0  0  0
   49.6199  -32.7290 -103.6179 C   0  0  0  0  0  0  0  0  0  0  0  0
   47.5836  -31.2072 -104.6636 C   0  0  0  0  0  0  0  0  0  0  0  0
   46.1563  -30.7279 -104.6616 C   0  0  1  0  0  0  0  0  0  0  0  0
   46.0670  -29.6116 -103.7601 O   0  0  0  0  0  0  0  0  0  0  0  0
   45.9953  -30.1816 -106.0229 C   0  0  1  0  0  0  0  0  0  0  0  0
   45.3711  -31.1547 -106.8590 O   0  0  0  0  0  0  0  0  0  0  0  0
   45.0671  -29.0280 -105.8003 C   0  0  1  0  0  0  0  0  0  0  0  0
   43.6948  -29.4688 -105.8621 O   0  0  0  0  0  0  0  0  0  0  0  0
   45.3854  -28.4885 -104.3735 C   0  0  2  0  0  0  0  0  0  0  0  0
   45.6425  -28.8973  -99.0631 O   0  0  0  0  0  0  0  0  0  0  0  0
   50.2878  -26.5129 -104.8848 N   0  0  0  0  0  0  0  0  0  0  0  0
   49.8849  -27.7909 -105.0907 C   0  0  0  0  0  0  0  0  0  0  0  0
   48.5919  -28.1564 -104.9660 N   0  0  0  0  0  0  0  0  0  0  0  0
   47.6692  -27.2765 -104.5442 C   0  0  0  0  0  0  0  0  0  0  0  0
   48.0617  -25.9144 -104.2734 C   0  0  0  0  0  0  0  0  0  0  0  0
   49.4286  -25.5574 -104.4715 C   0  0  0  0  0  0  0  0  0  0  0  0
   49.8701  -24.2703 -104.2409 N   0  0  0  0  0  0  0  0  0  0  0  0
   46.9683  -25.2576 -103.8685 N   0  0  0  0  0  0  0  0  0  0  0  0
   45.9617  -26.0798 -103.8579 C   0  0  0  0  0  0  0  0  0  0  0  0
   46.3305  -27.3384 -104.2721 N   0  0  0  0  0  0  0  0  0  0  0  0
  2  1  1  1  0  0  0
  2  3  1  0  0  0  0
  2  5  1  0  0  0  0
  3  4  1  0  0  0  0
  3 17  1  0  0  0  0
  5  6  1  0  0  0  0
  7  6  1  1  0  0  0
  7  8  1  0  0  0  0
  7  9  1  0  0  0  0
 10  9  1  6  0  0  0
 10 11  1  0  0  0  0
 10 12  1  0  0  0  0
 11 16  1  0  0  0  0
 12 13  1  6  0  0  0
 12 14  1  0  0  0  0
 14 15  1  1  0  0  0
 14 16  1  0  0  0  0
 16 27  1  6  0  0  0
 18 19  2  0  0  0  0
 18 23  1  0  0  0  0
 19 20  1  0  0  0  0
 20 21  2  0  0  0  0
 21 22  1  0  0  0  0
 21 27  1  0  0  0  0
 22 23  2  0  0  0  0
 22 25  1  0  0  0  0
 23 24  1  0  0  0  0
 25 26  2  0  0  0  0
 26 27  1  0  0  0  0
M  END
>  <CHROM.1>
-151.33031851,-74.89409835,-70.64178555,-123.80310971,-91.63280008,62.72491577
45.83196136,47.26947817,-28.93886116,-103.51758612,-1.99197542,-1.16684599
-1.02576317

>  <Name>
ligand

>  <RI>
0

>  <Rbt.Current_Directory>
/home/itssahil/PROJECTS/Mol_Feturizer/Test_systems_manuscript/rnas/4l81

>  <Rbt.Executable>
rbdock ($Id: //depot/dev/client3/rdock/2013.1/src/exe/rbdock.cxx#4 $)

>  <Rbt.Library>
libRbt.so (2013.1, Build901 2013/11/27)

>  <Rbt.Parameter_File>
/export/apps/rDock/src/rDock_2013.1_src/data/scripts/dock_solv.prm

>  <Rbt.Receptor>
prm/pocket_docking_5.prm

>  <SCORE>
-7.36566

>  <SCORE.INTER>
-7.0515

>  <SCORE.INTER.CONST>
1

>  <SCORE.INTER.POLAR>
0

>  <SCORE.INTER.ROT>
7

>  <SCORE.INTER.SOLV>
9.57006

>  <SCORE.INTER.VDW>
-16.1577

>  <SCORE.INTER.norm>
-0.261167

>  <SCORE.INTRA>
-0.314153

>  <SCORE.INTRA.DIHEDRAL>
1.95898

>  <SCORE.INTRA.DIHEDRAL.0>
8.34559

>  <SCORE.INTRA.POLAR>
0

>  <SCORE.INTRA.POLAR.0>
0

>  <SCORE.INTRA.REPUL>
0

>  <SCORE.INTRA.REPUL.0>
0

>  <SCORE.INTRA.SOLV>
3.70848

>  <SCORE.INTRA.SOLV.lig_0>
-48.829

>  <SCORE.INTRA.VDW>
-3.14788

>  <SCORE.INTRA.VDW.0>
-1.77092

>  <SCORE.INTRA.norm>
-0.0116353

>  <SCORE.RESTR>
0

>  <SCORE.RESTR.CAVITY>
0

>  <SCORE.RESTR.norm>
0

>  <SCORE.SYSTEM>
0

>  <SCORE.SYSTEM.CONST>
0

>  <SCORE.SYSTEM.DIHEDRAL>
0

>  <SCORE.SYSTEM.SOLV>
0

>  <SCORE.SYSTEM.norm>
0

>  <SCORE.heavy>
27

>  <SCORE.norm>
-0.272802

>  <RMSD>
6.036

$$$$
ligand
 OpenBabel02271912153D
libRbt.so/2013.1/901 2013/11/27
 27 29  0  0  0  0  0  0  0  0999 V2000
   48.1099  -28.0060 -101.2406 N   0  0  0  0  0  0  0  0  0  0  0  0
   46.8236  -28.5685 -100.8143 C   0  0  2  0  0  0  0  0  0  0  0  0
   47.0317  -29.9817 -100.3122 C   0  0  0  0  0  0  0  0  0  0  0  0
   47.6705  -30.7826 -100.9781 O   0  0  0  0  0  0  0  0  0  0  0  0
   45.8150  -28.5965 -101.9707 C   0  0  0  0  0  0  0  0  0  0  0  0
   44.5971  -29.4338 -101.6066 C   0  0  0  0  0  0  0  0  0  0  0  0
   43.9968  -30.4803 -102.9878 S   0  0  2  0  0  0  0  0  0  0  0  0
   42.9953  -31.7610 -102.1652 C   0  0  0  0  0  0  0  0  0  0  0  0
   45.5208  -31.4000 -103.1889 C   0  0  0  0  0  0  0  0  0  0  0  0
   45.6922  -31.9959 -104.5608 C   0  0  1  0  0  0  0  0  0  0  0  0
   45.2094  -31.0404 -105.5205 O   0  0  0  0  0  0  0  0  0  0  0  0
   47.1592  -32.0400 -104.7146 C   0  0  1  0  0  0  0  0  0  0  0  0
   47.6353  -33.3466 -104.3958 O   0  0  0  0  0  0  0  0  0  0  0  0
   47.3388  -31.7732 -106.1770 C   0  0  1  0  0  0  0  0  0  0  0  0
   47.2673  -33.0051 -106.9244 O   0  0  0  0  0  0  0  0  0  0  0  0
   46.1656  -30.8349 -106.5907 C   0  0  2  0  0  0  0  0  0  0  0  0
   46.5933  -30.3216  -99.2272 O   0  0  0  0  0  0  0  0  0  0  0  0
   44.8567  -25.8978 -105.1380 N   0  0  0  0  0  0  0  0  0  0  0  0
   44.1918  -27.0461 -104.8598 C   0  0  0  0  0  0  0  0  0  0  0  0
   44.6570  -28.2494 -105.2556 N   0  0  0  0  0  0  0  0  0  0  0  0
   45.7571  -28.3405 -106.0205 C   0  0  0  0  0  0  0  0  0  0  0  0
   46.4738  -27.1393 -106.3755 C   0  0  0  0  0  0  0  0  0  0  0  0
   45.9780  -25.8930 -105.8894 C   0  0  0  0  0  0  0  0  0  0  0  0
   46.6199  -24.7070 -106.1827 N   0  0  0  0  0  0  0  0  0  0  0  0
   47.5127  -27.5050 -107.1355 N   0  0  0  0  0  0  0  0  0  0  0  0
   47.4936  -28.7962 -107.2836 C   0  0  0  0  0  0  0  0  0  0  0  0
   46.4380  -29.3680 -106.6125 N   0  0  0  0  0  0  0  0  0  0  0  0
  2  1  1  6  0  0  0
  2  3  1  0  0  0  0
  2  5  1  0  0  0  0
  3  4  1  0  0  0  0
  3 17  1  0  0  0  0
  5  6  1  0  0  0  0
  7  6  1  1  0  0  0
  7  8  1  0  0  0  0
  7  9  1  0  0  0  0
 10  9  1  1  0  0  0
 10 11  1  0  0  0  0
 10 12  1  0  0  0  0
 11 16  1  0  0  0  0
 12 13  1  6  0  0  0
 12 14  1  0  0  0  0
 14 15  1  6  0  0  0
 14 16  1  0  0  0  0
 16 27  1  1  0  0  0
 18 19  2  0  0  0  0
 18 23  1  0  0  0  0
 19 20  1  0  0  0  0
 20 21  2  0  0  0  0
 21 22  1  0  0  0  0
 21 27  1  0  0  0  0
 22 23  2  0  0  0  0
 22 25  1  0  0  0  0
 23 24  1  0  0  0  0
 25 26  2  0  0  0  0
 26 27  1  0  0  0  0
M  END
>  <CHROM.1>
-49.12368290,168.29452770,-139.46258268,160.28309096,-156.44003587,39.16722879
-14.49502456,46.03808391,-29.63127876,-104.11120214,1.87107859,-1.43393981
2.46299037

>  <Name>
ligand

>  <RI>
0

>  <Rbt.Current_Directory>
/home/itssahil/PROJECTS/Mol_Feturizer/Test_systems_manuscript/rnas/4l81

>  <Rbt.Executable>
rbdock ($Id: //depot/dev/client3/rdock/2013.1/src/exe/rbdock.cxx#4 $)

>  <Rbt.Library>
libRbt.so (2013.1, Build901 2013/11/27)

>  <Rbt.Parameter_File>
/export/apps/rDock/src/rDock_2013.1_src/data/scripts/dock_solv.prm

>  <Rbt.Receptor>
prm/pocket_docking_7.prm

>  <SCORE>
-13.4461

>  <SCORE.INTER>
-13.4521

>  <SCORE.INTER.CONST>
1

>  <SCORE.INTER.POLAR>
0

>  <SCORE.INTER.ROT>
7

>  <SCORE.INTER.SOLV>
12.5487

>  <SCORE.INTER.VDW>
-21.4177

>  <SCORE.INTER.norm>
-0.498227

>  <SCORE.INTRA>
0.00606101

>  <SCORE.INTRA.DIHEDRAL>
3.62089

>  <SCORE.INTRA.DIHEDRAL.0>
8.34559

>  <SCORE.INTRA.POLAR>
0

>  <SCORE.INTRA.POLAR.0>
0

>  <SCORE.INTRA.REPUL>
0

>  <SCORE.INTRA.REPUL.0>
0

>  <SCORE.INTRA.SOLV>
-1.14433

>  <SCORE.INTRA.SOLV.lig_0>
-48.829

>  <SCORE.INTRA.VDW>
-1.23222

>  <SCORE.INTRA.VDW.0>
-1.77092

>  <SCORE.INTRA.norm>
0.000224482

>  <SCORE.RESTR>
0

>  <SCORE.RESTR.CAVITY>
0

>  <SCORE.RESTR.norm>
0

>  <SCORE.SYSTEM>
0

>  <SCORE.SYSTEM.CONST>
0

>  <SCORE.SYSTEM.DIHEDRAL>
0

>  <SCORE.SYSTEM.SOLV>
0

>  <SCORE.SYSTEM.norm>
0

>  <SCORE.heavy>
27

>  <SCORE.norm>
-0.498002

>  <RMSD>
6.051

$$$$
ligand
 OpenBabel02271912153D
libRbt.so/2013.1/901 2013/11/27
 27 29  0  0  0  0  0  0  0  0999 V2000
   47.4488  -26.2641 -102.8460 N   0  0  0  0  0  0  0  0  0  0  0  0
   46.8858  -27.5009 -102.2927 C   0  0  2  0  0  0  0  0  0  0  0  0
   47.6480  -28.6907 -102.8369 C   0  0  0  0  0  0  0  0  0  0  0  0
   47.9531  -29.6151 -102.0985 O   0  0  0  0  0  0  0  0  0  0  0  0
   45.4030  -27.6526 -102.6583 C   0  0  0  0  0  0  0  0  0  0  0  0
   44.7645  -28.7876 -101.8704 C   0  0  0  0  0  0  0  0  0  0  0  0
   43.9830  -30.0601 -102.9350 S   0  0  2  0  0  0  0  0  0  0  0  0
   43.2043  -31.2053 -101.7511 C   0  0  0  0  0  0  0  0  0  0  0  0
   45.4909  -30.9712 -103.2586 C   0  0  0  0  0  0  0  0  0  0  0  0
   45.5859  -31.5066 -104.6626 C   0  0  1  0  0  0  0  0  0  0  0  0
   45.0151  -30.5279 -105.5476 O   0  0  0  0  0  0  0  0  0  0  0  0
   47.0400  -31.5021 -104.9141 C   0  0  1  0  0  0  0  0  0  0  0  0
   47.5704  -32.8061 -104.6821 O   0  0  0  0  0  0  0  0  0  0  0  0
   47.1143  -31.1720 -106.3727 C   0  0  1  0  0  0  0  0  0  0  0  0
   47.0253  -32.3746 -107.1646 O   0  0  0  0  0  0  0  0  0  0  0  0
   45.8919  -30.2523 -106.6689 C   0  0  2  0  0  0  0  0  0  0  0  0
   47.9338  -28.7514 -104.0200 O   0  0  0  0  0  0  0  0  0  0  0  0
   49.1267  -26.1003 -107.3727 N   0  0  0  0  0  0  0  0  0  0  0  0
   49.4286  -27.4157 -107.5011 C   0  0  0  0  0  0  0  0  0  0  0  0
   48.4968  -28.3774 -107.3341 N   0  0  0  0  0  0  0  0  0  0  0  0
   47.2504  -28.0632 -106.9454 C   0  0  0  0  0  0  0  0  0  0  0  0
   46.8961  -26.6770 -106.7567 C   0  0  0  0  0  0  0  0  0  0  0  0
   47.8969  -25.6893 -106.9977 C   0  0  0  0  0  0  0  0  0  0  0  0
   47.6233  -24.3451 -106.8458 N   0  0  0  0  0  0  0  0  0  0  0  0
   45.6155  -26.6420 -106.3696 N   0  0  0  0  0  0  0  0  0  0  0  0
   45.1634  -27.8584 -106.2965 C   0  0  0  0  0  0  0  0  0  0  0  0
   46.1237  -28.7785 -106.6472 N   0  0  0  0  0  0  0  0  0  0  0  0
  2  1  1  6  0  0  0
  2  3  1  0  0  0  0
  2  5  1  0  0  0  0
  3  4  1  0  0  0  0
  3 17  1  0  0  0  0
  5  6  1  0  0  0  0
  7  6  1  1  0  0  0
  7  8  1  0  0  0  0
  7  9  1  0  0  0  0
 10  9  1  1  0  0  0
 10 11  1  0  0  0  0
 10 12  1  0  0  0  0
 11 16  1  0  0  0  0
 12 13  1  6  0  0  0
 12 14  1  0  0  0  0
 14 15  1  6  0  0  0
 14 16  1  0  0  0  0
 16 27  1  1  0  0  0
 18 19  2  0  0  0  0
 18 23  1  0  0  0  0
 19 20  1  0  0  0  0
 20 21  2  0  0  0  0
 21 22  1  0  0  0  0
 21 27  1  0  0  0  0
 22 23  2  0  0  0  0
 22 25  1  0  0  0  0
 23 24  1  0  0  0  0
 25 26  2  0  0  0  0
 26 27  1  0  0  0  0
M  END
>  <CHROM.1>
137.63464348,-169.27395405,-123.82823946,-175.87178355,-142.36091970,37.33366315
143.38716951,46.50933339,-29.01030995,-104.87392377,0.39942065,1.06673182
0.40077110

>  <Name>
ligand

>  <RI>
0

>  <Rbt.Current_Directory>
/home/itssahil/PROJECTS/Mol_Feturizer/Test_systems_manuscript/rnas/4l81

>  <Rbt.Executable>
rbdock ($Id: //depot/dev/client3/rdock/2013.1/src/exe/rbdock.cxx#4 $)

>  <Rbt.Library>
libRbt.so (2013.1, Build901 2013/11/27)

>  <Rbt.Parameter_File>
/export/apps/rDock/src/rDock_2013.1_src/data/scripts/dock_solv.prm

>  <Rbt.Receptor>
prm/pocket_docking_6.prm

>  <SCORE>
-8.70244

>  <SCORE.INTER>
-7.54866

>  <SCORE.INTER.CONST>
1

>  <SCORE.INTER.POLAR>
0

>  <SCORE.INTER.ROT>
7

>  <SCORE.INTER.SOLV>
9.08433

>  <SCORE.INTER.VDW>
-16.3272

>  <SCORE.INTER.norm>
-0.27958

>  <SCORE.INTRA>
-1.15378

>  <SCORE.INTRA.DIHEDRAL>
6.61149

>  <SCORE.INTRA.DIHEDRAL.0>
8.34559

>  <SCORE.INTRA.POLAR>
0

>  <SCORE.INTRA.POLAR.0>
0

>  <SCORE.INTRA.REPUL>
0

>  <SCORE.INTRA.REPUL.0>
0

>  <SCORE.INTRA.SOLV>
-1.09197

>  <SCORE.INTRA.SOLV.lig_0>
-48.829

>  <SCORE.INTRA.VDW>
-3.91354

>  <SCORE.INTRA.VDW.0>
-1.77092

>  <SCORE.INTRA.norm>
-0.0427326

>  <SCORE.RESTR>
0

>  <SCORE.RESTR.CAVITY>
0

>  <SCORE.RESTR.norm>
0

>  <SCORE.SYSTEM>
0

>  <SCORE.SYSTEM.CONST>
0

>  <SCORE.SYSTEM.DIHEDRAL>
0

>  <SCORE.SYSTEM.SOLV>
0

>  <SCORE.SYSTEM.norm>
0

>  <SCORE.heavy>
27

>  <SCORE.norm>
-0.322313

>  <RMSD>
6.056

$$$$
ligand
 OpenBabel02271912153D
libRbt.so/2013.1/901 2013/11/27
 27 29  0  0  0  0  0  0  0  0999 V2000
   48.1818  -29.1190 -103.4056 N   0  0  0  0  0  0  0  0  0  0  0  0
   47.7863  -27.7727 -102.9766 C   0  0  2  0  0  0  0  0  0  0  0  0
   49.0237  -26.9257 -102.7662 C   0  0  0  0  0  0  0  0  0  0  0  0
   48.9225  -25.7180 -102.6114 O   0  0  0  0  0  0  0  0  0  0  0  0
   46.9862  -27.8156 -101.6677 C   0  0  0  0  0  0  0  0  0  0  0  0
   45.4945  -27.9291 -101.9486 C   0  0  0  0  0  0  0  0  0  0  0  0
   44.7903  -29.5572 -101.4832 S   0  0  2  0  0  0  0  0  0  0  0  0
   45.7783  -30.0665 -100.0395 C   0  0  0  0  0  0  0  0  0  0  0  0
   45.6444  -30.4892 -102.7523 C   0  0  0  0  0  0  0  0  0  0  0  0
   44.8960  -30.5634 -104.0566 C   0  0  1  0  0  0  0  0  0  0  0  0
   44.3546  -29.2598 -104.3295 O   0  0  0  0  0  0  0  0  0  0  0  0
   45.9756  -30.7830 -105.0384 C   0  0  1  0  0  0  0  0  0  0  0  0
   46.0736  -32.1741 -105.3397 O   0  0  0  0  0  0  0  0  0  0  0  0
   45.4799  -30.0341 -106.2365 C   0  0  1  0  0  0  0  0  0  0  0  0
   44.6342  -30.8803 -107.0427 O   0  0  0  0  0  0  0  0  0  0  0  0
   44.6538  -28.8345 -105.6829 C   0  0  2  0  0  0  0  0  0  0  0  0
   50.1251  -27.4445 -102.7165 O   0  0  0  0  0  0  0  0  0  0  0  0
   48.9876  -25.8508 -106.3990 N   0  0  0  0  0  0  0  0  0  0  0  0
   48.8295  -27.1646 -106.6935 C   0  0  0  0  0  0  0  0  0  0  0  0
   47.6544  -27.7991 -106.4997 N   0  0  0  0  0  0  0  0  0  0  0  0
   46.6212  -27.1653 -105.9215 C   0  0  0  0  0  0  0  0  0  0  0  0
   46.7588  -25.7766 -105.5538 C   0  0  0  0  0  0  0  0  0  0  0  0
   48.0004  -25.1294 -105.8272 C   0  0  0  0  0  0  0  0  0  0  0  0
   48.1968  -23.8005 -105.5105 N   0  0  0  0  0  0  0  0  0  0  0  0
   45.6021  -25.3945 -104.9999 N   0  0  0  0  0  0  0  0  0  0  0  0
   44.7860  -26.4060 -104.9865 C   0  0  0  0  0  0  0  0  0  0  0  0
   45.3556  -27.5246 -105.5486 N   0  0  0  0  0  0  0  0  0  0  0  0
  2  1  1  1  0  0  0
  2  3  1  0  0  0  0
  2  5  1  0  0  0  0
  3  4  1  0  0  0  0
  3 17  1  0  0  0  0
  5  6  1  0  0  0  0
  7  6  1  6  0  0  0
  7  8  1  0  0  0  0
  7  9  1  0  0  0  0
 10  9  1  1  0  0  0
 10 11  1  0  0  0  0
 10 12  1  0  0  0  0
 11 16  1  0  0  0  0
 12 13  1  6  0  0  0
 12 14  1  0  0  0  0
 14 15  1  6  0  0  0
 14 16  1  0  0  0  0
 16 27  1  1  0  0  0
 18 19  2  0  0  0  0
 18 23  1  0  0  0  0
 19 20  1  0  0  0  0
 20 21  2  0  0  0  0
 21 22  1  0  0  0  0
 21 27  1  0  0  0  0
 22 23  2  0  0  0  0
 22 25  1  0  0  0  0
 23 24  1  0  0  0  0
 25 26  2  0  0  0  0
 26 27  1  0  0  0  0
M  END
>  <CHROM.1>
168.53198370,-90.80828840,110.50904556,32.45338701,-88.42237347,42.69712516
118.20215197,46.55777720,-28.18298059,-104.19361707,-2.66129231,-0.92590986
-1.33410806

>  <Name>
ligand

>  <RI>
0

>  <Rbt.Current_Directory>
/home/itssahil/PROJECTS/Mol_Feturizer/Test_systems_manuscript/rnas/4l81

>  <Rbt.Executable>
rbdock ($Id: //depot/dev/client3/rdock/2013.1/src/exe/rbdock.cxx#4 $)

>  <Rbt.Library>
libRbt.so (2013.1, Build901 2013/11/27)

>  <Rbt.Parameter_File>
/export/apps/rDock/src/rDock_2013.1_src/data/scripts/dock_solv.prm

>  <Rbt.Receptor>
prm/pocket_docking_4.prm

>  <SCORE>
-7.0525

>  <SCORE.INTER>
-9.38794

>  <SCORE.INTER.CONST>
1

>  <SCORE.INTER.POLAR>
0

>  <SCORE.INTER.ROT>
7

>  <SCORE.INTER.SOLV>
6.96914

>  <SCORE.INTER.VDW>
-16.8483

>  <SCORE.INTER.norm>
-0.347701

>  <SCORE.INTRA>
2.33543

>  <SCORE.INTRA.DIHEDRAL>
6.12457

>  <SCORE.INTRA.DIHEDRAL.0>
8.34559

>  <SCORE.INTRA.POLAR>
0

>  <SCORE.INTRA.POLAR.0>
0

>  <SCORE.INTRA.REPUL>
0

>  <SCORE.INTRA.REPUL.0>
0

>  <SCORE.INTRA.SOLV>
4.87755

>  <SCORE.INTRA.SOLV.lig_0>
-48.829

>  <SCORE.INTRA.VDW>
-3.16562

>  <SCORE.INTRA.VDW.0>
-1.77092

>  <SCORE.INTRA.norm>
0.0864976

>  <SCORE.RESTR>
0

>  <SCORE.RESTR.CAVITY>
0

>  <SCORE.RESTR.norm>
0

>  <SCORE.SYSTEM>
0

>  <SCORE.SYSTEM.CONST>
0

>  <SCORE.SYSTEM.DIHEDRAL>
0

>  <SCORE.SYSTEM.SOLV>
0

>  <SCORE.SYSTEM.norm>
0

>  <SCORE.heavy>
27

>  <SCORE.norm>
-0.261204

>  <RMSD>
6.087

$$$$
ligand
 OpenBabel02271912153D
libRbt.so/2013.1/901 2013/11/27
 27 29  0  0  0  0  0  0  0  0999 V2000
   49.3788  -31.6956 -106.8723 N   0  0  0  0  0  0  0  0  0  0  0  0
   50.0158  -32.3040 -105.6990 C   0  0  2  0  0  0  0  0  0  0  0  0
   49.2191  -33.5155 -105.2629 C   0  0  0  0  0  0  0  0  0  0  0  0
   48.0698  -33.3859 -104.8690 O   0  0  0  0  0  0  0  0  0  0  0  0
   50.0934  -31.3140 -104.5288 C   0  0  0  0  0  0  0  0  0  0  0  0
   50.8313  -31.9286 -103.3478 C   0  0  0  0  0  0  0  0  0  0  0  0
   50.7563  -30.9007 -101.8309 S   0  0  2  0  0  0  0  0  0  0  0  0
   51.3218  -32.0229 -100.5116 C   0  0  0  0  0  0  0  0  0  0  0  0
   48.9874  -31.0590 -101.5967 C   0  0  0  0  0  0  0  0  0  0  0  0
   48.3924  -29.9820 -100.7289 C   0  0  1  0  0  0  0  0  0  0  0  0
   48.7569  -28.7103 -101.2917 O   0  0  0  0  0  0  0  0  0  0  0  0
   46.9437  -30.1429 -100.9594 C   0  0  1  0  0  0  0  0  0  0  0  0
   46.3736  -30.9155  -99.9042 O   0  0  0  0  0  0  0  0  0  0  0  0
   46.4465  -28.7324 -100.8865 C   0  0  1  0  0  0  0  0  0  0  0  0
   46.1454  -28.3763  -99.5212 O   0  0  0  0  0  0  0  0  0  0  0  0
   47.6054  -27.8392 -101.4225 C   0  0  2  0  0  0  0  0  0  0  0  0
   49.7050  -34.6309 -105.3323 O   0  0  0  0  0  0  0  0  0  0  0  0
   50.0049  -25.8620 -105.7273 N   0  0  0  0  0  0  0  0  0  0  0  0
   50.5243  -26.0068 -104.4834 C   0  0  0  0  0  0  0  0  0  0  0  0
   49.8171  -26.5666 -103.4797 N   0  0  0  0  0  0  0  0  0  0  0  0
   48.5343  -26.9206 -103.6602 C   0  0  0  0  0  0  0  0  0  0  0  0
   47.9278  -26.7460 -104.9580 C   0  0  0  0  0  0  0  0  0  0  0  0
   48.7285  -26.2016 -106.0058 C   0  0  0  0  0  0  0  0  0  0  0  0
   48.2149  -26.0170 -107.2734 N   0  0  0  0  0  0  0  0  0  0  0  0
   46.6608  -27.1667 -104.8657 N   0  0  0  0  0  0  0  0  0  0  0  0
   46.4367  -27.5675 -103.6497 C   0  0  0  0  0  0  0  0  0  0  0  0
   47.5572  -27.4470 -102.8613 N   0  0  0  0  0  0  0  0  0  0  0  0
  2  1  1  6  0  0  0
  2  3  1  0  0  0  0
  2  5  1  0  0  0  0
  3  4  1  0  0  0  0
  3 17  1  0  0  0  0
  5  6  1  0  0  0  0
  7  6  1  6  0  0  0
  7  8  1  0  0  0  0
  7  9  1  0  0  0  0
 10  9  1  6  0  0  0
 10 11  1  0  0  0  0
 10 12  1  0  0  0  0
 11 16  1  0  0  0  0
 12 13  1  1  0  0  0
 12 14  1  0  0  0  0
 14 15  1  1  0  0  0
 14 16  1  0  0  0  0
 16 27  1  6  0  0  0
 18 19  2  0  0  0  0
 18 23  1  0  0  0  0
 19 20  1  0  0  0  0
 20 21  2  0  0  0  0
 21 22  1  0  0  0  0
 21 27  1  0  0  0  0
 22 23  2  0  0  0  0
 22 25  1  0  0  0  0
 23 24  1  0  0  0  0
 25 26  2  0  0  0  0
 26 27  1  0  0  0  0
M  END
>  <CHROM.1>
-63.59031373,-176.54403955,-171.73114977,166.19669226,-159.62155468,54.72210360
-51.76717541,48.74201826,-29.57152498,-103.25859194,-0.90687536,1.16550386
-0.72377487

>  <Name>
ligand

>  <RI>
0

>  <Rbt.Current_Directory>
/home/itssahil/PROJECTS/Mol_Feturizer/Test_systems_manuscript/rnas/4l81

>  <Rbt.Executable>
rbdock ($Id: //depot/dev/client3/rdock/2013.1/src/exe/rbdock.cxx#4 $)

>  <Rbt.Library>
libRbt.so (2013.1, Build901 2013/11/27)

>  <Rbt.Parameter_File>
/export/apps/rDock/src/rDock_2013.1_src/data/scripts/dock_solv.prm

>  <Rbt.Receptor>
prm/pocket_docking_7.prm

>  <SCORE>
-10.8583

>  <SCORE.INTER>
-8.40615

>  <SCORE.INTER.CONST>
1

>  <SCORE.INTER.POLAR>
0

>  <SCORE.INTER.ROT>
7

>  <SCORE.INTER.SOLV>
11.0861

>  <SCORE.INTER.VDW>
-17.5661

>  <SCORE.INTER.norm>
-0.311339

>  <SCORE.INTRA>
-2.4522

>  <SCORE.INTRA.DIHEDRAL>
-2.69958

>  <SCORE.INTRA.DIHEDRAL.0>
8.34559

>  <SCORE.INTRA.POLAR>
0

>  <SCORE.INTRA.POLAR.0>
0

>  <SCORE.INTRA.REPUL>
0

>  <SCORE.INTRA.REPUL.0>
0

>  <SCORE.INTRA.SOLV>
-1.28659

>  <SCORE.INTRA.SOLV.lig_0>
-48.829

>  <SCORE.INTRA.VDW>
-0.459111

>  <SCORE.INTRA.VDW.0>
-1.77092

>  <SCORE.INTRA.norm>
-0.0908221

>  <SCORE.RESTR>
0

>  <SCORE.RESTR.CAVITY>
0

>  <SCORE.RESTR.norm>
0

>  <SCORE.SYSTEM>
0

>  <SCORE.SYSTEM.CONST>
0

>  <SCORE.SYSTEM.DIHEDRAL>
0

>  <SCORE.SYSTEM.SOLV>
0

>  <SCORE.SYSTEM.norm>
0

>  <SCORE.heavy>
27

>  <SCORE.norm>
-0.402161

>  <RMSD>
6.089

$$$$
ligand
 OpenBabel02271912153D
libRbt.so/2013.1/901 2013/11/27
 27 29  0  0  0  0  0  0  0  0999 V2000
   47.3078  -33.0781 -105.8130 N   0  0  0  0  0  0  0  0  0  0  0  0
   47.8473  -32.4423 -104.6058 C   0  0  2  0  0  0  0  0  0  0  0  0
   49.1193  -33.1494 -104.1878 C   0  0  0  0  0  0  0  0  0  0  0  0
   49.7508  -32.7563 -103.2186 O   0  0  0  0  0  0  0  0  0  0  0  0
   46.8432  -32.5014 -103.4466 C   0  0  0  0  0  0  0  0  0  0  0  0
   45.6551  -31.5878 -103.7125 C   0  0  0  0  0  0  0  0  0  0  0  0
   44.6501  -31.2503 -102.2160 S   0  0  2  0  0  0  0  0  0  0  0  0
   43.2625  -30.2456 -102.8363 C   0  0  0  0  0  0  0  0  0  0  0  0
   45.6947  -29.9349 -101.5938 C   0  0  0  0  0  0  0  0  0  0  0  0
   47.1352  -30.3365 -101.4187 C   0  0  1  0  0  0  0  0  0  0  0  0
   47.8807  -29.7986 -102.5240 O   0  0  0  0  0  0  0  0  0  0  0  0
   47.5431  -29.5705 -100.2252 C   0  0  1  0  0  0  0  0  0  0  0  0
   47.4637  -30.4045  -99.0704 O   0  0  0  0  0  0  0  0  0  0  0  0
   48.9739  -29.2453 -100.5237 C   0  0  1  0  0  0  0  0  0  0  0  0
   49.8349  -30.3138 -100.0782 O   0  0  0  0  0  0  0  0  0  0  0  0
   49.0686  -29.1007 -102.0723 C   0  0  2  0  0  0  0  0  0  0  0  0
   49.5049  -34.1342 -104.7931 O   0  0  0  0  0  0  0  0  0  0  0  0
   50.2274  -25.6137 -105.9058 N   0  0  0  0  0  0  0  0  0  0  0  0
   50.6283  -26.9054 -105.8132 C   0  0  0  0  0  0  0  0  0  0  0  0
   50.2260  -27.7028 -104.8016 N   0  0  0  0  0  0  0  0  0  0  0  0
   49.4803  -27.2123 -103.7981 C   0  0  0  0  0  0  0  0  0  0  0  0
   49.0647  -25.8309 -103.8348 C   0  0  0  0  0  0  0  0  0  0  0  0
   49.4664  -25.0382 -104.9509 C   0  0  0  0  0  0  0  0  0  0  0  0
   49.0959  -23.7128 -105.0544 N   0  0  0  0  0  0  0  0  0  0  0  0
   48.3470  -25.6011 -102.7290 N   0  0  0  0  0  0  0  0  0  0  0  0
   48.2933  -26.6931 -102.0262 C   0  0  0  0  0  0  0  0  0  0  0  0
   48.9676  -27.7238 -102.6381 N   0  0  0  0  0  0  0  0  0  0  0  0
  2  1  1  6  0  0  0
  2  3  1  0  0  0  0
  2  5  1  0  0  0  0
  3  4  1  0  0  0  0
  3 17  1  0  0  0  0
  5  6  1  0  0  0  0
  7  6  1  6  0  0  0
  7  8  1  0  0  0  0
  7  9  1  0  0  0  0
 10  9  1  6  0  0  0
 10 11  1  0  0  0  0
 10 12  1  0  0  0  0
 11 16  1  0  0  0  0
 12 13  1  1  0  0  0
 12 14  1  0  0  0  0
 14 15  1  6  0  0  0
 14 16  1  0  0  0  0
 16 27  1  1  0  0  0
 18 19  2  0  0  0  0
 18 23  1  0  0  0  0
 19 20  1  0  0  0  0
 20 21  2  0  0  0  0
 21 22  1  0  0  0  0
 21 27  1  0  0  0  0
 22 23  2  0  0  0  0
 22 25  1  0  0  0  0
 23 24  1  0  0  0  0
 25 26  2  0  0  0  0
 26 27  1  0  0  0  0
M  END
>  <CHROM.1>
178.23081909,-69.82522253,-164.47766094,-176.36335710,-55.31866234,102.36970142
-93.83151568,48.00369492,-29.52229937,-103.02156699,-2.20066482,0.85267021
0.27991938

>  <Name>
ligand

>  <RI>
0

>  <Rbt.Current_Directory>
/home/itssahil/PROJECTS/Mol_Feturizer/Test_systems_manuscript/rnas/4l81

>  <Rbt.Executable>
rbdock ($Id: //depot/dev/client3/rdock/2013.1/src/exe/rbdock.cxx#4 $)

>  <Rbt.Library>
libRbt.so (2013.1, Build901 2013/11/27)

>  <Rbt.Parameter_File>
/export/apps/rDock/src/rDock_2013.1_src/data/scripts/dock_solv.prm

>  <Rbt.Receptor>
prm/pocket_docking_6.prm

>  <SCORE>
-15.212

>  <SCORE.INTER>
-15.4846

>  <SCORE.INTER.CONST>
1

>  <SCORE.INTER.POLAR>
0

>  <SCORE.INTER.ROT>
7

>  <SCORE.INTER.SOLV>
9.66449

>  <SCORE.INTER.VDW>
-21.8112

>  <SCORE.INTER.norm>
-0.573504

>  <SCORE.INTRA>
0.272607

>  <SCORE.INTRA.DIHEDRAL>
1.10821

>  <SCORE.INTRA.DIHEDRAL.0>
8.34559

>  <SCORE.INTRA.POLAR>
0

>  <SCORE.INTRA.POLAR.0>
0

>  <SCORE.INTRA.REPUL>
0

>  <SCORE.INTRA.REPUL.0>
0

>  <SCORE.INTRA.SOLV>
-0.348056

>  <SCORE.INTRA.SOLV.lig_0>
-48.829

>  <SCORE.INTRA.VDW>
-0.10747

>  <SCORE.INTRA.VDW.0>
-1.77092

>  <SCORE.INTRA.norm>
0.0100965

>  <SCORE.RESTR>
0

>  <SCORE.RESTR.CAVITY>
0

>  <SCORE.RESTR.norm>
0

>  <SCORE.SYSTEM>
0

>  <SCORE.SYSTEM.CONST>
0

>  <SCORE.SYSTEM.DIHEDRAL>
0

>  <SCORE.SYSTEM.SOLV>
0

>  <SCORE.SYSTEM.norm>
0

>  <SCORE.heavy>
27

>  <SCORE.norm>
-0.563407

>  <RMSD>
6.131

$$$$
ligand
 OpenBabel02271912153D
libRbt.so/2013.1/901 2013/11/27
 27 29  0  0  0  0  0  0  0  0999 V2000
   49.0834  -28.5327 -103.4504 N   0  0  0  0  0  0  0  0  0  0  0  0
   47.9142  -27.6579 -103.3076 C   0  0  2  0  0  0  0  0  0  0  0  0
   48.1986  -26.3233 -103.9637 C   0  0  0  0  0  0  0  0  0  0  0  0
   47.3091  -25.4939 -104.0804 O   0  0  0  0  0  0  0  0  0  0  0  0
   47.5702  -27.4213 -101.8308 C   0  0  0  0  0  0  0  0  0  0  0  0
   46.9661  -28.6721 -101.2085 C   0  0  0  0  0  0  0  0  0  0  0  0
   45.4080  -29.2044 -102.0162 S   0  0  2  0  0  0  0  0  0  0  0  0
   44.6746  -30.3743 -100.8274 C   0  0  0  0  0  0  0  0  0  0  0  0
   46.1773  -30.3784 -103.1292 C   0  0  0  0  0  0  0  0  0  0  0  0
   45.3232  -30.7373 -104.3160 C   0  0  1  0  0  0  0  0  0  0  0  0
   44.6991  -29.5324 -104.7910 O   0  0  0  0  0  0  0  0  0  0  0  0
   46.3231  -31.1202 -105.3316 C   0  0  1  0  0  0  0  0  0  0  0  0
   46.4604  -32.5400 -105.3574 O   0  0  0  0  0  0  0  0  0  0  0  0
   45.6907  -30.6445 -106.6028 C   0  0  1  0  0  0  0  0  0  0  0  0
   44.8194  -31.6608 -107.1408 O   0  0  0  0  0  0  0  0  0  0  0  0
   44.8596  -29.3820 -106.2241 C   0  0  2  0  0  0  0  0  0  0  0  0
   49.3223  -26.0529 -104.3500 O   0  0  0  0  0  0  0  0  0  0  0  0
   49.0377  -26.4917 -107.7695 N   0  0  0  0  0  0  0  0  0  0  0  0
   48.9282  -27.8428 -107.7487 C   0  0  0  0  0  0  0  0  0  0  0  0
   47.7877  -28.4569 -107.3701 N   0  0  0  0  0  0  0  0  0  0  0  0
   46.7452  -27.7439 -106.9136 C   0  0  0  0  0  0  0  0  0  0  0  0
   46.8331  -26.3039 -106.8795 C   0  0  0  0  0  0  0  0  0  0  0  0
   48.0371  -25.6935 -107.3410 C   0  0  0  0  0  0  0  0  0  0  0  0
   48.1847  -24.3213 -107.3451 N   0  0  0  0  0  0  0  0  0  0  0  0
   45.6774  -25.8457 -106.3843 N   0  0  0  0  0  0  0  0  0  0  0  0
   44.9066  -26.8553 -106.1084 C   0  0  0  0  0  0  0  0  0  0  0  0
   45.5076  -28.0524 -106.4204 N   0  0  0  0  0  0  0  0  0  0  0  0
  2  1  1  1  0  0  0
  2  3  1  0  0  0  0
  2  5  1  0  0  0  0
  3  4  1  0  0  0  0
  3 17  1  0  0  0  0
  5  6  1  0  0  0  0
  7  6  1  1  0  0  0
  7  8  1  0  0  0  0
  7  9  1  0  0  0  0
 10  9  1  1  0  0  0
 10 11  1  0  0  0  0
 10 12  1  0  0  0  0
 11 16  1  0  0  0  0
 12 13  1  6  0  0  0
 12 14  1  0  0  0  0
 14 15  1  1  0  0  0
 14 16  1  0  0  0  0
 16 27  1  1  0  0  0
 18 19  2  0  0  0  0
 18 23  1  0  0  0  0
 19 20  1  0  0  0  0
 20 21  2  0  0  0  0
 21 22  1  0  0  0  0
 21 27  1  0  0  0  0
 22 23  2  0  0  0  0
 22 25  1  0  0  0  0
 23 24  1  0  0  0  0
 25 26  2  0  0  0  0
 26 27  1  0  0  0  0
M  END
>  <CHROM.1>
172.50430925,-72.38183332,-60.79554325,-164.47323032,-160.44766700,41.36363013
114.52208572,46.67676418,-28.36510916,-104.92159785,-0.61156055,1.06021860
1.58076739

>  <Name>
ligand

>  <RI>
0

>  <Rbt.Current_Directory>
/home/itssahil/PROJECTS/Mol_Feturizer/Test_systems_manuscript/rnas/4l81

>  <Rbt.Executable>
rbdock ($Id: //depot/dev/client3/rdock/2013.1/src/exe/rbdock.cxx#4 $)

>  <Rbt.Library>
libRbt.so (2013.1, Build901 2013/11/27)

>  <Rbt.Parameter_File>
/export/apps/rDock/src/rDock_2013.1_src/data/scripts/dock_solv.prm

>  <Rbt.Receptor>
prm/pocket_docking_5.prm

>  <SCORE>
-9.92401

>  <SCORE.INTER>
-7.10402

>  <SCORE.INTER.CONST>
1

>  <SCORE.INTER.POLAR>
0

>  <SCORE.INTER.ROT>
7

>  <SCORE.INTER.SOLV>
7.77664

>  <SCORE.INTER.VDW>
-15.5949

>  <SCORE.INTER.norm>
-0.263112

>  <SCORE.INTRA>
-2.81999

>  <SCORE.INTRA.DIHEDRAL>
-0.00984846

>  <SCORE.INTRA.DIHEDRAL.0>
8.34559

>  <SCORE.INTRA.POLAR>
0

>  <SCORE.INTRA.POLAR.0>
0

>  <SCORE.INTRA.REPUL>
0

>  <SCORE.INTRA.REPUL.0>
0

>  <SCORE.INTRA.SOLV>
1.98858

>  <SCORE.INTRA.SOLV.lig_0>
-48.829

>  <SCORE.INTRA.VDW>
-3.80936

>  <SCORE.INTRA.VDW.0>
-1.77092

>  <SCORE.INTRA.norm>
-0.104444

>  <SCORE.RESTR>
0

>  <SCORE.RESTR.CAVITY>
0

>  <SCORE.RESTR.norm>
0

>  <SCORE.SYSTEM>
0

>  <SCORE.SYSTEM.CONST>
0

>  <SCORE.SYSTEM.DIHEDRAL>
0

>  <SCORE.SYSTEM.SOLV>
0

>  <SCORE.SYSTEM.norm>
0

>  <SCORE.heavy>
27

>  <SCORE.norm>
-0.367556

>  <RMSD>
6.132

$$$$
ligand
 OpenBabel02271912153D
libRbt.so/2013.1/901 2013/11/27
 27 29  0  0  0  0  0  0  0  0999 V2000
   43.8969  -28.4975 -104.1208 N   0  0  0  0  0  0  0  0  0  0  0  0
   44.7699  -29.2554 -103.2174 C   0  0  2  0  0  0  0  0  0  0  0  0
   43.9672  -30.3406 -102.5314 C   0  0  0  0  0  0  0  0  0  0  0  0
   44.4108  -31.4763 -102.4525 O   0  0  0  0  0  0  0  0  0  0  0  0
   45.3912  -28.3469 -102.1478 C   0  0  0  0  0  0  0  0  0  0  0  0
   46.7759  -28.8421 -101.7548 C   0  0  0  0  0  0  0  0  0  0  0  0
   46.7418  -30.4001 -100.7879 S   0  0  2  0  0  0  0  0  0  0  0  0
   46.3633  -29.8556  -99.0909 C   0  0  0  0  0  0  0  0  0  0  0  0
   48.5203  -30.5581 -100.6434 C   0  0  0  0  0  0  0  0  0  0  0  0
   49.2334  -30.6122 -101.9683 C   0  0  1  0  0  0  0  0  0  0  0  0
   50.6283  -30.8447 -101.7094 O   0  0  0  0  0  0  0  0  0  0  0  0
   48.7062  -31.8521 -102.5703 C   0  0  1  0  0  0  0  0  0  0  0  0
   47.6475  -31.5343 -103.4722 O   0  0  0  0  0  0  0  0  0  0  0  0
   49.8877  -32.3696 -103.3308 C   0  0  1  0  0  0  0  0  0  0  0  0
   49.9241  -31.7947 -104.6535 O   0  0  0  0  0  0  0  0  0  0  0  0
   51.1459  -31.9249 -102.5263 C   0  0  2  0  0  0  0  0  0  0  0  0
   42.8894  -30.0833 -102.0243 O   0  0  0  0  0  0  0  0  0  0  0  0
   53.0564  -36.7773 -101.5253 N   0  0  0  0  0  0  0  0  0  0  0  0
   52.5509  -36.3118 -102.6939 C   0  0  0  0  0  0  0  0  0  0  0  0
   52.1341  -35.0354 -102.8286 N   0  0  0  0  0  0  0  0  0  0  0  0
   52.1248  -34.2033 -101.7746 C   0  0  0  0  0  0  0  0  0  0  0  0
   52.6159  -34.6695 -100.5003 C   0  0  0  0  0  0  0  0  0  0  0  0
   53.0987  -36.0093 -100.4161 C   0  0  0  0  0  0  0  0  0  0  0  0
   53.5914  -36.5166  -99.2309 N   0  0  0  0  0  0  0  0  0  0  0  0
   52.4923  -33.6591  -99.6316 N   0  0  0  0  0  0  0  0  0  0  0  0
   51.9714  -32.6376 -100.2436 C   0  0  0  0  0  0  0  0  0  0  0  0
   51.7297  -32.9102 -101.5699 N   0  0  0  0  0  0  0  0  0  0  0  0
  2  1  1  6  0  0  0
  2  3  1  0  0  0  0
  2  5  1  0  0  0  0
  3  4  1  0  0  0  0
  3 17  1  0  0  0  0
  5  6  1  0  0  0  0
  7  6  1  6  0  0  0
  7  8  1  0  0  0  0
  7  9  1  0  0  0  0
 10  9  1  1  0  0  0
 10 11  1  0  0  0  0
 10 12  1  0  0  0  0
 11 16  1  0  0  0  0
 12 13  1  6  0  0  0
 12 14  1  0  0  0  0
 14 15  1  6  0  0  0
 14 16  1  0  0  0  0
 16 27  1  1  0  0  0
 18 19  2  0  0  0  0
 18 23  1  0  0  0  0
 19 20  1  0  0  0  0
 20 21  2  0  0  0  0
 21 22  1  0  0  0  0
 21 27  1  0  0  0  0
 22 23  2  0  0  0  0
 22 25  1  0  0  0  0
 23 24  1  0  0  0  0
 25 26  2  0  0  0  0
 26 27  1  0  0  0  0
M  END
>  <CHROM.1>
134.20819121,-148.08046413,-70.69999410,-80.89560575,-58.05332502,-175.50612787
166.61188335,48.89711268,-31.96509137,-101.80426538,3.14027032,-0.61902984
1.36459911

>  <Name>
ligand

>  <RI>
0

>  <Rbt.Current_Directory>
/home/itssahil/PROJECTS/Mol_Feturizer/Test_systems_manuscript/rnas/4l81

>  <Rbt.Executable>
rbdock ($Id: //depot/dev/client3/rdock/2013.1/src/exe/rbdock.cxx#4 $)

>  <Rbt.Library>
libRbt.so (2013.1, Build901 2013/11/27)

>  <Rbt.Parameter_File>
/export/apps/rDock/src/rDock_2013.1_src/data/scripts/dock_solv.prm

>  <Rbt.Receptor>
prm/pocket_docking_7.prm

>  <SCORE>
-20.8873

>  <SCORE.INTER>
-19.273

>  <SCORE.INTER.CONST>
1

>  <SCORE.INTER.POLAR>
0

>  <SCORE.INTER.ROT>
7

>  <SCORE.INTER.SOLV>
10.3089

>  <SCORE.INTER.VDW>
-24.5516

>  <SCORE.INTER.norm>
-0.713815

>  <SCORE.INTRA>
-1.61429

>  <SCORE.INTRA.DIHEDRAL>
-0.776983

>  <SCORE.INTRA.DIHEDRAL.0>
8.34559

>  <SCORE.INTRA.POLAR>
0

>  <SCORE.INTRA.POLAR.0>
0

>  <SCORE.INTRA.REPUL>
0

>  <SCORE.INTRA.REPUL.0>
0

>  <SCORE.INTRA.SOLV>
-0.58756

>  <SCORE.INTRA.SOLV.lig_0>
-48.829

>  <SCORE.INTRA.VDW>
-0.932024

>  <SCORE.INTRA.VDW.0>
-1.77092

>  <SCORE.INTRA.norm>
-0.0597887

>  <SCORE.RESTR>
0

>  <SCORE.RESTR.CAVITY>
0

>  <SCORE.RESTR.norm>
0

>  <SCORE.SYSTEM>
0

>  <SCORE.SYSTEM.CONST>
0

>  <SCORE.SYSTEM.DIHEDRAL>
0

>  <SCORE.SYSTEM.SOLV>
0

>  <SCORE.SYSTEM.norm>
0

>  <SCORE.heavy>
27

>  <SCORE.norm>
-0.773603

>  <RMSD>
6.146

$$$$
ligand
 OpenBabel02271912153D
libRbt.so/2013.1/901 2013/11/27
 27 29  0  0  0  0  0  0  0  0999 V2000
   49.7047  -32.2129 -107.3734 N   0  0  0  0  0  0  0  0  0  0  0  0
   50.0659  -32.4510 -105.9714 C   0  0  2  0  0  0  0  0  0  0  0  0
   49.6200  -33.8393 -105.5635 C   0  0  0  0  0  0  0  0  0  0  0  0
   48.7551  -34.4194 -106.2023 O   0  0  0  0  0  0  0  0  0  0  0  0
   49.4045  -31.4245 -105.0418 C   0  0  0  0  0  0  0  0  0  0  0  0
   49.9277  -31.5662 -103.6194 C   0  0  0  0  0  0  0  0  0  0  0  0
   49.2030  -30.3485 -102.4551 S   0  0  2  0  0  0  0  0  0  0  0  0
   49.7818  -30.9062 -100.8200 C   0  0  0  0  0  0  0  0  0  0  0  0
   47.5651  -31.0736 -102.4368 C   0  0  0  0  0  0  0  0  0  0  0  0
   46.6210  -30.4132 -101.4676 C   0  0  1  0  0  0  0  0  0  0  0  0
   47.0411  -29.0482 -101.3030 O   0  0  0  0  0  0  0  0  0  0  0  0
   45.3544  -30.3740 -102.2239 C   0  0  1  0  0  0  0  0  0  0  0  0
   44.5321  -31.4744 -101.8388 O   0  0  0  0  0  0  0  0  0  0  0  0
   44.7404  -29.0898 -101.7591 C   0  0  1  0  0  0  0  0  0  0  0  0
   43.9674  -29.3079 -100.5607 O   0  0  0  0  0  0  0  0  0  0  0  0
   45.9293  -28.1299 -101.4539 C   0  0  2  0  0  0  0  0  0  0  0  0
   50.1423  -34.4015 -104.6169 O   0  0  0  0  0  0  0  0  0  0  0  0
   44.7559  -25.4106 -105.8615 N   0  0  0  0  0  0  0  0  0  0  0  0
   43.9621  -26.2804 -105.1898 C   0  0  0  0  0  0  0  0  0  0  0  0
   44.3689  -26.8780 -104.0503 N   0  0  0  0  0  0  0  0  0  0  0  0
   45.6171  -26.6958 -103.5894 C   0  0  0  0  0  0  0  0  0  0  0  0
   46.5103  -25.8098 -104.2961 C   0  0  0  0  0  0  0  0  0  0  0  0
   46.0210  -25.1556 -105.4657 C   0  0  0  0  0  0  0  0  0  0  0  0
   46.8185  -24.2880 -106.1840 N   0  0  0  0  0  0  0  0  0  0  0  0
   47.6759  -25.8114 -103.6388 N   0  0  0  0  0  0  0  0  0  0  0  0
   47.5834  -26.6099 -102.6174 C   0  0  0  0  0  0  0  0  0  0  0  0
   46.3343  -27.1791 -102.5301 N   0  0  0  0  0  0  0  0  0  0  0  0
  2  1  1  6  0  0  0
  2  3  1  0  0  0  0
  2  5  1  0  0  0  0
  3  4  1  0  0  0  0
  3 17  1  0  0  0  0
  5  6  1  0  0  0  0
  7  6  1  6  0  0  0
  7  8  1  0  0  0  0
  7  9  1  0  0  0  0
 10  9  1  6  0  0  0
 10 11  1  0  0  0  0
 10 12  1  0  0  0  0
 11 16  1  0  0  0  0
 12 13  1  1  0  0  0
 12 14  1  0  0  0  0
 14 15  1  1  0  0  0
 14 16  1  0  0  0  0
 16 27  1  6  0  0  0
 18 19  2  0  0  0  0
 18 23  1  0  0  0  0
 19 20  1  0  0  0  0
 20 21  2  0  0  0  0
 21 22  1  0  0  0  0
 21 27  1  0  0  0  0
 22 23  2  0  0  0  0
 22 25  1  0  0  0  0
 23 24  1  0  0  0  0
 25 26  2  0  0  0  0
 26 27  1  0  0  0  0
M  END
>  <CHROM.1>
-20.18841536,-172.56184196,178.93734372,171.24188967,175.24589866,27.35732800
136.20473649,47.23392864,-29.44542238,-103.54216521,-0.56609857,0.91290212
-0.77197917

>  <Name>
ligand

>  <RI>
0

>  <Rbt.Current_Directory>
/home/itssahil/PROJECTS/Mol_Feturizer/Test_systems_manuscript/rnas/4l81

>  <Rbt.Executable>
rbdock ($Id: //depot/dev/client3/rdock/2013.1/src/exe/rbdock.cxx#4 $)

>  <Rbt.Library>
libRbt.so (2013.1, Build901 2013/11/27)

>  <Rbt.Parameter_File>
/export/apps/rDock/src/rDock_2013.1_src/data/scripts/dock_solv.prm

>  <Rbt.Receptor>
prm/pocket_docking_7.prm

>  <SCORE>
-13.45

>  <SCORE.INTER>
-12.0104

>  <SCORE.INTER.CONST>
1

>  <SCORE.INTER.POLAR>
0

>  <SCORE.INTER.ROT>
7

>  <SCORE.INTER.SOLV>
11.382

>  <SCORE.INTER.VDW>
-20.0676

>  <SCORE.INTER.norm>
-0.444829

>  <SCORE.INTRA>
-1.43961

>  <SCORE.INTRA.DIHEDRAL>
-1.98282

>  <SCORE.INTRA.DIHEDRAL.0>
8.34559

>  <SCORE.INTRA.POLAR>
0

>  <SCORE.INTRA.POLAR.0>
0

>  <SCORE.INTRA.REPUL>
0

>  <SCORE.INTRA.REPUL.0>
0

>  <SCORE.INTRA.SOLV>
-1.188

>  <SCORE.INTRA.SOLV.lig_0>
-48.829

>  <SCORE.INTRA.VDW>
0.145797

>  <SCORE.INTRA.VDW.0>
-1.77092

>  <SCORE.INTRA.norm>
-0.053319

>  <SCORE.RESTR>
0

>  <SCORE.RESTR.CAVITY>
0

>  <SCORE.RESTR.norm>
0

>  <SCORE.SYSTEM>
0

>  <SCORE.SYSTEM.CONST>
0

>  <SCORE.SYSTEM.DIHEDRAL>
0

>  <SCORE.SYSTEM.SOLV>
0

>  <SCORE.SYSTEM.norm>
0

>  <SCORE.heavy>
27

>  <SCORE.norm>
-0.498148

>  <RMSD>
6.147

$$$$
ligand
 OpenBabel02271912153D
libRbt.so/2013.1/901 2013/11/27
 27 29  0  0  0  0  0  0  0  0999 V2000
   48.4486  -28.0041 -102.8324 N   0  0  0  0  0  0  0  0  0  0  0  0
   48.6659  -26.5535 -102.8665 C   0  0  2  0  0  0  0  0  0  0  0  0
   47.3387  -25.8479 -103.0492 C   0  0  0  0  0  0  0  0  0  0  0  0
   46.3412  -26.4843 -103.3536 O   0  0  0  0  0  0  0  0  0  0  0  0
   49.6017  -26.1553 -104.0159 C   0  0  0  0  0  0  0  0  0  0  0  0
   49.9963  -24.6891 -103.9095 C   0  0  0  0  0  0  0  0  0  0  0  0
   50.8139  -24.0463 -105.4200 S   0  0  2  0  0  0  0  0  0  0  0  0
   51.0040  -22.2642 -105.0919 C   0  0  0  0  0  0  0  0  0  0  0  0
   49.3268  -23.9923 -106.4173 C   0  0  0  0  0  0  0  0  0  0  0  0
   49.4348  -24.7597 -107.7081 C   0  0  1  0  0  0  0  0  0  0  0  0
   49.3428  -26.1605 -107.3977 O   0  0  0  0  0  0  0  0  0  0  0  0
   48.1840  -24.4014 -108.4044 C   0  0  1  0  0  0  0  0  0  0  0  0
   48.4381  -23.3507 -109.3354 O   0  0  0  0  0  0  0  0  0  0  0  0
   47.8493  -25.6637 -109.1370 C   0  0  1  0  0  0  0  0  0  0  0  0
   48.5060  -25.6879 -110.4213 O   0  0  0  0  0  0  0  0  0  0  0  0
   48.3797  -26.8299 -108.2500 C   0  0  2  0  0  0  0  0  0  0  0  0
   47.2477  -24.6472 -102.8621 O   0  0  0  0  0  0  0  0  0  0  0  0
   44.0917  -26.5271 -105.1323 N   0  0  0  0  0  0  0  0  0  0  0  0
   44.6828  -25.5238 -105.8264 C   0  0  0  0  0  0  0  0  0  0  0  0
   45.7510  -25.7436 -106.6211 N   0  0  0  0  0  0  0  0  0  0  0  0
   46.3215  -26.9579 -106.6811 C   0  0  0  0  0  0  0  0  0  0  0  0
   45.7497  -28.0467 -105.9260 C   0  0  0  0  0  0  0  0  0  0  0  0
   44.5874  -27.7826 -105.1420 C   0  0  0  0  0  0  0  0  0  0  0  0
   43.9837  -28.7800 -104.4034 N   0  0  0  0  0  0  0  0  0  0  0  0
   46.5022  -29.1292 -106.1554 N   0  0  0  0  0  0  0  0  0  0  0  0
   47.4706  -28.8073 -106.9604 C   0  0  0  0  0  0  0  0  0  0  0  0
   47.4075  -27.4827 -107.3253 N   0  0  0  0  0  0  0  0  0  0  0  0
  2  1  1  6  0  0  0
  2  3  1  0  0  0  0
  2  5  1  0  0  0  0
  3  4  1  0  0  0  0
  3 17  1  0  0  0  0
  5  6  1  0  0  0  0
  7  6  1  1  0  0  0
  7  8  1  0  0  0  0
  7  9  1  0  0  0  0
 10  9  1  1  0  0  0
 10 11  1  0  0  0  0
 10 12  1  0  0  0  0
 11 16  1  0  0  0  0
 12 13  1  6  0  0  0
 12 14  1  0  0  0  0
 14 15  1  6  0  0  0
 14 16  1  0  0  0  0
 16 27  1  1  0  0  0
 18 19  2  0  0  0  0
 18 23  1  0  0  0  0
 19 20  1  0  0  0  0
 20 21  2  0  0  0  0
 21 22  1  0  0  0  0
 21 27  1  0  0  0  0
 22 23  2  0  0  0  0
 22 25  1  0  0  0  0
 23 24  1  0  0  0  0
 25 26  2  0  0  0  0
 26 27  1  0  0  0  0
M  END
>  <CHROM.1>
-11.64452279,-170.96777043,-167.78319383,174.00724598,-124.77909677,75.38025207
82.20908382,47.81397463,-25.93304275,-105.93544936,-2.72124341,-0.66636973
-1.51023344

>  <Name>
ligand

>  <RI>
0

>  <Rbt.Current_Directory>
/home/itssahil/PROJECTS/Mol_Feturizer/Test_systems_manuscript/rnas/4l81

>  <Rbt.Executable>
rbdock ($Id: //depot/dev/client3/rdock/2013.1/src/exe/rbdock.cxx#4 $)

>  <Rbt.Library>
libRbt.so (2013.1, Build901 2013/11/27)

>  <Rbt.Parameter_File>
/export/apps/rDock/src/rDock_2013.1_src/data/scripts/dock_solv.prm

>  <Rbt.Receptor>
prm/pocket_docking_6.prm

>  <SCORE>
-13.7325

>  <SCORE.INTER>
-10.5911

>  <SCORE.INTER.CONST>
1

>  <SCORE.INTER.POLAR>
0

>  <SCORE.INTER.ROT>
7

>  <SCORE.INTER.SOLV>
12.3745

>  <SCORE.INTER.VDW>
-19.4523

>  <SCORE.INTER.norm>
-0.392265

>  <SCORE.INTRA>
-3.14137

>  <SCORE.INTRA.DIHEDRAL>
1.08096

>  <SCORE.INTRA.DIHEDRAL.0>
8.34559

>  <SCORE.INTRA.POLAR>
0

>  <SCORE.INTRA.POLAR.0>
0

>  <SCORE.INTRA.REPUL>
0

>  <SCORE.INTRA.REPUL.0>
0

>  <SCORE.INTRA.SOLV>
-0.705244

>  <SCORE.INTRA.SOLV.lig_0>
-48.829

>  <SCORE.INTRA.VDW>
-3.32923

>  <SCORE.INTRA.VDW.0>
-1.77092

>  <SCORE.INTRA.norm>
-0.116347

>  <SCORE.RESTR>
0

>  <SCORE.RESTR.CAVITY>
0

>  <SCORE.RESTR.norm>
0

>  <SCORE.SYSTEM>
0

>  <SCORE.SYSTEM.CONST>
0

>  <SCORE.SYSTEM.DIHEDRAL>
0

>  <SCORE.SYSTEM.SOLV>
0

>  <SCORE.SYSTEM.norm>
0

>  <SCORE.heavy>
27

>  <SCORE.norm>
-0.508612

>  <RMSD>
6.194

$$$$
ligand
 OpenBabel02271912153D
libRbt.so/2013.1/901 2013/11/27
 27 29  0  0  0  0  0  0  0  0999 V2000
   50.5264  -33.0977 -102.7847 N   0  0  0  0  0  0  0  0  0  0  0  0
   50.6192  -31.6794 -102.4206 C   0  0  2  0  0  0  0  0  0  0  0  0
   51.0607  -31.5561 -100.9775 C   0  0  0  0  0  0  0  0  0  0  0  0
   51.5308  -32.5211 -100.3941 O   0  0  0  0  0  0  0  0  0  0  0  0
   49.2688  -30.9698 -102.5885 C   0  0  0  0  0  0  0  0  0  0  0  0
   48.7279  -31.1619 -103.9983 C   0  0  0  0  0  0  0  0  0  0  0  0
   47.7606  -32.7070 -104.1999 S   0  0  2  0  0  0  0  0  0  0  0  0
   47.7981  -33.0174 -105.9949 C   0  0  0  0  0  0  0  0  0  0  0  0
   46.1527  -31.9262 -104.0823 C   0  0  0  0  0  0  0  0  0  0  0  0
   45.7261  -31.6276 -102.6696 C   0  0  1  0  0  0  0  0  0  0  0  0
   46.5772  -30.5858 -102.1625 O   0  0  0  0  0  0  0  0  0  0  0  0
   44.3912  -31.0262 -102.8538 C   0  0  1  0  0  0  0  0  0  0  0  0
   43.3863  -32.0179 -102.6484 O   0  0  0  0  0  0  0  0  0  0  0  0
   44.3399  -30.0109 -101.7544 C   0  0  1  0  0  0  0  0  0  0  0  0
   43.8524  -30.6132 -100.5375 O   0  0  0  0  0  0  0  0  0  0  0  0
   45.8052  -29.5213 -101.5518 C   0  0  2  0  0  0  0  0  0  0  0  0
   50.9818  -30.4872 -100.3976 O   0  0  0  0  0  0  0  0  0  0  0  0
   44.7646  -25.6905 -105.0789 N   0  0  0  0  0  0  0  0  0  0  0  0
   43.9976  -26.7663 -104.7751 C   0  0  0  0  0  0  0  0  0  0  0  0
   44.3601  -27.6500 -103.8218 N   0  0  0  0  0  0  0  0  0  0  0  0
   45.5452  -27.5390 -103.2001 C   0  0  0  0  0  0  0  0  0  0  0  0
   46.4124  -26.4314 -103.5221 C   0  0  0  0  0  0  0  0  0  0  0  0
   45.9655  -25.4897 -104.4962 C   0  0  0  0  0  0  0  0  0  0  0  0
   46.7403  -24.4020 -104.8445 N   0  0  0  0  0  0  0  0  0  0  0  0
   47.5156  -26.5587 -102.7754 N   0  0  0  0  0  0  0  0  0  0  0  0
   47.4097  -27.6286 -102.0450 C   0  0  0  0  0  0  0  0  0  0  0  0
   46.2125  -28.2714 -102.2575 N   0  0  0  0  0  0  0  0  0  0  0  0
  2  1  1  1  0  0  0
  2  3  1  0  0  0  0
  2  5  1  0  0  0  0
  3  4  1  0  0  0  0
  3 17  1  0  0  0  0
  5  6  1  0  0  0  0
  7  6  1  6  0  0  0
  7  8  1  0  0  0  0
  7  9  1  0  0  0  0
 10  9  1  6  0  0  0
 10 11  1  0  0  0  0
 10 12  1  0  0  0  0
 11 16  1  0  0  0  0
 12 13  1  1  0  0  0
 12 14  1  0  0  0  0
 14 15  1  1  0  0  0
 14 16  1  0  0  0  0
 16 27  1  6  0  0  0
 18 19  2  0  0  0  0
 18 23  1  0  0  0  0
 19 20  1  0  0  0  0
 20 21  2  0  0  0  0
 21 22  1  0  0  0  0
 21 27  1  0  0  0  0
 22 23  2  0  0  0  0
 22 25  1  0  0  0  0
 23 24  1  0  0  0  0
 25 26  2  0  0  0  0
 26 27  1  0  0  0  0
M  END
>  <CHROM.1>
14.57491137,-54.63141022,86.38315470,-158.84478304,-79.84320166,68.74307633
104.84295498,47.00650138,-29.90536829,-102.94476559,-0.86919714,-0.19886927
-0.10173575

>  <Name>
ligand

>  <RI>
0

>  <Rbt.Current_Directory>
/home/itssahil/PROJECTS/Mol_Feturizer/Test_systems_manuscript/rnas/4l81

>  <Rbt.Executable>
rbdock ($Id: //depot/dev/client3/rdock/2013.1/src/exe/rbdock.cxx#4 $)

>  <Rbt.Library>
libRbt.so (2013.1, Build901 2013/11/27)

>  <Rbt.Parameter_File>
/export/apps/rDock/src/rDock_2013.1_src/data/scripts/dock_solv.prm

>  <Rbt.Receptor>
prm/pocket_docking_5.prm

>  <SCORE>
-15.4208

>  <SCORE.INTER>
-15.6397

>  <SCORE.INTER.CONST>
1

>  <SCORE.INTER.POLAR>
0

>  <SCORE.INTER.ROT>
7

>  <SCORE.INTER.SOLV>
13.9639

>  <SCORE.INTER.VDW>
-23.3478

>  <SCORE.INTER.norm>
-0.579248

>  <SCORE.INTRA>
0.210409

>  <SCORE.INTRA.DIHEDRAL>
0.14236

>  <SCORE.INTRA.DIHEDRAL.0>
8.34559

>  <SCORE.INTRA.POLAR>
0

>  <SCORE.INTRA.POLAR.0>
0

>  <SCORE.INTRA.REPUL>
0

>  <SCORE.INTRA.REPUL.0>
0

>  <SCORE.INTRA.SOLV>
1.18272

>  <SCORE.INTRA.SOLV.lig_0>
-48.829

>  <SCORE.INTRA.VDW>
-0.452133

>  <SCORE.INTRA.VDW.0>
-1.77092

>  <SCORE.INTRA.norm>
0.00779292

>  <SCORE.RESTR>
0.00843583

>  <SCORE.RESTR.CAVITY>
0.00843583

>  <SCORE.RESTR.norm>
0.000312438

>  <SCORE.SYSTEM>
0

>  <SCORE.SYSTEM.CONST>
0

>  <SCORE.SYSTEM.DIHEDRAL>
0

>  <SCORE.SYSTEM.SOLV>
0

>  <SCORE.SYSTEM.norm>
0

>  <SCORE.heavy>
27

>  <SCORE.norm>
-0.571143

>  <RMSD>
6.196

$$$$
ligand
 OpenBabel02271912153D
libRbt.so/2013.1/901 2013/11/27
 27 29  0  0  0  0  0  0  0  0999 V2000
   51.6853  -34.7873 -105.7746 N   0  0  0  0  0  0  0  0  0  0  0  0
   50.4874  -33.9407 -105.8055 C   0  0  2  0  0  0  0  0  0  0  0  0
   50.3134  -33.3620 -107.1938 C   0  0  0  0  0  0  0  0  0  0  0  0
   51.0923  -33.6612 -108.0863 O   0  0  0  0  0  0  0  0  0  0  0  0
   50.5913  -32.7882 -104.7973 C   0  0  0  0  0  0  0  0  0  0  0  0
   49.2086  -32.3050 -104.3832 C   0  0  0  0  0  0  0  0  0  0  0  0
   49.2536  -30.9066 -103.1975 S   0  0  2  0  0  0  0  0  0  0  0  0
   50.1303  -31.5850 -101.7515 C   0  0  0  0  0  0  0  0  0  0  0  0
   47.5682  -31.1057 -102.6244 C   0  0  0  0  0  0  0  0  0  0  0  0
   47.2659  -30.3504 -101.3574 C   0  0  1  0  0  0  0  0  0  0  0  0
   47.9120  -29.0690 -101.4428 O   0  0  0  0  0  0  0  0  0  0  0  0
   45.8163  -30.0974 -101.4684 C   0  0  1  0  0  0  0  0  0  0  0  0
   45.1001  -31.0788 -100.7205 O   0  0  0  0  0  0  0  0  0  0  0  0
   45.6722  -28.7553 -100.8203 C   0  0  1  0  0  0  0  0  0  0  0  0
   45.4933  -28.9021  -99.3963 O   0  0  0  0  0  0  0  0  0  0  0  0
   46.9995  -27.9924 -101.1105 C   0  0  2  0  0  0  0  0  0  0  0  0
   49.3780  -32.6210 -107.4404 O   0  0  0  0  0  0  0  0  0  0  0  0
   44.5748  -25.9118 -105.3520 N   0  0  0  0  0  0  0  0  0  0  0  0
   44.0980  -26.8599 -104.5083 C   0  0  0  0  0  0  0  0  0  0  0  0
   44.8033  -27.2749 -103.4354 N   0  0  0  0  0  0  0  0  0  0  0  0
   46.0484  -26.8214 -103.2173 C   0  0  0  0  0  0  0  0  0  0  0  0
   46.6120  -25.8413 -104.1141 C   0  0  0  0  0  0  0  0  0  0  0  0
   45.8105  -25.3891 -105.2042 C   0  0  0  0  0  0  0  0  0  0  0  0
   46.2835  -24.4462 -106.0941 N   0  0  0  0  0  0  0  0  0  0  0  0
   47.8478  -25.5675 -103.6796 N   0  0  0  0  0  0  0  0  0  0  0  0
   48.0921  -26.2839 -102.6229 C   0  0  0  0  0  0  0  0  0  0  0  0
   47.0167  -27.0718 -102.2847 N   0  0  0  0  0  0  0  0  0  0  0  0
  2  1  1  6  0  0  0
  2  3  1  0  0  0  0
  2  5  1  0  0  0  0
  3  4  1  0  0  0  0
  3 17  1  0  0  0  0
  5  6  1  0  0  0  0
  7  6  1  6  0  0  0
  7  8  1  0  0  0  0
  7  9  1  0  0  0  0
 10  9  1  6  0  0  0
 10 11  1  0  0  0  0
 10 12  1  0  0  0  0
 11 16  1  0  0  0  0
 12 13  1  1  0  0  0
 12 14  1  0  0  0  0
 14 15  1  1  0  0  0
 14 16  1  0  0  0  0
 16 27  1  6  0  0  0
 18 19  2  0  0  0  0
 18 23  1  0  0  0  0
 19 20  1  0  0  0  0
 20 21  2  0  0  0  0
 21 22  1  0  0  0  0
 21 27  1  0  0  0  0
 22 23  2  0  0  0  0
 22 25  1  0  0  0  0
 23 24  1  0  0  0  0
 25 26  2  0  0  0  0
 26 27  1  0  0  0  0
M  END
>  <CHROM.1>
2.11435192,-155.11382061,-179.04891050,-60.80505676,165.44662051,40.30963769
109.93202287,47.71483654,-29.60347229,-103.58835369,0.11986317,-0.99024037
2.11671814

>  <Name>
ligand

>  <RI>
0

>  <Rbt.Current_Directory>
/home/itssahil/PROJECTS/Mol_Feturizer/Test_systems_manuscript/rnas/4l81

>  <Rbt.Executable>
rbdock ($Id: //depot/dev/client3/rdock/2013.1/src/exe/rbdock.cxx#4 $)

>  <Rbt.Library>
libRbt.so (2013.1, Build901 2013/11/27)

>  <Rbt.Parameter_File>
/export/apps/rDock/src/rDock_2013.1_src/data/scripts/dock_solv.prm

>  <Rbt.Receptor>
prm/pocket_docking_7.prm

>  <SCORE>
-11.7433

>  <SCORE.INTER>
-10.5083

>  <SCORE.INTER.CONST>
1

>  <SCORE.INTER.POLAR>
0

>  <SCORE.INTER.ROT>
7

>  <SCORE.INTER.SOLV>
12.1931

>  <SCORE.INTER.VDW>
-19.3365

>  <SCORE.INTER.norm>
-0.389195

>  <SCORE.INTRA>
-1.23506

>  <SCORE.INTRA.DIHEDRAL>
-1.38638

>  <SCORE.INTRA.DIHEDRAL.0>
8.34559

>  <SCORE.INTRA.POLAR>
0

>  <SCORE.INTRA.POLAR.0>
0

>  <SCORE.INTRA.REPUL>
0

>  <SCORE.INTRA.REPUL.0>
0

>  <SCORE.INTRA.SOLV>
-1.19242

>  <SCORE.INTRA.SOLV.lig_0>
-48.829

>  <SCORE.INTRA.VDW>
0.0543414

>  <SCORE.INTRA.VDW.0>
-1.77092

>  <SCORE.INTRA.norm>
-0.0457429

>  <SCORE.RESTR>
0

>  <SCORE.RESTR.CAVITY>
0

>  <SCORE.RESTR.norm>
0

>  <SCORE.SYSTEM>
0

>  <SCORE.SYSTEM.CONST>
0

>  <SCORE.SYSTEM.DIHEDRAL>
0

>  <SCORE.SYSTEM.SOLV>
0

>  <SCORE.SYSTEM.norm>
0

>  <SCORE.heavy>
27

>  <SCORE.norm>
-0.434938

>  <RMSD>
6.219

$$$$
ligand
 OpenBabel02271912153D
libRbt.so/2013.1/901 2013/11/27
 27 29  0  0  0  0  0  0  0  0999 V2000
   46.7920  -24.2950 -110.8907 N   0  0  0  0  0  0  0  0  0  0  0  0
   47.7507  -25.2354 -110.2996 C   0  0  2  0  0  0  0  0  0  0  0  0
   48.3349  -26.1119 -111.3873 C   0  0  0  0  0  0  0  0  0  0  0  0
   47.6733  -26.3858 -112.3773 O   0  0  0  0  0  0  0  0  0  0  0  0
   47.0802  -26.1302 -109.2483 C   0  0  0  0  0  0  0  0  0  0  0  0
   48.1234  -26.8456 -108.4017 C   0  0  0  0  0  0  0  0  0  0  0  0
   47.3945  -27.8984 -107.0888 S   0  0  2  0  0  0  0  0  0  0  0  0
   46.4668  -26.7246 -106.0490 C   0  0  0  0  0  0  0  0  0  0  0  0
   48.8896  -28.0217 -106.1099 C   0  0  0  0  0  0  0  0  0  0  0  0
   48.6755  -28.6344 -104.7513 C   0  0  1  0  0  0  0  0  0  0  0  0
   48.2542  -29.9956 -104.9426 O   0  0  0  0  0  0  0  0  0  0  0  0
   50.0439  -28.6922 -104.2019 C   0  0  1  0  0  0  0  0  0  0  0  0
   50.2657  -27.5699 -103.3495 O   0  0  0  0  0  0  0  0  0  0  0  0
   50.0138  -29.9512 -103.3920 C   0  0  1  0  0  0  0  0  0  0  0  0
   49.5367  -29.6786 -102.0581 O   0  0  0  0  0  0  0  0  0  0  0  0
   49.0247  -30.9090 -104.1217 C   0  0  2  0  0  0  0  0  0  0  0  0
   49.4787  -26.5230 -111.3003 O   0  0  0  0  0  0  0  0  0  0  0  0
   50.0180  -32.4945 -109.0914 N   0  0  0  0  0  0  0  0  0  0  0  0
   49.3373  -31.3911 -108.6952 C   0  0  0  0  0  0  0  0  0  0  0  0
   49.1904  -31.0779 -107.3909 N   0  0  0  0  0  0  0  0  0  0  0  0
   49.6423  -31.9039 -106.4332 C   0  0  0  0  0  0  0  0  0  0  0  0
   50.3373  -33.1112 -106.8099 C   0  0  0  0  0  0  0  0  0  0  0  0
   50.5189  -33.3757 -108.2000 C   0  0  0  0  0  0  0  0  0  0  0  0
   51.1828  -34.5066 -108.6299 N   0  0  0  0  0  0  0  0  0  0  0  0
   50.6720  -33.7471 -105.6810 N   0  0  0  0  0  0  0  0  0  0  0  0
   50.2456  -33.0570 -104.6655 C   0  0  0  0  0  0  0  0  0  0  0  0
   49.6090  -31.9055 -105.0662 N   0  0  0  0  0  0  0  0  0  0  0  0
  2  1  1  6  0  0  0
  2  3  1  0  0  0  0
  2  5  1  0  0  0  0
  3  4  1  0  0  0  0
  3 17  1  0  0  0  0
  5  6  1  0  0  0  0
  7  6  1  6  0  0  0
  7  8  1  0  0  0  0
  7  9  1  0  0  0  0
 10  9  1  6  0  0  0
 10 11  1  0  0  0  0
 10 12  1  0  0  0  0
 11 16  1  0  0  0  0
 12 13  1  1  0  0  0
 12 14  1  0  0  0  0
 14 15  1  1  0  0  0
 14 16  1  0  0  0  0
 16 27  1  6  0  0  0
 18 19  2  0  0  0  0
 18 23  1  0  0  0  0
 19 20  1  0  0  0  0
 20 21  2  0  0  0  0
 21 22  1  0  0  0  0
 21 27  1  0  0  0  0
 22 23  2  0  0  0  0
 22 25  1  0  0  0  0
 23 24  1  0  0  0  0
 25 26  2  0  0  0  0
 26 27  1  0  0  0  0
M  END
>  <CHROM.1>
-30.18099050,-165.73532880,178.33409170,-61.17886747,169.68545123,64.45877864
9.96609954,48.95181723,-29.31821005,-107.05479157,2.54335345,1.21383316,-1.63799296

>  <Name>
ligand

>  <RI>
0

>  <Rbt.Current_Directory>
/home/itssahil/PROJECTS/Mol_Feturizer/Test_systems_manuscript/rnas/4l81

>  <Rbt.Executable>
rbdock ($Id: //depot/dev/client3/rdock/2013.1/src/exe/rbdock.cxx#4 $)

>  <Rbt.Library>
libRbt.so (2013.1, Build901 2013/11/27)

>  <Rbt.Parameter_File>
/export/apps/rDock/src/rDock_2013.1_src/data/scripts/dock_solv.prm

>  <Rbt.Receptor>
prm/pocket_docking_8.prm

>  <SCORE>
-14.5018

>  <SCORE.INTER>
-10.9272

>  <SCORE.INTER.CONST>
1

>  <SCORE.INTER.POLAR>
0

>  <SCORE.INTER.ROT>
7

>  <SCORE.INTER.SOLV>
8.81826

>  <SCORE.INTER.VDW>
-18.4909

>  <SCORE.INTER.norm>
-0.404712

>  <SCORE.INTRA>
-3.57543

>  <SCORE.INTRA.DIHEDRAL>
-3.92115

>  <SCORE.INTRA.DIHEDRAL.0>
8.34559

>  <SCORE.INTRA.POLAR>
0

>  <SCORE.INTRA.POLAR.0>
0

>  <SCORE.INTRA.REPUL>
0

>  <SCORE.INTRA.REPUL.0>
0

>  <SCORE.INTRA.SOLV>
-1.25423

>  <SCORE.INTRA.SOLV.lig_0>
-48.829

>  <SCORE.INTRA.VDW>
-0.987737

>  <SCORE.INTRA.VDW.0>
-1.77092

>  <SCORE.INTRA.norm>
-0.132423

>  <SCORE.RESTR>
0.000878527

>  <SCORE.RESTR.CAVITY>
0.000878527

>  <SCORE.RESTR.norm>
3.2538e-05

>  <SCORE.SYSTEM>
0

>  <SCORE.SYSTEM.CONST>
0

>  <SCORE.SYSTEM.DIHEDRAL>
0

>  <SCORE.SYSTEM.SOLV>
0

>  <SCORE.SYSTEM.norm>
0

>  <SCORE.heavy>
27

>  <SCORE.norm>
-0.537103

>  <RMSD>
6.221

$$$$
ligand
 OpenBabel02271912153D
libRbt.so/2013.1/901 2013/11/27
 27 29  0  0  0  0  0  0  0  0999 V2000
   47.5170  -26.4915 -103.9466 N   0  0  0  0  0  0  0  0  0  0  0  0
   47.9528  -26.2892 -102.5603 C   0  0  2  0  0  0  0  0  0  0  0  0
   48.5883  -24.9214 -102.4250 C   0  0  0  0  0  0  0  0  0  0  0  0
   48.0179  -24.0376 -101.8036 O   0  0  0  0  0  0  0  0  0  0  0  0
   48.9724  -27.3541 -102.1338 C   0  0  0  0  0  0  0  0  0  0  0  0
   48.3489  -28.7424 -102.1619 C   0  0  0  0  0  0  0  0  0  0  0  0
   49.5357  -30.0792 -101.7526 S   0  0  2  0  0  0  0  0  0  0  0  0
   50.7316  -30.0407 -103.1266 C   0  0  0  0  0  0  0  0  0  0  0  0
   48.4947  -31.4211 -102.3223 C   0  0  0  0  0  0  0  0  0  0  0  0
   47.6494  -31.0670 -103.5168 C   0  0  1  0  0  0  0  0  0  0  0  0
   48.5149  -30.9877 -104.6620 O   0  0  0  0  0  0  0  0  0  0  0  0
   46.8224  -32.2756 -103.6990 C   0  0  1  0  0  0  0  0  0  0  0  0
   45.5465  -32.0791 -103.0917 O   0  0  0  0  0  0  0  0  0  0  0  0
   46.6750  -32.3446 -105.1875 C   0  0  1  0  0  0  0  0  0  0  0  0
   45.5437  -31.5590 -105.6167 O   0  0  0  0  0  0  0  0  0  0  0  0
   47.9877  -31.7480 -105.7782 C   0  0  2  0  0  0  0  0  0  0  0  0
   49.6864  -24.7013 -102.9053 O   0  0  0  0  0  0  0  0  0  0  0  0
   51.9778  -34.9613 -104.3813 N   0  0  0  0  0  0  0  0  0  0  0  0
   51.2273  -34.1738 -103.5722 C   0  0  0  0  0  0  0  0  0  0  0  0
   50.2078  -33.4309 -104.0515 N   0  0  0  0  0  0  0  0  0  0  0  0
   49.9586  -33.3799 -105.3701 C   0  0  0  0  0  0  0  0  0  0  0  0
   50.7597  -34.1708 -106.2730 C   0  0  0  0  0  0  0  0  0  0  0  0
   51.7916  -34.9846 -105.7180 C   0  0  0  0  0  0  0  0  0  0  0  0
   52.5886  -35.7731 -106.5229 N   0  0  0  0  0  0  0  0  0  0  0  0
   50.3128  -33.9358 -107.5123 N   0  0  0  0  0  0  0  0  0  0  0  0
   49.3346  -33.0818 -107.4535 C   0  0  0  0  0  0  0  0  0  0  0  0
   49.0651  -32.7079 -106.1576 N   0  0  0  0  0  0  0  0  0  0  0  0
  2  1  1  6  0  0  0
  2  3  1  0  0  0  0
  2  5  1  0  0  0  0
  3  4  1  0  0  0  0
  3 17  1  0  0  0  0
  5  6  1  0  0  0  0
  7  6  1  6  0  0  0
  7  8  1  0  0  0  0
  7  9  1  0  0  0  0
 10  9  1  1  0  0  0
 10 11  1  0  0  0  0
 10 12  1  0  0  0  0
 11 16  1  0  0  0  0
 12 13  1  1  0  0  0
 12 14  1  0  0  0  0
 14 15  1  6  0  0  0
 14 16  1  0  0  0  0
 16 27  1  1  0  0  0
 18 19  2  0  0  0  0
 18 23  1  0  0  0  0
 19 20  1  0  0  0  0
 20 21  2  0  0  0  0
 21 22  1  0  0  0  0
 21 27  1  0  0  0  0
 22 23  2  0  0  0  0
 22 25  1  0  0  0  0
 23 24  1  0  0  0  0
 25 26  2  0  0  0  0
 26 27  1  0  0  0  0
M  END
>  <CHROM.1>
109.63760051,-63.05479782,176.81555858,-65.50215915,34.39237558,72.54419372
36.08360455,48.99990492,-30.84454221,-104.05157905,1.80833687,-0.16007745
0.42849876

>  <Name>
ligand

>  <RI>
0

>  <Rbt.Current_Directory>
/home/itssahil/PROJECTS/Mol_Feturizer/Test_systems_manuscript/rnas/4l81

>  <Rbt.Executable>
rbdock ($Id: //depot/dev/client3/rdock/2013.1/src/exe/rbdock.cxx#4 $)

>  <Rbt.Library>
libRbt.so (2013.1, Build901 2013/11/27)

>  <Rbt.Parameter_File>
/export/apps/rDock/src/rDock_2013.1_src/data/scripts/dock_solv.prm

>  <Rbt.Receptor>
prm/pocket_docking_7.prm

>  <SCORE>
-10.3596

>  <SCORE.INTER>
-9.46539

>  <SCORE.INTER.CONST>
1

>  <SCORE.INTER.POLAR>
0

>  <SCORE.INTER.ROT>
7

>  <SCORE.INTER.SOLV>
7.76408

>  <SCORE.INTER.VDW>
-17.165

>  <SCORE.INTER.norm>
-0.35057

>  <SCORE.INTRA>
-0.894208

>  <SCORE.INTRA.DIHEDRAL>
-3.43697

>  <SCORE.INTRA.DIHEDRAL.0>
8.34559

>  <SCORE.INTRA.POLAR>
0

>  <SCORE.INTRA.POLAR.0>
0

>  <SCORE.INTRA.REPUL>
0

>  <SCORE.INTRA.REPUL.0>
0

>  <SCORE.INTRA.SOLV>
-0.445404

>  <SCORE.INTRA.SOLV.lig_0>
-48.829

>  <SCORE.INTRA.VDW>
1.04698

>  <SCORE.INTRA.VDW.0>
-1.77092

>  <SCORE.INTRA.norm>
-0.0331188

>  <SCORE.RESTR>
0

>  <SCORE.RESTR.CAVITY>
0

>  <SCORE.RESTR.norm>
0

>  <SCORE.SYSTEM>
0

>  <SCORE.SYSTEM.CONST>
0

>  <SCORE.SYSTEM.DIHEDRAL>
0

>  <SCORE.SYSTEM.SOLV>
0

>  <SCORE.SYSTEM.norm>
0

>  <SCORE.heavy>
27

>  <SCORE.norm>
-0.383689

>  <RMSD>
6.229

$$$$
ligand
 OpenBabel02271912153D
libRbt.so/2013.1/901 2013/11/27
 27 29  0  0  0  0  0  0  0  0999 V2000
   51.3405  -30.8599 -100.3497 N   0  0  0  0  0  0  0  0  0  0  0  0
   50.3880  -31.6290 -101.1585 C   0  0  2  0  0  0  0  0  0  0  0  0
   51.0624  -32.0859 -102.4348 C   0  0  0  0  0  0  0  0  0  0  0  0
   50.8577  -33.2091 -102.8699 O   0  0  0  0  0  0  0  0  0  0  0  0
   49.1566  -30.7881 -101.5218 C   0  0  0  0  0  0  0  0  0  0  0  0
   48.4387  -30.3096 -100.2678 C   0  0  0  0  0  0  0  0  0  0  0  0
   46.9686  -29.2728 -100.6243 S   0  0  2  0  0  0  0  0  0  0  0  0
   46.3798  -28.7643  -98.9768 C   0  0  0  0  0  0  0  0  0  0  0  0
   45.8511  -30.6429 -100.9127 C   0  0  0  0  0  0  0  0  0  0  0  0
   45.2591  -30.6608 -102.2968 C   0  0  1  0  0  0  0  0  0  0  0  0
   44.7658  -29.3410 -102.5829 O   0  0  0  0  0  0  0  0  0  0  0  0
   46.4436  -30.8608 -103.1540 C   0  0  1  0  0  0  0  0  0  0  0  0
   46.5624  -32.2416 -103.4924 O   0  0  0  0  0  0  0  0  0  0  0  0
   46.0981  -30.0634 -104.3734 C   0  0  1  0  0  0  0  0  0  0  0  0
   45.3439  -30.8690 -105.3027 O   0  0  0  0  0  0  0  0  0  0  0  0
   45.2247  -28.8727 -103.8761 C   0  0  2  0  0  0  0  0  0  0  0  0
   51.7871  -31.3276 -103.0550 O   0  0  0  0  0  0  0  0  0  0  0  0
   49.6546  -26.1924 -102.6970 N   0  0  0  0  0  0  0  0  0  0  0  0
   49.5044  -27.5352 -102.8075 C   0  0  0  0  0  0  0  0  0  0  0  0
   48.3255  -28.0913 -103.1565 N   0  0  0  0  0  0  0  0  0  0  0  0
   47.2313  -27.3302 -103.3208 C   0  0  0  0  0  0  0  0  0  0  0  0
   47.3361  -25.8986 -103.1724 C   0  0  0  0  0  0  0  0  0  0  0  0
   48.6139  -25.3479 -102.8571 C   0  0  0  0  0  0  0  0  0  0  0  0
   48.7871  -23.9866 -102.7105 N   0  0  0  0  0  0  0  0  0  0  0  0
   46.1175  -25.3861 -103.3800 N   0  0  0  0  0  0  0  0  0  0  0  0
   45.2885  -26.3558 -103.6288 C   0  0  0  0  0  0  0  0  0  0  0  0
   45.9187  -27.5782 -103.6135 N   0  0  0  0  0  0  0  0  0  0  0  0
  2  1  1  1  0  0  0
  2  3  1  0  0  0  0
  2  5  1  0  0  0  0
  3  4  1  0  0  0  0
  3 17  1  0  0  0  0
  5  6  1  0  0  0  0
  7  6  1  1  0  0  0
  7  8  1  0  0  0  0
  7  9  1  0  0  0  0
 10  9  1  1  0  0  0
 10 11  1  0  0  0  0
 10 12  1  0  0  0  0
 11 16  1  0  0  0  0
 12 13  1  6  0  0  0
 12 14  1  0  0  0  0
 14 15  1  6  0  0  0
 14 16  1  0  0  0  0
 16 27  1  1  0  0  0
 18 19  2  0  0  0  0
 18 23  1  0  0  0  0
 19 20  1  0  0  0  0
 20 21  2  0  0  0  0
 21 22  1  0  0  0  0
 21 27  1  0  0  0  0
 22 23  2  0  0  0  0
 22 25  1  0  0  0  0
 23 24  1  0  0  0  0
 25 26  2  0  0  0  0
 26 27  1  0  0  0  0
M  END
>  <CHROM.1>
139.44915724,-59.46460053,179.05775745,-176.59977178,-119.41325625,-48.30546256
89.83974546,47.69416827,-29.19353919,-102.44505159,-0.99255132,-0.24377677
-0.05728737

>  <Name>
ligand

>  <RI>
0

>  <Rbt.Current_Directory>
/home/itssahil/PROJECTS/Mol_Feturizer/Test_systems_manuscript/rnas/4l81

>  <Rbt.Executable>
rbdock ($Id: //depot/dev/client3/rdock/2013.1/src/exe/rbdock.cxx#4 $)

>  <Rbt.Library>
libRbt.so (2013.1, Build901 2013/11/27)

>  <Rbt.Parameter_File>
/export/apps/rDock/src/rDock_2013.1_src/data/scripts/dock_solv.prm

>  <Rbt.Receptor>
prm/pocket_docking_4.prm

>  <SCORE>
-14.6647

>  <SCORE.INTER>
-11.6744

>  <SCORE.INTER.CONST>
1

>  <SCORE.INTER.POLAR>
0

>  <SCORE.INTER.ROT>
7

>  <SCORE.INTER.SOLV>
15.165

>  <SCORE.INTER.VDW>
-21.1046

>  <SCORE.INTER.norm>
-0.432385

>  <SCORE.INTRA>
-2.99029

>  <SCORE.INTRA.DIHEDRAL>
0.0614112

>  <SCORE.INTRA.DIHEDRAL.0>
8.34559

>  <SCORE.INTRA.POLAR>
0

>  <SCORE.INTRA.POLAR.0>
0

>  <SCORE.INTRA.REPUL>
0

>  <SCORE.INTRA.REPUL.0>
0

>  <SCORE.INTRA.SOLV>
-0.0565274

>  <SCORE.INTRA.SOLV.lig_0>
-48.829

>  <SCORE.INTRA.VDW>
-2.99273

>  <SCORE.INTRA.VDW.0>
-1.77092

>  <SCORE.INTRA.norm>
-0.110751

>  <SCORE.RESTR>
0

>  <SCORE.RESTR.CAVITY>
0

>  <SCORE.RESTR.norm>
0

>  <SCORE.SYSTEM>
0

>  <SCORE.SYSTEM.CONST>
0

>  <SCORE.SYSTEM.DIHEDRAL>
0

>  <SCORE.SYSTEM.SOLV>
0

>  <SCORE.SYSTEM.norm>
0

>  <SCORE.heavy>
27

>  <SCORE.norm>
-0.543136

>  <RMSD>
6.239

$$$$
ligand
 OpenBabel02271912153D
libRbt.so/2013.1/901 2013/11/27
 27 29  0  0  0  0  0  0  0  0999 V2000
   50.6007  -29.7963 -102.5910 N   0  0  0  0  0  0  0  0  0  0  0  0
   50.5716  -29.9961 -101.1378 C   0  0  2  0  0  0  0  0  0  0  0  0
   50.6188  -31.4780 -100.8305 C   0  0  0  0  0  0  0  0  0  0  0  0
   50.7743  -31.8626  -99.6813 O   0  0  0  0  0  0  0  0  0  0  0  0
   49.3004  -29.4011 -100.5171 C   0  0  0  0  0  0  0  0  0  0  0  0
   48.0575  -30.0852 -101.0685 C   0  0  0  0  0  0  0  0  0  0  0  0
   46.5236  -29.1102 -100.8237 S   0  0  2  0  0  0  0  0  0  0  0  0
   46.3570  -29.0010  -99.0127 C   0  0  0  0  0  0  0  0  0  0  0  0
   45.3983  -30.4701 -101.1290 C   0  0  0  0  0  0  0  0  0  0  0  0
   44.9717  -30.5921 -102.5678 C   0  0  1  0  0  0  0  0  0  0  0  0
   44.5496  -29.2925 -103.0146 O   0  0  0  0  0  0  0  0  0  0  0  0
   46.2427  -30.8812 -103.2598 C   0  0  1  0  0  0  0  0  0  0  0  0
   46.3645  -32.2870 -103.4706 O   0  0  0  0  0  0  0  0  0  0  0  0
   46.0627  -30.1813 -104.5713 C   0  0  1  0  0  0  0  0  0  0  0  0
   45.4016  -31.0482 -105.5162 O   0  0  0  0  0  0  0  0  0  0  0  0
   45.1683  -28.9396 -104.2774 C   0  0  2  0  0  0  0  0  0  0  0  0
   50.4691  -32.2974 -101.7199 O   0  0  0  0  0  0  0  0  0  0  0  0
   49.6143  -26.0359 -104.2685 N   0  0  0  0  0  0  0  0  0  0  0  0
   49.4853  -27.3511 -104.5714 C   0  0  0  0  0  0  0  0  0  0  0  0
   48.2831  -27.9639 -104.5761 N   0  0  0  0  0  0  0  0  0  0  0  0
   47.1775  -27.3056 -104.1916 C   0  0  0  0  0  0  0  0  0  0  0  0
   47.2749  -25.9144 -103.8209 C   0  0  0  0  0  0  0  0  0  0  0  0
   48.5566  -25.2909 -103.8833 C   0  0  0  0  0  0  0  0  0  0  0  0
   48.7196  -23.9611 -103.5521 N   0  0  0  0  0  0  0  0  0  0  0  0
   46.0472  -25.5061 -103.4790 N   0  0  0  0  0  0  0  0  0  0  0  0
   45.2228  -26.5041 -103.5954 C   0  0  0  0  0  0  0  0  0  0  0  0
   45.8602  -27.6395 -104.0386 N   0  0  0  0  0  0  0  0  0  0  0  0
  2  1  1  6  0  0  0
  2  3  1  0  0  0  0
  2  5  1  0  0  0  0
  3  4  1  0  0  0  0
  3 17  1  0  0  0  0
  5  6  1  0  0  0  0
  7  6  1  1  0  0  0
  7  8  1  0  0  0  0
  7  9  1  0  0  0  0
 10  9  1  1  0  0  0
 10 11  1  0  0  0  0
 10 12  1  0  0  0  0
 11 16  1  0  0  0  0
 12 13  1  6  0  0  0
 12 14  1  0  0  0  0
 14 15  1  6  0  0  0
 14 16  1  0  0  0  0
 16 27  1  1  0  0  0
 18 19  2  0  0  0  0
 18 23  1  0  0  0  0
 19 20  1  0  0  0  0
 20 21  2  0  0  0  0
 21 22  1  0  0  0  0
 21 27  1  0  0  0  0
 22 23  2  0  0  0  0
 22 25  1  0  0  0  0
 23 24  1  0  0  0  0
 25 26  2  0  0  0  0
 26 27  1  0  0  0  0
M  END
>  <CHROM.1>
170.73648571,61.82960812,-161.12312228,-62.78100815,-91.66673531,-48.93430722
122.27931981,47.48855168,-29.00246504,-102.65421075,-1.15987501,-0.35528844
-0.42400187

>  <Name>
ligand

>  <RI>
0

>  <Rbt.Current_Directory>
/home/itssahil/PROJECTS/Mol_Feturizer/Test_systems_manuscript/rnas/4l81

>  <Rbt.Executable>
rbdock ($Id: //depot/dev/client3/rdock/2013.1/src/exe/rbdock.cxx#4 $)

>  <Rbt.Library>
libRbt.so (2013.1, Build901 2013/11/27)

>  <Rbt.Parameter_File>
/export/apps/rDock/src/rDock_2013.1_src/data/scripts/dock_solv.prm

>  <Rbt.Receptor>
prm/pocket_docking_3.prm

>  <SCORE>
-14.4298

>  <SCORE.INTER>
-13.1368

>  <SCORE.INTER.CONST>
1

>  <SCORE.INTER.POLAR>
0

>  <SCORE.INTER.ROT>
7

>  <SCORE.INTER.SOLV>
8.29122

>  <SCORE.INTER.VDW>
-19.7883

>  <SCORE.INTER.norm>
-0.486547

>  <SCORE.INTRA>
-1.29305

>  <SCORE.INTRA.DIHEDRAL>
-1.7376

>  <SCORE.INTRA.DIHEDRAL.0>
8.34559

>  <SCORE.INTRA.POLAR>
0

>  <SCORE.INTRA.POLAR.0>
0

>  <SCORE.INTRA.REPUL>
0

>  <SCORE.INTRA.REPUL.0>
0

>  <SCORE.INTRA.SOLV>
0.531964

>  <SCORE.INTRA.SOLV.lig_0>
-48.829

>  <SCORE.INTRA.VDW>
-0.690232

>  <SCORE.INTRA.VDW.0>
-1.77092

>  <SCORE.INTRA.norm>
-0.0478908

>  <SCORE.RESTR>
0

>  <SCORE.RESTR.CAVITY>
0

>  <SCORE.RESTR.norm>
0

>  <SCORE.SYSTEM>
0

>  <SCORE.SYSTEM.CONST>
0

>  <SCORE.SYSTEM.DIHEDRAL>
0

>  <SCORE.SYSTEM.SOLV>
0

>  <SCORE.SYSTEM.norm>
0

>  <SCORE.heavy>
27

>  <SCORE.norm>
-0.534438

>  <RMSD>
6.252

$$$$
ligand
 OpenBabel02271912153D
libRbt.so/2013.1/901 2013/11/27
 27 29  0  0  0  0  0  0  0  0999 V2000
   51.2330  -30.8832 -100.3648 N   0  0  0  0  0  0  0  0  0  0  0  0
   50.3520  -31.5345 -101.3407 C   0  0  2  0  0  0  0  0  0  0  0  0
   51.1329  -31.8397 -102.6016 C   0  0  0  0  0  0  0  0  0  0  0  0
   50.9352  -32.8805 -103.2100 O   0  0  0  0  0  0  0  0  0  0  0  0
   49.1585  -30.6394 -101.7010 C   0  0  0  0  0  0  0  0  0  0  0  0
   48.2748  -30.4001 -100.4850 C   0  0  0  0  0  0  0  0  0  0  0  0
   46.8022  -29.3697 -100.8497 S   0  0  2  0  0  0  0  0  0  0  0  0
   46.2944  -28.7365  -99.2185 C   0  0  0  0  0  0  0  0  0  0  0  0
   45.6570  -30.7401 -100.9892 C   0  0  0  0  0  0  0  0  0  0  0  0
   45.2409  -31.0401 -102.4047 C   0  0  1  0  0  0  0  0  0  0  0  0
   44.8536  -29.8013 -103.0228 O   0  0  0  0  0  0  0  0  0  0  0  0
   46.5110  -31.4454 -103.0375 C   0  0  1  0  0  0  0  0  0  0  0  0
   46.6016  -32.8690 -103.0611 O   0  0  0  0  0  0  0  0  0  0  0  0
   46.3596  -30.9196 -104.4313 C   0  0  1  0  0  0  0  0  0  0  0  0
   45.6870  -31.8880 -105.2627 O   0  0  0  0  0  0  0  0  0  0  0  0
   45.4920  -29.6307 -104.3133 C   0  0  2  0  0  0  0  0  0  0  0  0
   51.9393  -31.0366 -103.0371 O   0  0  0  0  0  0  0  0  0  0  0  0
   45.8021  -24.4770 -105.5550 N   0  0  0  0  0  0  0  0  0  0  0  0
   44.8498  -25.3640 -105.9349 C   0  0  0  0  0  0  0  0  0  0  0  0
   44.8645  -26.6456 -105.5127 N   0  0  0  0  0  0  0  0  0  0  0  0
   45.8808  -27.1094 -104.7674 C   0  0  0  0  0  0  0  0  0  0  0  0
   46.9381  -26.2096 -104.3738 C   0  0  0  0  0  0  0  0  0  0  0  0
   46.8544  -24.8495 -104.7961 C   0  0  0  0  0  0  0  0  0  0  0  0
   47.8259  -23.9334 -104.4472 N   0  0  0  0  0  0  0  0  0  0  0  0
   47.8151  -26.9168 -103.6516 N   0  0  0  0  0  0  0  0  0  0  0  0
   47.4040  -28.1475 -103.5755 C   0  0  0  0  0  0  0  0  0  0  0  0
   46.2121  -28.3260 -104.2381 N   0  0  0  0  0  0  0  0  0  0  0  0
  2  1  1  1  0  0  0
  2  3  1  0  0  0  0
  2  5  1  0  0  0  0
  3  4  1  0  0  0  0
  3 17  1  0  0  0  0
  5  6  1  0  0  0  0
  7  6  1  1  0  0  0
  7  8  1  0  0  0  0
  7  9  1  0  0  0  0
 10  9  1  1  0  0  0
 10 11  1  0  0  0  0
 10 12  1  0  0  0  0
 11 16  1  0  0  0  0
 12 13  1  6  0  0  0
 12 14  1  0  0  0  0
 14 15  1  6  0  0  0
 14 16  1  0  0  0  0
 16 27  1  1  0  0  0
 18 19  2  0  0  0  0
 18 23  1  0  0  0  0
 19 20  1  0  0  0  0
 20 21  2  0  0  0  0
 21 22  1  0  0  0  0
 21 27  1  0  0  0  0
 22 23  2  0  0  0  0
 22 25  1  0  0  0  0
 23 24  1  0  0  0  0
 25 26  2  0  0  0  0
 26 27  1  0  0  0  0
M  END
>  <CHROM.1>
141.62667728,-63.96357898,-178.58711509,-159.76542848,-106.39087041,-48.52825252
-103.22234409,47.29795245,-29.28105436,-103.04703003,-1.05768700,-0.24002144
-0.35123839

>  <Name>
ligand

>  <RI>
0

>  <Rbt.Current_Directory>
/home/itssahil/PROJECTS/Mol_Feturizer/Test_systems_manuscript/rnas/4l81

>  <Rbt.Executable>
rbdock ($Id: //depot/dev/client3/rdock/2013.1/src/exe/rbdock.cxx#4 $)

>  <Rbt.Library>
libRbt.so (2013.1, Build901 2013/11/27)

>  <Rbt.Parameter_File>
/export/apps/rDock/src/rDock_2013.1_src/data/scripts/dock_solv.prm

>  <Rbt.Receptor>
prm/pocket_docking_3.prm

>  <SCORE>
-12.4263

>  <SCORE.INTER>
-11.2145

>  <SCORE.INTER.CONST>
1

>  <SCORE.INTER.POLAR>
0

>  <SCORE.INTER.ROT>
7

>  <SCORE.INTER.SOLV>
13.4565

>  <SCORE.INTER.VDW>
-20.2285

>  <SCORE.INTER.norm>
-0.415351

>  <SCORE.INTRA>
-1.21185

>  <SCORE.INTRA.DIHEDRAL>
0.703152

>  <SCORE.INTRA.DIHEDRAL.0>
8.34559

>  <SCORE.INTRA.POLAR>
0

>  <SCORE.INTRA.POLAR.0>
0

>  <SCORE.INTRA.REPUL>
0

>  <SCORE.INTRA.REPUL.0>
0

>  <SCORE.INTRA.SOLV>
-0.0589014

>  <SCORE.INTRA.SOLV.lig_0>
-48.829

>  <SCORE.INTRA.VDW>
-1.53397

>  <SCORE.INTRA.VDW.0>
-1.77092

>  <SCORE.INTRA.norm>
-0.0448833

>  <SCORE.RESTR>
0

>  <SCORE.RESTR.CAVITY>
0

>  <SCORE.RESTR.norm>
0

>  <SCORE.SYSTEM>
0

>  <SCORE.SYSTEM.CONST>
0

>  <SCORE.SYSTEM.DIHEDRAL>
0

>  <SCORE.SYSTEM.SOLV>
0

>  <SCORE.SYSTEM.norm>
0

>  <SCORE.heavy>
27

>  <SCORE.norm>
-0.460234

>  <RMSD>
6.256

$$$$
ligand
 OpenBabel02271912153D
libRbt.so/2013.1/901 2013/11/27
 27 29  0  0  0  0  0  0  0  0999 V2000
   50.6707  -30.1389 -102.5819 N   0  0  0  0  0  0  0  0  0  0  0  0
   50.7228  -30.2355 -101.1187 C   0  0  2  0  0  0  0  0  0  0  0  0
   50.8315  -31.6899 -100.7119 C   0  0  0  0  0  0  0  0  0  0  0  0
   50.7137  -32.0103  -99.5388 O   0  0  0  0  0  0  0  0  0  0  0  0
   49.4675  -29.6325 -100.4737 C   0  0  0  0  0  0  0  0  0  0  0  0
   48.2094  -30.3022 -101.0082 C   0  0  0  0  0  0  0  0  0  0  0  0
   46.6951  -29.2949 -100.7722 S   0  0  2  0  0  0  0  0  0  0  0  0
   46.4968  -29.2176  -98.9627 C   0  0  0  0  0  0  0  0  0  0  0  0
   45.5434  -30.6206 -101.1258 C   0  0  0  0  0  0  0  0  0  0  0  0
   45.0811  -30.6555 -102.5582 C   0  0  1  0  0  0  0  0  0  0  0  0
   44.6176  -29.3394 -102.9045 O   0  0  0  0  0  0  0  0  0  0  0  0
   46.3392  -30.8658 -103.3004 C   0  0  1  0  0  0  0  0  0  0  0  0
   46.4872  -32.2507 -103.6096 O   0  0  0  0  0  0  0  0  0  0  0  0
   46.1081  -30.0835 -104.5560 C   0  0  1  0  0  0  0  0  0  0  0  0
   45.4416  -30.9004 -105.5408 O   0  0  0  0  0  0  0  0  0  0  0  0
   45.1939  -28.8868 -104.1556 C   0  0  2  0  0  0  0  0  0  0  0  0
   51.0038  -32.5544 -101.5532 O   0  0  0  0  0  0  0  0  0  0  0  0
   49.5368  -26.1801 -102.7377 N   0  0  0  0  0  0  0  0  0  0  0  0
   49.4050  -27.5228 -102.8699 C   0  0  0  0  0  0  0  0  0  0  0  0
   48.2493  -28.0856 -103.2808 N   0  0  0  0  0  0  0  0  0  0  0  0
   47.1570  -27.3326 -103.4886 C   0  0  0  0  0  0  0  0  0  0  0  0
   47.2408  -25.9019 -103.3197 C   0  0  0  0  0  0  0  0  0  0  0  0
   48.4968  -25.3432 -102.9379 C   0  0  0  0  0  0  0  0  0  0  0  0
   48.6498  -23.9821 -102.7684 N   0  0  0  0  0  0  0  0  0  0  0  0
   46.0286  -25.3981 -103.5795 N   0  0  0  0  0  0  0  0  0  0  0  0
   45.2217  -26.3725 -103.8780 C   0  0  0  0  0  0  0  0  0  0  0  0
   45.8622  -27.5892 -103.8462 N   0  0  0  0  0  0  0  0  0  0  0  0
  2  1  1  6  0  0  0
  2  3  1  0  0  0  0
  2  5  1  0  0  0  0
  3  4  1  0  0  0  0
  3 17  1  0  0  0  0
  5  6  1  0  0  0  0
  7  6  1  1  0  0  0
  7  8  1  0  0  0  0
  7  9  1  0  0  0  0
 10  9  1  1  0  0  0
 10 11  1  0  0  0  0
 10 12  1  0  0  0  0
 11 16  1  0  0  0  0
 12 13  1  6  0  0  0
 12 14  1  0  0  0  0
 14 15  1  6  0  0  0
 14 16  1  0  0  0  0
 16 27  1  1  0  0  0
 18 19  2  0  0  0  0
 18 23  1  0  0  0  0
 19 20  1  0  0  0  0
 20 21  2  0  0  0  0
 21 22  1  0  0  0  0
 21 27  1  0  0  0  0
 22 23  2  0  0  0  0
 22 25  1  0  0  0  0
 23 24  1  0  0  0  0
 25 26  2  0  0  0  0
 26 27  1  0  0  0  0
M  END
>  <CHROM.1>
-170.45081837,56.52585599,-159.59981259,-65.27788201,-94.94524123,-51.18227787
92.77333195,47.56382036,-29.08975332,-102.38296955,-0.92836650,-0.46689901
-0.20437437

>  <Name>
ligand

>  <RI>
0

>  <Rbt.Current_Directory>
/home/itssahil/PROJECTS/Mol_Feturizer/Test_systems_manuscript/rnas/4l81

>  <Rbt.Executable>
rbdock ($Id: //depot/dev/client3/rdock/2013.1/src/exe/rbdock.cxx#4 $)

>  <Rbt.Library>
libRbt.so (2013.1, Build901 2013/11/27)

>  <Rbt.Parameter_File>
/export/apps/rDock/src/rDock_2013.1_src/data/scripts/dock_solv.prm

>  <Rbt.Receptor>
prm/pocket_docking_3.prm

>  <SCORE>
-15.9277

>  <SCORE.INTER>
-14.2918

>  <SCORE.INTER.CONST>
1

>  <SCORE.INTER.POLAR>
0

>  <SCORE.INTER.ROT>
7

>  <SCORE.INTER.SOLV>
10.722

>  <SCORE.INTER.VDW>
-21.3685

>  <SCORE.INTER.norm>
-0.529327

>  <SCORE.INTRA>
-1.63584

>  <SCORE.INTRA.DIHEDRAL>
-1.30671

>  <SCORE.INTRA.DIHEDRAL.0>
8.34559

>  <SCORE.INTRA.POLAR>
0

>  <SCORE.INTRA.POLAR.0>
0

>  <SCORE.INTRA.REPUL>
0

>  <SCORE.INTRA.REPUL.0>
0

>  <SCORE.INTRA.SOLV>
1.11852

>  <SCORE.INTRA.SOLV.lig_0>
-48.829

>  <SCORE.INTRA.VDW>
-1.54175

>  <SCORE.INTRA.VDW.0>
-1.77092

>  <SCORE.INTRA.norm>
-0.0605868

>  <SCORE.RESTR>
0

>  <SCORE.RESTR.CAVITY>
0

>  <SCORE.RESTR.norm>
0

>  <SCORE.SYSTEM>
0

>  <SCORE.SYSTEM.CONST>
0

>  <SCORE.SYSTEM.DIHEDRAL>
0

>  <SCORE.SYSTEM.SOLV>
0

>  <SCORE.SYSTEM.norm>
0

>  <SCORE.heavy>
27

>  <SCORE.norm>
-0.589914

>  <RMSD>
6.277

$$$$
ligand
 OpenBabel02271912153D
libRbt.so/2013.1/901 2013/11/27
 27 29  0  0  0  0  0  0  0  0999 V2000
   49.3271  -32.3842 -106.3449 N   0  0  0  0  0  0  0  0  0  0  0  0
   49.0793  -32.3463 -104.8992 C   0  0  2  0  0  0  0  0  0  0  0  0
   49.9263  -33.3975 -104.2136 C   0  0  0  0  0  0  0  0  0  0  0  0
   50.4361  -33.1640 -103.1281 O   0  0  0  0  0  0  0  0  0  0  0  0
   47.6023  -32.6126 -104.5782 C   0  0  0  0  0  0  0  0  0  0  0  0
   47.3173  -32.3720 -103.1024 C   0  0  0  0  0  0  0  0  0  0  0  0
   47.4661  -30.6111 -102.6124 S   0  0  2  0  0  0  0  0  0  0  0  0
   49.0873  -30.5208 -101.7858 C   0  0  0  0  0  0  0  0  0  0  0  0
   46.4185  -30.7406 -101.1651 C   0  0  0  0  0  0  0  0  0  0  0  0
   45.0047  -30.2778 -101.3973 C   0  0  1  0  0  0  0  0  0  0  0  0
   45.0455  -28.8758 -101.7128 O   0  0  0  0  0  0  0  0  0  0  0  0
   44.6345  -30.9774 -102.6428 C   0  0  1  0  0  0  0  0  0  0  0  0
   43.8975  -32.1578 -102.3284 O   0  0  0  0  0  0  0  0  0  0  0  0
   43.7427  -29.9827 -103.3190 C   0  0  1  0  0  0  0  0  0  0  0  0
   42.3802  -30.1462 -102.8738 O   0  0  0  0  0  0  0  0  0  0  0  0
   44.2703  -28.5773 -102.9011 C   0  0  2  0  0  0  0  0  0  0  0  0
   50.0790  -34.4944 -104.7221 O   0  0  0  0  0  0  0  0  0  0  0  0
   47.3666  -28.7114 -107.2131 N   0  0  0  0  0  0  0  0  0  0  0  0
   46.6445  -29.7279 -106.6809 C   0  0  0  0  0  0  0  0  0  0  0  0
   45.8594  -29.5498 -105.5978 N   0  0  0  0  0  0  0  0  0  0  0  0
   45.8371  -28.3711 -104.9546 C   0  0  0  0  0  0  0  0  0  0  0  0
   46.6228  -27.2725 -105.4627 C   0  0  0  0  0  0  0  0  0  0  0  0
   47.3955  -27.4886 -106.6423 C   0  0  0  0  0  0  0  0  0  0  0  0
   48.1620  -26.4787 -107.1877 N   0  0  0  0  0  0  0  0  0  0  0  0
   46.4276  -26.2312 -104.6451 N   0  0  0  0  0  0  0  0  0  0  0  0
   45.6159  -26.5874 -103.6945 C   0  0  0  0  0  0  0  0  0  0  0  0
   45.2115  -27.8943 -103.8360 N   0  0  0  0  0  0  0  0  0  0  0  0
  2  1  1  6  0  0  0
  2  3  1  0  0  0  0
  2  5  1  0  0  0  0
  3  4  1  0  0  0  0
  3 17  1  0  0  0  0
  5  6  1  0  0  0  0
  7  6  1  6  0  0  0
  7  8  1  0  0  0  0
  7  9  1  0  0  0  0
 10  9  1  6  0  0  0
 10 11  1  0  0  0  0
 10 12  1  0  0  0  0
 11 16  1  0  0  0  0
 12 13  1  1  0  0  0
 12 14  1  0  0  0  0
 14 15  1  1  0  0  0
 14 16  1  0  0  0  0
 16 27  1  6  0  0  0
 18 19  2  0  0  0  0
 18 23  1  0  0  0  0
 19 20  1  0  0  0  0
 20 21  2  0  0  0  0
 21 22  1  0  0  0  0
 21 27  1  0  0  0  0
 22 23  2  0  0  0  0
 22 25  1  0  0  0  0
 23 24  1  0  0  0  0
 25 26  2  0  0  0  0
 26 27  1  0  0  0  0
M  END
>  <CHROM.1>
141.99842668,-171.75784747,67.42305003,-102.02378987,-98.70370776,-63.56432133
104.15540586,46.73948831,-30.17617180,-103.93516247,-0.62801019,0.61205306
-0.64465653

>  <Name>
ligand

>  <RI>
0

>  <Rbt.Current_Directory>
/home/itssahil/PROJECTS/Mol_Feturizer/Test_systems_manuscript/rnas/4l81

>  <Rbt.Executable>
rbdock ($Id: //depot/dev/client3/rdock/2013.1/src/exe/rbdock.cxx#4 $)

>  <Rbt.Library>
libRbt.so (2013.1, Build901 2013/11/27)

>  <Rbt.Parameter_File>
/export/apps/rDock/src/rDock_2013.1_src/data/scripts/dock_solv.prm

>  <Rbt.Receptor>
prm/pocket_docking_5.prm

>  <SCORE>
-10.0029

>  <SCORE.INTER>
-7.95264

>  <SCORE.INTER.CONST>
1

>  <SCORE.INTER.POLAR>
0

>  <SCORE.INTER.ROT>
7

>  <SCORE.INTER.SOLV>
9.46482

>  <SCORE.INTER.VDW>
-16.7234

>  <SCORE.INTER.norm>
-0.294542

>  <SCORE.INTRA>
-2.05031

>  <SCORE.INTRA.DIHEDRAL>
0.102055

>  <SCORE.INTRA.DIHEDRAL.0>
8.34559

>  <SCORE.INTRA.POLAR>
0

>  <SCORE.INTRA.POLAR.0>
0

>  <SCORE.INTRA.REPUL>
0

>  <SCORE.INTRA.REPUL.0>
0

>  <SCORE.INTRA.SOLV>
-0.557875

>  <SCORE.INTRA.SOLV.lig_0>
-48.829

>  <SCORE.INTRA.VDW>
-1.8224

>  <SCORE.INTRA.VDW.0>
-1.77092

>  <SCORE.INTRA.norm>
-0.0759372

>  <SCORE.RESTR>
0

>  <SCORE.RESTR.CAVITY>
0

>  <SCORE.RESTR.norm>
0

>  <SCORE.SYSTEM>
0

>  <SCORE.SYSTEM.CONST>
0

>  <SCORE.SYSTEM.DIHEDRAL>
0

>  <SCORE.SYSTEM.SOLV>
0

>  <SCORE.SYSTEM.norm>
0

>  <SCORE.heavy>
27

>  <SCORE.norm>
-0.370479

>  <RMSD>
6.313

$$$$
ligand
 OpenBabel02271912153D
libRbt.so/2013.1/901 2013/11/27
 27 29  0  0  0  0  0  0  0  0999 V2000
   50.1099  -34.5773 -108.3675 N   0  0  0  0  0  0  0  0  0  0  0  0
   49.6921  -33.2422 -107.9252 C   0  0  2  0  0  0  0  0  0  0  0  0
   50.1631  -32.2080 -108.9258 C   0  0  0  0  0  0  0  0  0  0  0  0
   50.9057  -32.5315 -109.8405 O   0  0  0  0  0  0  0  0  0  0  0  0
   50.2764  -32.9015 -106.5475 C   0  0  0  0  0  0  0  0  0  0  0  0
   49.3465  -31.9727 -105.7797 C   0  0  0  0  0  0  0  0  0  0  0  0
   50.0412  -31.4126 -104.1775 S   0  0  2  0  0  0  0  0  0  0  0  0
   50.4829  -32.9610 -103.3251 C   0  0  0  0  0  0  0  0  0  0  0  0
   48.4590  -31.1024 -103.3970 C   0  0  0  0  0  0  0  0  0  0  0  0
   48.5685  -30.6429 -101.9674 C   0  0  1  0  0  0  0  0  0  0  0  0
   49.5524  -29.5960 -101.9145 O   0  0  0  0  0  0  0  0  0  0  0  0
   47.2606  -30.0014 -101.7316 C   0  0  1  0  0  0  0  0  0  0  0  0
   46.3884  -30.9192 -101.0740 O   0  0  0  0  0  0  0  0  0  0  0  0
   47.6137  -28.8789 -100.8056 C   0  0  1  0  0  0  0  0  0  0  0  0
   47.5895  -29.3316  -99.4360 O   0  0  0  0  0  0  0  0  0  0  0  0
   49.0581  -28.4403 -101.1920 C   0  0  2  0  0  0  0  0  0  0  0  0
   49.7798  -31.0539 -108.8467 O   0  0  0  0  0  0  0  0  0  0  0  0
   46.8295  -24.7800 -104.3279 N   0  0  0  0  0  0  0  0  0  0  0  0
   46.2058  -25.7514 -103.6171 C   0  0  0  0  0  0  0  0  0  0  0  0
   46.8902  -26.5981 -102.8198 N   0  0  0  0  0  0  0  0  0  0  0  0
   48.2318  -26.5613 -102.7734 C   0  0  0  0  0  0  0  0  0  0  0  0
   48.9398  -25.5694 -103.5463 C   0  0  0  0  0  0  0  0  0  0  0  0
   48.1738  -24.6583 -104.3327 C   0  0  0  0  0  0  0  0  0  0  0  0
   48.7860  -23.6789 -105.0880 N   0  0  0  0  0  0  0  0  0  0  0  0
   50.2473  -25.7525 -103.3277 N   0  0  0  0  0  0  0  0  0  0  0  0
   50.4030  -26.7534 -102.5132 C   0  0  0  0  0  0  0  0  0  0  0  0
   49.1951  -27.2885 -102.1306 N   0  0  0  0  0  0  0  0  0  0  0  0
  2  1  1  6  0  0  0
  2  3  1  0  0  0  0
  2  5  1  0  0  0  0
  3  4  1  0  0  0  0
  3 17  1  0  0  0  0
  5  6  1  0  0  0  0
  7  6  1  6  0  0  0
  7  8  1  0  0  0  0
  7  9  1  0  0  0  0
 10  9  1  6  0  0  0
 10 11  1  0  0  0  0
 10 12  1  0  0  0  0
 11 16  1  0  0  0  0
 12 13  1  1  0  0  0
 12 14  1  0  0  0  0
 14 15  1  1  0  0  0
 14 16  1  0  0  0  0
 16 27  1  6  0  0  0
 18 19  2  0  0  0  0
 18 23  1  0  0  0  0
 19 20  1  0  0  0  0
 20 21  2  0  0  0  0
 21 22  1  0  0  0  0
 21 27  1  0  0  0  0
 22 23  2  0  0  0  0
 22 25  1  0  0  0  0
 23 24  1  0  0  0  0
 25 26  2  0  0  0  0
 26 27  1  0  0  0  0
M  END
>  <CHROM.1>
-7.62678490,-149.73176526,-175.33804625,-53.82954070,178.03590554,47.74452927
110.30848436,48.92813355,-29.43491172,-104.08178525,0.38586614,-1.29541388
2.65700502

>  <Name>
ligand

>  <RI>
0

>  <Rbt.Current_Directory>
/home/itssahil/PROJECTS/Mol_Feturizer/Test_systems_manuscript/rnas/4l81

>  <Rbt.Executable>
rbdock ($Id: //depot/dev/client3/rdock/2013.1/src/exe/rbdock.cxx#4 $)

>  <Rbt.Library>
libRbt.so (2013.1, Build901 2013/11/27)

>  <Rbt.Parameter_File>
/export/apps/rDock/src/rDock_2013.1_src/data/scripts/dock_solv.prm

>  <Rbt.Receptor>
prm/pocket_docking_8.prm

>  <SCORE>
-13.5207

>  <SCORE.INTER>
-12.157

>  <SCORE.INTER.CONST>
1

>  <SCORE.INTER.POLAR>
0

>  <SCORE.INTER.ROT>
7

>  <SCORE.INTER.SOLV>
6.10481

>  <SCORE.INTER.VDW>
-18.4063

>  <SCORE.INTER.norm>
-0.450258

>  <SCORE.INTRA>
-1.36377

>  <SCORE.INTRA.DIHEDRAL>
-0.763969

>  <SCORE.INTRA.DIHEDRAL.0>
8.34559

>  <SCORE.INTRA.POLAR>
0

>  <SCORE.INTRA.POLAR.0>
0

>  <SCORE.INTRA.REPUL>
0

>  <SCORE.INTRA.REPUL.0>
0

>  <SCORE.INTRA.SOLV>
-1.21709

>  <SCORE.INTRA.SOLV.lig_0>
-48.829

>  <SCORE.INTRA.VDW>
-0.37324

>  <SCORE.INTRA.VDW.0>
-1.77092

>  <SCORE.INTRA.norm>
-0.05051

>  <SCORE.RESTR>
0

>  <SCORE.RESTR.CAVITY>
0

>  <SCORE.RESTR.norm>
0

>  <SCORE.SYSTEM>
0

>  <SCORE.SYSTEM.CONST>
0

>  <SCORE.SYSTEM.DIHEDRAL>
0

>  <SCORE.SYSTEM.SOLV>
0

>  <SCORE.SYSTEM.norm>
0

>  <SCORE.heavy>
27

>  <SCORE.norm>
-0.500768

>  <RMSD>
6.315

$$$$
ligand
 OpenBabel02271912153D
libRbt.so/2013.1/901 2013/11/27
 27 29  0  0  0  0  0  0  0  0999 V2000
   50.0745  -29.4976 -103.3364 N   0  0  0  0  0  0  0  0  0  0  0  0
   50.0752  -29.3455 -101.8770 C   0  0  2  0  0  0  0  0  0  0  0  0
   50.2035  -30.7072 -101.2272 C   0  0  0  0  0  0  0  0  0  0  0  0
   49.7378  -31.6954 -101.7742 O   0  0  0  0  0  0  0  0  0  0  0  0
   48.7830  -28.6804 -101.3838 C   0  0  0  0  0  0  0  0  0  0  0  0
   47.5622  -29.4731 -101.8289 C   0  0  0  0  0  0  0  0  0  0  0  0
   45.9842  -28.8001 -101.1805 S   0  0  2  0  0  0  0  0  0  0  0  0
   46.0608  -29.1455  -99.3933 C   0  0  0  0  0  0  0  0  0  0  0  0
   44.9752  -30.1887 -101.6931 C   0  0  0  0  0  0  0  0  0  0  0  0
   44.4993  -30.0983 -103.1186 C   0  0  1  0  0  0  0  0  0  0  0  0
   44.2506  -28.7134 -103.4138 O   0  0  0  0  0  0  0  0  0  0  0  0
   45.6997  -30.4817 -103.8866 C   0  0  1  0  0  0  0  0  0  0  0  0
   45.6196  -31.8606 -104.2439 O   0  0  0  0  0  0  0  0  0  0  0  0
   45.5854  -29.6286 -105.1118 C   0  0  1  0  0  0  0  0  0  0  0  0
   44.7864  -30.2925 -106.1129 O   0  0  0  0  0  0  0  0  0  0  0  0
   44.8800  -28.3155 -104.6578 C   0  0  2  0  0  0  0  0  0  0  0  0
   50.7998  -30.8332 -100.1720 O   0  0  0  0  0  0  0  0  0  0  0  0
   49.3482  -25.5467 -105.4107 N   0  0  0  0  0  0  0  0  0  0  0  0
   48.9773  -26.7005 -106.0182 C   0  0  0  0  0  0  0  0  0  0  0  0
   47.7873  -27.2848 -105.7660 N   0  0  0  0  0  0  0  0  0  0  0  0
   46.9632  -26.7844 -104.8312 C   0  0  0  0  0  0  0  0  0  0  0  0
   47.3367  -25.5797 -104.1299 C   0  0  0  0  0  0  0  0  0  0  0  0
   48.5787  -24.9640 -104.4672 C   0  0  0  0  0  0  0  0  0  0  0  0
   48.9928  -23.8050 -103.8427 N   0  0  0  0  0  0  0  0  0  0  0  0
   46.3564  -25.3037 -103.2618 N   0  0  0  0  0  0  0  0  0  0  0  0
   45.4371  -26.2174 -103.3588 C   0  0  0  0  0  0  0  0  0  0  0  0
   45.7517  -27.1539 -104.3157 N   0  0  0  0  0  0  0  0  0  0  0  0
  2  1  1  6  0  0  0
  2  3  1  0  0  0  0
  2  5  1  0  0  0  0
  3  4  1  0  0  0  0
  3 17  1  0  0  0  0
  5  6  1  0  0  0  0
  7  6  1  6  0  0  0
  7  8  1  0  0  0  0
  7  9  1  0  0  0  0
 10  9  1  1  0  0  0
 10 11  1  0  0  0  0
 10 12  1  0  0  0  0
 11 16  1  0  0  0  0
 12 13  1  6  0  0  0
 12 14  1  0  0  0  0
 14 15  1  6  0  0  0
 14 16  1  0  0  0  0
 16 27  1  1  0  0  0
 18 19  2  0  0  0  0
 18 23  1  0  0  0  0
 19 20  1  0  0  0  0
 20 21  2  0  0  0  0
 21 22  1  0  0  0  0
 21 27  1  0  0  0  0
 22 23  2  0  0  0  0
 22 25  1  0  0  0  0
 23 24  1  0  0  0  0
 25 26  2  0  0  0  0
 26 27  1  0  0  0  0
M  END
>  <CHROM.1>
-31.17442609,56.95168999,176.12732854,-69.15138228,-84.92792983,-34.96233843
145.49828014,47.15333882,-28.52292647,-103.18598088,-1.44311067,-0.37558331
-0.57735293

>  <Name>
ligand

>  <RI>
0

>  <Rbt.Current_Directory>
/home/itssahil/PROJECTS/Mol_Feturizer/Test_systems_manuscript/rnas/4l81

>  <Rbt.Executable>
rbdock ($Id: //depot/dev/client3/rdock/2013.1/src/exe/rbdock.cxx#4 $)

>  <Rbt.Library>
libRbt.so (2013.1, Build901 2013/11/27)

>  <Rbt.Parameter_File>
/export/apps/rDock/src/rDock_2013.1_src/data/scripts/dock_solv.prm

>  <Rbt.Receptor>
prm/pocket_docking_4.prm

>  <SCORE>
-12.6364

>  <SCORE.INTER>
-10.3435

>  <SCORE.INTER.CONST>
1

>  <SCORE.INTER.POLAR>
0

>  <SCORE.INTER.ROT>
7

>  <SCORE.INTER.SOLV>
7.93503

>  <SCORE.INTER.VDW>
-17.8074

>  <SCORE.INTER.norm>
-0.383094

>  <SCORE.INTRA>
-2.2929

>  <SCORE.INTRA.DIHEDRAL>
-2.14959

>  <SCORE.INTRA.DIHEDRAL.0>
8.34559

>  <SCORE.INTRA.POLAR>
0

>  <SCORE.INTRA.POLAR.0>
0

>  <SCORE.INTRA.REPUL>
0

>  <SCORE.INTRA.REPUL.0>
0

>  <SCORE.INTRA.SOLV>
-0.140583

>  <SCORE.INTRA.SOLV.lig_0>
-48.829

>  <SCORE.INTRA.VDW>
-1.14781

>  <SCORE.INTRA.VDW.0>
-1.77092

>  <SCORE.INTRA.norm>
-0.0849223

>  <SCORE.RESTR>
0

>  <SCORE.RESTR.CAVITY>
0

>  <SCORE.RESTR.norm>
0

>  <SCORE.SYSTEM>
0

>  <SCORE.SYSTEM.CONST>
0

>  <SCORE.SYSTEM.DIHEDRAL>
0

>  <SCORE.SYSTEM.SOLV>
0

>  <SCORE.SYSTEM.norm>
0

>  <SCORE.heavy>
27

>  <SCORE.norm>
-0.468016

>  <RMSD>
6.316

$$$$
ligand
 OpenBabel02271912153D
libRbt.so/2013.1/901 2013/11/27
 27 29  0  0  0  0  0  0  0  0999 V2000
   45.1679  -30.2292 -101.6802 N   0  0  0  0  0  0  0  0  0  0  0  0
   46.4054  -30.4298 -100.9180 C   0  0  2  0  0  0  0  0  0  0  0  0
   46.2341  -29.8725  -99.5206 C   0  0  0  0  0  0  0  0  0  0  0  0
   46.8907  -30.3238  -98.5943 O   0  0  0  0  0  0  0  0  0  0  0  0
   47.5949  -29.7295 -101.5889 C   0  0  0  0  0  0  0  0  0  0  0  0
   47.8314  -30.2840 -102.9865 C   0  0  0  0  0  0  0  0  0  0  0  0
   48.2349  -32.0730 -102.9988 S   0  0  2  0  0  0  0  0  0  0  0  0
   50.0261  -32.1214 -102.6692 C   0  0  0  0  0  0  0  0  0  0  0  0
   48.2717  -32.2343 -104.7824 C   0  0  0  0  0  0  0  0  0  0  0  0
   46.9077  -32.3551 -105.4082 C   0  0  1  0  0  0  0  0  0  0  0  0
   46.1608  -31.1742 -105.0698 O   0  0  0  0  0  0  0  0  0  0  0  0
   47.2034  -32.2653 -106.8511 C   0  0  1  0  0  0  0  0  0  0  0  0
   47.2659  -33.5765 -107.4099 O   0  0  0  0  0  0  0  0  0  0  0  0
   46.0056  -31.5401 -107.3817 C   0  0  1  0  0  0  0  0  0  0  0  0
   44.9534  -32.4745 -107.7000 O   0  0  0  0  0  0  0  0  0  0  0  0
   45.5390  -30.5871 -106.2406 C   0  0  2  0  0  0  0  0  0  0  0  0
   45.4662  -28.9490  -99.3147 O   0  0  0  0  0  0  0  0  0  0  0  0
   48.9076  -26.9447 -108.1338 N   0  0  0  0  0  0  0  0  0  0  0  0
   48.8909  -28.2740 -108.3996 C   0  0  0  0  0  0  0  0  0  0  0  0
   47.9483  -29.0896 -107.8825 N   0  0  0  0  0  0  0  0  0  0  0  0
   47.0413  -28.6210 -107.0099 C   0  0  0  0  0  0  0  0  0  0  0  0
   47.0478  -27.2195 -106.6663 C   0  0  0  0  0  0  0  0  0  0  0  0
   48.0273  -26.3824 -107.2788 C   0  0  0  0  0  0  0  0  0  0  0  0
   48.0840  -25.0314 -107.0027 N   0  0  0  0  0  0  0  0  0  0  0  0
   46.0594  -27.0202 -105.7865 N   0  0  0  0  0  0  0  0  0  0  0  0
   45.4641  -28.1526 -105.5567 C   0  0  0  0  0  0  0  0  0  0  0  0
   46.0205  -29.1757 -106.2885 N   0  0  0  0  0  0  0  0  0  0  0  0
  2  1  1  6  0  0  0
  2  3  1  0  0  0  0
  2  5  1  0  0  0  0
  3  4  1  0  0  0  0
  3 17  1  0  0  0  0
  5  6  1  0  0  0  0
  7  6  1  6  0  0  0
  7  8  1  0  0  0  0
  7  9  1  0  0  0  0
 10  9  1  1  0  0  0
 10 11  1  0  0  0  0
 10 12  1  0  0  0  0
 11 16  1  0  0  0  0
 12 13  1  6  0  0  0
 12 14  1  0  0  0  0
 14 15  1  1  0  0  0
 14 16  1  0  0  0  0
 16 27  1  6  0  0  0
 18 19  2  0  0  0  0
 18 23  1  0  0  0  0
 19 20  1  0  0  0  0
 20 21  2  0  0  0  0
 21 22  1  0  0  0  0
 21 27  1  0  0  0  0
 22 23  2  0  0  0  0
 22 25  1  0  0  0  0
 23 24  1  0  0  0  0
 25 26  2  0  0  0  0
 26 27  1  0  0  0  0
M  END
>  <CHROM.1>
153.59805652,-60.72476306,-61.28358493,-83.62583467,-80.00783334,59.47829182
97.51252206,47.07060507,-30.03642617,-104.69930992,3.11184000,-1.50496393
-2.91462753

>  <Name>
ligand

>  <RI>
0

>  <Rbt.Current_Directory>
/home/itssahil/PROJECTS/Mol_Feturizer/Test_systems_manuscript/rnas/4l81

>  <Rbt.Executable>
rbdock ($Id: //depot/dev/client3/rdock/2013.1/src/exe/rbdock.cxx#4 $)

>  <Rbt.Library>
libRbt.so (2013.1, Build901 2013/11/27)

>  <Rbt.Parameter_File>
/export/apps/rDock/src/rDock_2013.1_src/data/scripts/dock_solv.prm

>  <Rbt.Receptor>
prm/pocket_docking_5.prm

>  <SCORE>
-15.5762

>  <SCORE.INTER>
-12.3939

>  <SCORE.INTER.CONST>
1

>  <SCORE.INTER.POLAR>
0

>  <SCORE.INTER.ROT>
7

>  <SCORE.INTER.SOLV>
8.96094

>  <SCORE.INTER.VDW>
-19.5163

>  <SCORE.INTER.norm>
-0.459034

>  <SCORE.INTRA>
-3.18225

>  <SCORE.INTRA.DIHEDRAL>
-4.13613

>  <SCORE.INTRA.DIHEDRAL.0>
8.34559

>  <SCORE.INTRA.POLAR>
0

>  <SCORE.INTRA.POLAR.0>
0

>  <SCORE.INTRA.REPUL>
0

>  <SCORE.INTRA.REPUL.0>
0

>  <SCORE.INTRA.SOLV>
0.633752

>  <SCORE.INTRA.SOLV.lig_0>
-48.829

>  <SCORE.INTRA.VDW>
-1.43106

>  <SCORE.INTRA.VDW.0>
-1.77092

>  <SCORE.INTRA.norm>
-0.117861

>  <SCORE.RESTR>
0

>  <SCORE.RESTR.CAVITY>
0

>  <SCORE.RESTR.norm>
0

>  <SCORE.SYSTEM>
0

>  <SCORE.SYSTEM.CONST>
0

>  <SCORE.SYSTEM.DIHEDRAL>
0

>  <SCORE.SYSTEM.SOLV>
0

>  <SCORE.SYSTEM.norm>
0

>  <SCORE.heavy>
27

>  <SCORE.norm>
-0.576895

>  <RMSD>
6.323

$$$$
ligand
 OpenBabel02271912153D
libRbt.so/2013.1/901 2013/11/27
 27 29  0  0  0  0  0  0  0  0999 V2000
   45.3507  -27.3462 -103.5512 N   0  0  0  0  0  0  0  0  0  0  0  0
   46.0901  -28.5732 -103.8681 C   0  0  2  0  0  0  0  0  0  0  0  0
   47.1086  -28.2839 -104.9505 C   0  0  0  0  0  0  0  0  0  0  0  0
   46.8413  -27.5057 -105.8536 O   0  0  0  0  0  0  0  0  0  0  0  0
   45.1489  -29.6826 -104.3565 C   0  0  0  0  0  0  0  0  0  0  0  0
   45.9157  -30.9748 -104.5998 C   0  0  0  0  0  0  0  0  0  0  0  0
   46.3146  -31.8832 -103.0573 S   0  0  2  0  0  0  0  0  0  0  0  0
   47.5763  -30.8456 -102.2505 C   0  0  0  0  0  0  0  0  0  0  0  0
   47.3923  -33.0855 -103.8332 C   0  0  0  0  0  0  0  0  0  0  0  0
   48.4208  -32.4757 -104.7482 C   0  0  1  0  0  0  0  0  0  0  0  0
   49.6245  -32.2755 -103.9879 O   0  0  0  0  0  0  0  0  0  0  0  0
   48.7012  -33.5707 -105.6969 C   0  0  1  0  0  0  0  0  0  0  0  0
   47.9395  -33.3796 -106.8880 O   0  0  0  0  0  0  0  0  0  0  0  0
   50.1582  -33.3822 -105.9862 C   0  0  1  0  0  0  0  0  0  0  0  0
   50.3376  -32.4521 -107.0744 O   0  0  0  0  0  0  0  0  0  0  0  0
   50.7838  -32.7989 -104.6837 C   0  0  2  0  0  0  0  0  0  0  0  0
   48.2127  -28.7981 -104.9118 O   0  0  0  0  0  0  0  0  0  0  0  0
   52.6439  -33.9374  -99.8420 N   0  0  0  0  0  0  0  0  0  0  0  0
   52.1260  -32.7614 -100.2742 C   0  0  0  0  0  0  0  0  0  0  0  0
   51.6462  -32.6148 -101.5269 N   0  0  0  0  0  0  0  0  0  0  0  0
   51.7482  -33.6122 -102.4203 C   0  0  0  0  0  0  0  0  0  0  0  0
   52.3307  -34.8687 -102.0150 C   0  0  0  0  0  0  0  0  0  0  0  0
   52.7747  -34.9989 -100.6655 C   0  0  0  0  0  0  0  0  0  0  0  0
   53.3322  -36.1758 -100.2086 N   0  0  0  0  0  0  0  0  0  0  0  0
   52.3171  -35.6768 -103.0816 N   0  0  0  0  0  0  0  0  0  0  0  0
   51.7972  -35.0390 -104.0878 C   0  0  0  0  0  0  0  0  0  0  0  0
   51.4201  -33.7630 -103.7393 N   0  0  0  0  0  0  0  0  0  0  0  0
  2  1  1  6  0  0  0
  2  3  1  0  0  0  0
  2  5  1  0  0  0  0
  3  4  1  0  0  0  0
  3 17  1  0  0  0  0
  5  6  1  0  0  0  0
  7  6  1  6  0  0  0
  7  8  1  0  0  0  0
  7  9  1  0  0  0  0
 10  9  1  1  0  0  0
 10 11  1  0  0  0  0
 10 12  1  0  0  0  0
 11 16  1  0  0  0  0
 12 13  1  6  0  0  0
 12 14  1  0  0  0  0
 14 15  1  6  0  0  0
 14 16  1  0  0  0  0
 16 27  1  1  0  0  0
 18 19  2  0  0  0  0
 18 23  1  0  0  0  0
 19 20  1  0  0  0  0
 20 21  2  0  0  0  0
 21 22  1  0  0  0  0
 21 27  1  0  0  0  0
 22 23  2  0  0  0  0
 22 25  1  0  0  0  0
 23 24  1  0  0  0  0
 25 26  2  0  0  0  0
 26 27  1  0  0  0  0
M  END
>  <CHROM.1>
-36.95630204,-176.50971775,77.64480671,-70.27918691,48.55611538,93.79525633
-49.01652048,49.18893251,-32.16481356,-103.67963854,3.02999444,0.78216036
-1.89348256

>  <Name>
ligand

>  <RI>
0

>  <Rbt.Current_Directory>
/home/itssahil/PROJECTS/Mol_Feturizer/Test_systems_manuscript/rnas/4l81

>  <Rbt.Executable>
rbdock ($Id: //depot/dev/client3/rdock/2013.1/src/exe/rbdock.cxx#4 $)

>  <Rbt.Library>
libRbt.so (2013.1, Build901 2013/11/27)

>  <Rbt.Parameter_File>
/export/apps/rDock/src/rDock_2013.1_src/data/scripts/dock_solv.prm

>  <Rbt.Receptor>
prm/pocket_docking_8.prm

>  <SCORE>
-11.92

>  <SCORE.INTER>
-11.6174

>  <SCORE.INTER.CONST>
1

>  <SCORE.INTER.POLAR>
0

>  <SCORE.INTER.ROT>
7

>  <SCORE.INTER.SOLV>
9.4806

>  <SCORE.INTER.VDW>
-19.1718

>  <SCORE.INTER.norm>
-0.430273

>  <SCORE.INTRA>
-0.302605

>  <SCORE.INTRA.DIHEDRAL>
-0.793551

>  <SCORE.INTRA.DIHEDRAL.0>
8.34559

>  <SCORE.INTRA.POLAR>
0

>  <SCORE.INTRA.POLAR.0>
0

>  <SCORE.INTRA.REPUL>
0

>  <SCORE.INTRA.REPUL.0>
0

>  <SCORE.INTRA.SOLV>
-0.678608

>  <SCORE.INTRA.SOLV.lig_0>
-48.829

>  <SCORE.INTRA.VDW>
0.433475

>  <SCORE.INTRA.VDW.0>
-1.77092

>  <SCORE.INTRA.norm>
-0.0112076

>  <SCORE.RESTR>
0

>  <SCORE.RESTR.CAVITY>
0

>  <SCORE.RESTR.norm>
0

>  <SCORE.SYSTEM>
0

>  <SCORE.SYSTEM.CONST>
0

>  <SCORE.SYSTEM.DIHEDRAL>
0

>  <SCORE.SYSTEM.SOLV>
0

>  <SCORE.SYSTEM.norm>
0

>  <SCORE.heavy>
27

>  <SCORE.norm>
-0.441481

>  <RMSD>
6.343

$$$$
ligand
 OpenBabel02271912153D
libRbt.so/2013.1/901 2013/11/27
 27 29  0  0  0  0  0  0  0  0999 V2000
   52.5401  -32.6149 -102.8993 N   0  0  0  0  0  0  0  0  0  0  0  0
   51.2975  -31.9306 -102.5247 C   0  0  2  0  0  0  0  0  0  0  0  0
   51.1792  -31.8882 -101.0157 C   0  0  0  0  0  0  0  0  0  0  0  0
   51.5825  -32.8237 -100.3413 O   0  0  0  0  0  0  0  0  0  0  0  0
   50.0688  -32.6491 -103.0986 C   0  0  0  0  0  0  0  0  0  0  0  0
   48.8066  -31.8300 -102.8692 C   0  0  0  0  0  0  0  0  0  0  0  0
   47.2668  -32.7424 -103.2691 S   0  0  2  0  0  0  0  0  0  0  0  0
   47.2162  -32.7413 -105.0904 C   0  0  0  0  0  0  0  0  0  0  0  0
   46.1603  -31.3691 -102.9554 C   0  0  0  0  0  0  0  0  0  0  0  0
   46.3072  -30.7747 -101.5799 C   0  0  1  0  0  0  0  0  0  0  0  0
   47.3357  -29.7719 -101.6402 O   0  0  0  0  0  0  0  0  0  0  0  0
   45.0310  -30.0561 -101.3988 C   0  0  1  0  0  0  0  0  0  0  0  0
   44.1287  -30.8647 -100.6455 O   0  0  0  0  0  0  0  0  0  0  0  0
   45.4435  -28.8635 -100.5928 C   0  0  1  0  0  0  0  0  0  0  0  0
   45.4171  -29.1760  -99.1846 O   0  0  0  0  0  0  0  0  0  0  0  0
   46.9004  -28.5294 -101.0329 C   0  0  2  0  0  0  0  0  0  0  0  0
   50.7122  -30.9089 -100.4610 O   0  0  0  0  0  0  0  0  0  0  0  0
   44.9191  -25.6813 -105.0530 N   0  0  0  0  0  0  0  0  0  0  0  0
   44.2997  -26.6592 -104.3474 C   0  0  0  0  0  0  0  0  0  0  0  0
   44.9050  -27.2810 -103.3139 N   0  0  0  0  0  0  0  0  0  0  0  0
   46.1835  -27.0096 -103.0054 C   0  0  0  0  0  0  0  0  0  0  0  0
   46.8951  -26.0042 -103.7573 C   0  0  0  0  0  0  0  0  0  0  0  0
   46.1994  -25.3322 -104.8059 C   0  0  0  0  0  0  0  0  0  0  0  0
   46.8164  -24.3534 -105.5582 N   0  0  0  0  0  0  0  0  0  0  0  0
   48.1341  -25.9346 -103.2566 N   0  0  0  0  0  0  0  0  0  0  0  0
   48.2478  -26.7961 -102.2900 C   0  0  0  0  0  0  0  0  0  0  0  0
   47.0749  -27.4840 -102.0832 N   0  0  0  0  0  0  0  0  0  0  0  0
  2  1  1  1  0  0  0
  2  3  1  0  0  0  0
  2  5  1  0  0  0  0
  3  4  1  0  0  0  0
  3 17  1  0  0  0  0
  5  6  1  0  0  0  0
  7  6  1  6  0  0  0
  7  8  1  0  0  0  0
  7  9  1  0  0  0  0
 10  9  1  6  0  0  0
 10 11  1  0  0  0  0
 10 12  1  0  0  0  0
 11 16  1  0  0  0  0
 12 13  1  1  0  0  0
 12 14  1  0  0  0  0
 14 15  1  1  0  0  0
 14 16  1  0  0  0  0
 16 27  1  6  0  0  0
 18 19  2  0  0  0  0
 18 23  1  0  0  0  0
 19 20  1  0  0  0  0
 20 21  2  0  0  0  0
 21 22  1  0  0  0  0
 21 27  1  0  0  0  0
 22 23  2  0  0  0  0
 22 25  1  0  0  0  0
 23 24  1  0  0  0  0
 25 26  2  0  0  0  0
 26 27  1  0  0  0  0
M  END
>  <CHROM.1>
-35.47001183,-172.14804686,-170.24944027,-75.53760817,-55.38824932,87.49768357
92.87147437,47.46239263,-29.59212147,-102.50271829,-0.94795455,0.22287052
-0.41762336

>  <Name>
ligand

>  <RI>
0

>  <Rbt.Current_Directory>
/home/itssahil/PROJECTS/Mol_Feturizer/Test_systems_manuscript/rnas/4l81

>  <Rbt.Executable>
rbdock ($Id: //depot/dev/client3/rdock/2013.1/src/exe/rbdock.cxx#4 $)

>  <Rbt.Library>
libRbt.so (2013.1, Build901 2013/11/27)

>  <Rbt.Parameter_File>
/export/apps/rDock/src/rDock_2013.1_src/data/scripts/dock_solv.prm

>  <Rbt.Receptor>
prm/pocket_docking_5.prm

>  <SCORE>
-19.9889

>  <SCORE.INTER>
-18.1897

>  <SCORE.INTER.CONST>
1

>  <SCORE.INTER.POLAR>
0

>  <SCORE.INTER.ROT>
7

>  <SCORE.INTER.SOLV>
16.2161

>  <SCORE.INTER.VDW>
-25.7985

>  <SCORE.INTER.norm>
-0.673692

>  <SCORE.INTRA>
-1.79925

>  <SCORE.INTRA.DIHEDRAL>
-1.68213

>  <SCORE.INTRA.DIHEDRAL.0>
8.34559

>  <SCORE.INTRA.POLAR>
0

>  <SCORE.INTRA.POLAR.0>
0

>  <SCORE.INTRA.REPUL>
0

>  <SCORE.INTRA.REPUL.0>
0

>  <SCORE.INTRA.SOLV>
-1.2167

>  <SCORE.INTRA.SOLV.lig_0>
-48.829

>  <SCORE.INTRA.VDW>
-0.349841

>  <SCORE.INTRA.VDW.0>
-1.77092

>  <SCORE.INTRA.norm>
-0.066639

>  <SCORE.RESTR>
0

>  <SCORE.RESTR.CAVITY>
0

>  <SCORE.RESTR.norm>
0

>  <SCORE.SYSTEM>
0

>  <SCORE.SYSTEM.CONST>
0

>  <SCORE.SYSTEM.DIHEDRAL>
0

>  <SCORE.SYSTEM.SOLV>
0

>  <SCORE.SYSTEM.norm>
0

>  <SCORE.heavy>
27

>  <SCORE.norm>
-0.740331

>  <RMSD>
6.346

$$$$
ligand
 OpenBabel02271912153D
libRbt.so/2013.1/901 2013/11/27
 27 29  0  0  0  0  0  0  0  0999 V2000
   51.1103  -29.1402 -103.3944 N   0  0  0  0  0  0  0  0  0  0  0  0
   50.4712  -30.1750 -102.5737 C   0  0  2  0  0  0  0  0  0  0  0  0
   51.4506  -31.3041 -102.3314 C   0  0  0  0  0  0  0  0  0  0  0  0
   51.4766  -31.8737 -101.2509 O   0  0  0  0  0  0  0  0  0  0  0  0
   49.2217  -30.7414 -103.2616 C   0  0  0  0  0  0  0  0  0  0  0  0
   48.5947  -31.8452 -102.4216 C   0  0  0  0  0  0  0  0  0  0  0  0
   47.2173  -32.7091 -103.2700 S   0  0  2  0  0  0  0  0  0  0  0  0
   47.7684  -32.8179 -105.0032 C   0  0  0  0  0  0  0  0  0  0  0  0
   46.1589  -31.2698 -103.4005 C   0  0  0  0  0  0  0  0  0  0  0  0
   45.7715  -30.6800 -102.0705 C   0  0  1  0  0  0  0  0  0  0  0  0
   46.6864  -29.6099 -101.7791 O   0  0  0  0  0  0  0  0  0  0  0  0
   44.4689  -30.0506 -102.3614 C   0  0  1  0  0  0  0  0  0  0  0  0
   43.4145  -30.9251 -101.9628 O   0  0  0  0  0  0  0  0  0  0  0  0
   44.4906  -28.8407 -101.4795 C   0  0  1  0  0  0  0  0  0  0  0  0
   43.9900  -29.1677 -100.1665 O   0  0  0  0  0  0  0  0  0  0  0  0
   45.9836  -28.4053 -101.3827 C   0  0  2  0  0  0  0  0  0  0  0  0
   52.1964  -31.6752 -103.2208 O   0  0  0  0  0  0  0  0  0  0  0  0
   49.9339  -25.5872 -103.5394 N   0  0  0  0  0  0  0  0  0  0  0  0
   50.0259  -26.5437 -102.5831 C   0  0  0  0  0  0  0  0  0  0  0  0
   48.9417  -27.2192 -102.1482 N   0  0  0  0  0  0  0  0  0  0  0  0
   47.7140  -26.9009 -102.5896 C   0  0  0  0  0  0  0  0  0  0  0  0
   47.5650  -25.8601 -103.5781 C   0  0  0  0  0  0  0  0  0  0  0  0
   48.7433  -25.2095 -104.0511 C   0  0  0  0  0  0  0  0  0  0  0  0
   48.6741  -24.2126 -105.0029 N   0  0  0  0  0  0  0  0  0  0  0  0
   46.2576  -25.7405 -103.8370 N   0  0  0  0  0  0  0  0  0  0  0  0
   45.6026  -26.5911 -103.1042 C   0  0  0  0  0  0  0  0  0  0  0  0
   46.4476  -27.3405 -102.3193 N   0  0  0  0  0  0  0  0  0  0  0  0
  2  1  1  6  0  0  0
  2  3  1  0  0  0  0
  2  5  1  0  0  0  0
  3  4  1  0  0  0  0
  3 17  1  0  0  0  0
  5  6  1  0  0  0  0
  7  6  1  1  0  0  0
  7  8  1  0  0  0  0
  7  9  1  0  0  0  0
 10  9  1  6  0  0  0
 10 11  1  0  0  0  0
 10 12  1  0  0  0  0
 11 16  1  0  0  0  0
 12 13  1  1  0  0  0
 12 14  1  0  0  0  0
 14 15  1  1  0  0  0
 14 16  1  0  0  0  0
 16 27  1  6  0  0  0
 18 19  2  0  0  0  0
 18 23  1  0  0  0  0
 19 20  1  0  0  0  0
 20 21  2  0  0  0  0
 21 22  1  0  0  0  0
 21 27  1  0  0  0  0
 22 23  2  0  0  0  0
 22 25  1  0  0  0  0
 23 24  1  0  0  0  0
 25 26  2  0  0  0  0
 26 27  1  0  0  0  0
M  END
>  <CHROM.1>
142.50459019,178.12838598,-173.02182060,38.08610778,-61.13457724,95.52054734
-56.34180128,47.75648268,-29.25511442,-102.74758483,-1.29079297,0.16974971
-0.10377445

>  <Name>
ligand

>  <RI>
0

>  <Rbt.Current_Directory>
/home/itssahil/PROJECTS/Mol_Feturizer/Test_systems_manuscript/rnas/4l81

>  <Rbt.Executable>
rbdock ($Id: //depot/dev/client3/rdock/2013.1/src/exe/rbdock.cxx#4 $)

>  <Rbt.Library>
libRbt.so (2013.1, Build901 2013/11/27)

>  <Rbt.Parameter_File>
/export/apps/rDock/src/rDock_2013.1_src/data/scripts/dock_solv.prm

>  <Rbt.Receptor>
prm/pocket_docking_3.prm

>  <SCORE>
-11.9783

>  <SCORE.INTER>
-12.1967

>  <SCORE.INTER.CONST>
1

>  <SCORE.INTER.POLAR>
0

>  <SCORE.INTER.ROT>
7

>  <SCORE.INTER.SOLV>
12.355

>  <SCORE.INTER.VDW>
-20.5161

>  <SCORE.INTER.norm>
-0.451728

>  <SCORE.INTRA>
-0.183698

>  <SCORE.INTRA.DIHEDRAL>
-1.15391

>  <SCORE.INTRA.DIHEDRAL.0>
8.34559

>  <SCORE.INTRA.POLAR>
0

>  <SCORE.INTRA.POLAR.0>
0

>  <SCORE.INTRA.REPUL>
0

>  <SCORE.INTRA.REPUL.0>
0

>  <SCORE.INTRA.SOLV>
0.171855

>  <SCORE.INTRA.SOLV.lig_0>
-48.829

>  <SCORE.INTRA.VDW>
0.307327

>  <SCORE.INTRA.VDW.0>
-1.77092

>  <SCORE.INTRA.norm>
-0.00680364

>  <SCORE.RESTR>
0.402044

>  <SCORE.RESTR.CAVITY>
0.402044

>  <SCORE.RESTR.norm>
0.0148905

>  <SCORE.SYSTEM>
0

>  <SCORE.SYSTEM.CONST>
0

>  <SCORE.SYSTEM.DIHEDRAL>
0

>  <SCORE.SYSTEM.SOLV>
0

>  <SCORE.SYSTEM.norm>
0

>  <SCORE.heavy>
27

>  <SCORE.norm>
-0.443641

>  <RMSD>
6.375

$$$$
ligand
 OpenBabel02271912153D
libRbt.so/2013.1/901 2013/11/27
 27 29  0  0  0  0  0  0  0  0999 V2000
   47.6355  -31.1698 -101.1983 N   0  0  0  0  0  0  0  0  0  0  0  0
   46.6286  -30.1030 -101.1682 C   0  0  2  0  0  0  0  0  0  0  0  0
   46.3111  -29.7483  -99.7308 C   0  0  0  0  0  0  0  0  0  0  0  0
   46.9271  -30.2761  -98.8172 O   0  0  0  0  0  0  0  0  0  0  0  0
   45.3341  -30.5363 -101.8697 C   0  0  0  0  0  0  0  0  0  0  0  0
   44.5637  -29.3265 -102.3795 C   0  0  0  0  0  0  0  0  0  0  0  0
   45.4862  -28.3533 -103.6305 S   0  0  2  0  0  0  0  0  0  0  0  0
   44.3999  -26.9301 -103.9682 C   0  0  0  0  0  0  0  0  0  0  0  0
   45.0391  -29.3863 -105.0239 C   0  0  0  0  0  0  0  0  0  0  0  0
   45.8581  -29.1244 -106.2598 C   0  0  1  0  0  0  0  0  0  0  0  0
   45.8788  -27.7042 -106.4827 O   0  0  0  0  0  0  0  0  0  0  0  0
   47.2194  -29.5018 -105.8331 C   0  0  1  0  0  0  0  0  0  0  0  0
   47.5063  -30.8304 -106.2667 O   0  0  0  0  0  0  0  0  0  0  0  0
   48.0742  -28.5247 -106.5792 C   0  0  1  0  0  0  0  0  0  0  0  0
   48.3912  -29.0346 -107.8910 O   0  0  0  0  0  0  0  0  0  0  0  0
   47.2276  -27.2229 -106.7084 C   0  0  2  0  0  0  0  0  0  0  0  0
   45.4634  -28.9111  -99.4749 O   0  0  0  0  0  0  0  0  0  0  0  0
   50.1755  -25.1391 -102.8141 N   0  0  0  0  0  0  0  0  0  0  0  0
   50.4013  -26.2869 -103.4993 C   0  0  0  0  0  0  0  0  0  0  0  0
   49.5914  -26.6859 -104.5022 N   0  0  0  0  0  0  0  0  0  0  0  0
   48.4766  -25.9977 -104.7971 C   0  0  0  0  0  0  0  0  0  0  0  0
   48.1750  -24.7912 -104.0650 C   0  0  0  0  0  0  0  0  0  0  0  0
   49.0875  -24.3758 -103.0500 C   0  0  0  0  0  0  0  0  0  0  0  0
   48.8655  -23.2269 -102.3183 N   0  0  0  0  0  0  0  0  0  0  0  0
   47.0226  -24.3104 -104.5463 N   0  0  0  0  0  0  0  0  0  0  0  0
   46.5934  -25.1024 -105.4833 C   0  0  0  0  0  0  0  0  0  0  0  0
   47.4519  -26.1571 -105.6886 N   0  0  0  0  0  0  0  0  0  0  0  0
  2  1  1  1  0  0  0
  2  3  1  0  0  0  0
  2  5  1  0  0  0  0
  3  4  1  0  0  0  0
  3 17  1  0  0  0  0
  5  6  1  0  0  0  0
  7  6  1  1  0  0  0
  7  8  1  0  0  0  0
  7  9  1  0  0  0  0
 10  9  1  1  0  0  0
 10 11  1  0  0  0  0
 10 12  1  0  0  0  0
 11 16  1  0  0  0  0
 12 13  1  6  0  0  0
 12 14  1  0  0  0  0
 14 15  1  6  0  0  0
 14 16  1  0  0  0  0
 16 27  1  1  0  0  0
 18 19  2  0  0  0  0
 18 23  1  0  0  0  0
 19 20  1  0  0  0  0
 20 21  2  0  0  0  0
 21 22  1  0  0  0  0
 21 27  1  0  0  0  0
 22 23  2  0  0  0  0
 22 25  1  0  0  0  0
 23 24  1  0  0  0  0
 25 26  2  0  0  0  0
 26 27  1  0  0  0  0
M  END
>  <CHROM.1>
4.21267822,-154.98758890,61.99800069,-176.13217826,-166.57584629,-48.60044987
128.60220643,47.05424329,-27.83687785,-103.83605856,-2.38148179,-1.07991728
-1.58686770

>  <Name>
ligand

>  <RI>
0

>  <Rbt.Current_Directory>
/home/itssahil/PROJECTS/Mol_Feturizer/Test_systems_manuscript/rnas/4l81

>  <Rbt.Executable>
rbdock ($Id: //depot/dev/client3/rdock/2013.1/src/exe/rbdock.cxx#4 $)

>  <Rbt.Library>
libRbt.so (2013.1, Build901 2013/11/27)

>  <Rbt.Parameter_File>
/export/apps/rDock/src/rDock_2013.1_src/data/scripts/dock_solv.prm

>  <Rbt.Receptor>
prm/pocket_docking_6.prm

>  <SCORE>
-9.78039

>  <SCORE.INTER>
-7.85824

>  <SCORE.INTER.CONST>
1

>  <SCORE.INTER.POLAR>
0

>  <SCORE.INTER.ROT>
7

>  <SCORE.INTER.SOLV>
16.1404

>  <SCORE.INTER.VDW>
-18.8856

>  <SCORE.INTER.norm>
-0.291046

>  <SCORE.INTRA>
-1.92215

>  <SCORE.INTRA.DIHEDRAL>
-0.74861

>  <SCORE.INTRA.DIHEDRAL.0>
8.34559

>  <SCORE.INTRA.POLAR>
0

>  <SCORE.INTRA.POLAR.0>
0

>  <SCORE.INTRA.REPUL>
0

>  <SCORE.INTRA.REPUL.0>
0

>  <SCORE.INTRA.SOLV>
-0.642046

>  <SCORE.INTRA.SOLV.lig_0>
-48.829

>  <SCORE.INTRA.VDW>
-1.22682

>  <SCORE.INTRA.VDW.0>
-1.77092

>  <SCORE.INTRA.norm>
-0.0711908

>  <SCORE.RESTR>
0

>  <SCORE.RESTR.CAVITY>
0

>  <SCORE.RESTR.norm>
0

>  <SCORE.SYSTEM>
0

>  <SCORE.SYSTEM.CONST>
0

>  <SCORE.SYSTEM.DIHEDRAL>
0

>  <SCORE.SYSTEM.SOLV>
0

>  <SCORE.SYSTEM.norm>
0

>  <SCORE.heavy>
27

>  <SCORE.norm>
-0.362237

>  <RMSD>
6.379

$$$$
ligand
 OpenBabel02271912153D
libRbt.so/2013.1/901 2013/11/27
 27 29  0  0  0  0  0  0  0  0999 V2000
   50.7113  -29.6203 -101.8147 N   0  0  0  0  0  0  0  0  0  0  0  0
   50.2020  -30.6711 -100.9262 C   0  0  2  0  0  0  0  0  0  0  0  0
   51.1821  -31.8249 -100.8947 C   0  0  0  0  0  0  0  0  0  0  0  0
   51.3104  -32.4946  -99.8809 O   0  0  0  0  0  0  0  0  0  0  0  0
   48.8383  -31.1915 -101.4003 C   0  0  0  0  0  0  0  0  0  0  0  0
   48.9116  -31.6630 -102.8457 C   0  0  0  0  0  0  0  0  0  0  0  0
   47.4799  -32.6941 -103.3461 S   0  0  2  0  0  0  0  0  0  0  0  0
   47.8050  -33.0768 -105.0975 C   0  0  0  0  0  0  0  0  0  0  0  0
   46.3433  -31.3266 -103.5624 C   0  0  0  0  0  0  0  0  0  0  0  0
   45.8535  -30.7352 -102.2674 C   0  0  1  0  0  0  0  0  0  0  0  0
   46.6522  -29.5742 -101.9824 O   0  0  0  0  0  0  0  0  0  0  0  0
   44.5090  -30.2421 -102.6236 C   0  0  1  0  0  0  0  0  0  0  0  0
   43.5277  -31.2003 -102.2308 O   0  0  0  0  0  0  0  0  0  0  0  0
   44.3843  -29.0088 -101.7837 C   0  0  1  0  0  0  0  0  0  0  0  0
   43.8687  -29.3409 -100.4779 O   0  0  0  0  0  0  0  0  0  0  0  0
   45.8251  -28.4303 -101.6518 C   0  0  2  0  0  0  0  0  0  0  0  0
   51.8252  -32.1151 -101.8882 O   0  0  0  0  0  0  0  0  0  0  0  0
   44.6832  -25.3360 -105.8134 N   0  0  0  0  0  0  0  0  0  0  0  0
   43.9110  -26.3076 -105.2680 C   0  0  0  0  0  0  0  0  0  0  0  0
   44.3037  -26.9977 -104.1769 N   0  0  0  0  0  0  0  0  0  0  0  0
   45.5213  -26.8028 -103.6450 C   0  0  0  0  0  0  0  0  0  0  0  0
   46.3933  -25.8065 -104.2192 C   0  0  0  0  0  0  0  0  0  0  0  0
   45.9163  -25.0611 -105.3382 C   0  0  0  0  0  0  0  0  0  0  0  0
   46.6943  -24.0868 -105.9299 N   0  0  0  0  0  0  0  0  0  0  0  0
   47.5306  -25.8182 -103.5140 N   0  0  0  0  0  0  0  0  0  0  0  0
   47.4405  -26.7204 -102.5827 C   0  0  0  0  0  0  0  0  0  0  0  0
   46.2211  -27.3559 -102.6085 N   0  0  0  0  0  0  0  0  0  0  0  0
  2  1  1  6  0  0  0
  2  3  1  0  0  0  0
  2  5  1  0  0  0  0
  3  4  1  0  0  0  0
  3 17  1  0  0  0  0
  5  6  1  0  0  0  0
  7  6  1  1  0  0  0
  7  8  1  0  0  0  0
  7  9  1  0  0  0  0
 10  9  1  6  0  0  0
 10 11  1  0  0  0  0
 10 12  1  0  0  0  0
 11 16  1  0  0  0  0
 12 13  1  1  0  0  0
 12 14  1  0  0  0  0
 14 15  1  1  0  0  0
 14 16  1  0  0  0  0
 16 27  1  6  0  0  0
 18 19  2  0  0  0  0
 18 23  1  0  0  0  0
 19 20  1  0  0  0  0
 20 21  2  0  0  0  0
 21 22  1  0  0  0  0
 21 27  1  0  0  0  0
 22 23  2  0  0  0  0
 22 25  1  0  0  0  0
 23 24  1  0  0  0  0
 25 26  2  0  0  0  0
 26 27  1  0  0  0  0
M  END
>  <CHROM.1>
147.96611524,54.98932132,164.69627332,178.72523577,-74.63550299,97.68859800
110.99866951,47.01323546,-29.36972533,-102.85633930,-0.95309126,-0.11051574
-0.33585137

>  <Name>
ligand

>  <RI>
0

>  <Rbt.Current_Directory>
/home/itssahil/PROJECTS/Mol_Feturizer/Test_systems_manuscript/rnas/4l81

>  <Rbt.Executable>
rbdock ($Id: //depot/dev/client3/rdock/2013.1/src/exe/rbdock.cxx#4 $)

>  <Rbt.Library>
libRbt.so (2013.1, Build901 2013/11/27)

>  <Rbt.Parameter_File>
/export/apps/rDock/src/rDock_2013.1_src/data/scripts/dock_solv.prm

>  <Rbt.Receptor>
prm/pocket_docking_8.prm

>  <SCORE>
-17.4338

>  <SCORE.INTER>
-17.0335

>  <SCORE.INTER.CONST>
1

>  <SCORE.INTER.POLAR>
0

>  <SCORE.INTER.ROT>
7

>  <SCORE.INTER.SOLV>
12.8566

>  <SCORE.INTER.VDW>
-23.9079

>  <SCORE.INTER.norm>
-0.630872

>  <SCORE.INTRA>
-0.40026

>  <SCORE.INTRA.DIHEDRAL>
-0.341037

>  <SCORE.INTRA.DIHEDRAL.0>
8.34559

>  <SCORE.INTRA.POLAR>
0

>  <SCORE.INTRA.POLAR.0>
0

>  <SCORE.INTRA.REPUL>
0

>  <SCORE.INTRA.REPUL.0>
0

>  <SCORE.INTRA.SOLV>
-0.176625

>  <SCORE.INTRA.SOLV.lig_0>
-48.829

>  <SCORE.INTRA.VDW>
-0.141429

>  <SCORE.INTRA.VDW.0>
-1.77092

>  <SCORE.INTRA.norm>
-0.0148244

>  <SCORE.RESTR>
0

>  <SCORE.RESTR.CAVITY>
0

>  <SCORE.RESTR.norm>
0

>  <SCORE.SYSTEM>
0

>  <SCORE.SYSTEM.CONST>
0

>  <SCORE.SYSTEM.DIHEDRAL>
0

>  <SCORE.SYSTEM.SOLV>
0

>  <SCORE.SYSTEM.norm>
0

>  <SCORE.heavy>
27

>  <SCORE.norm>
-0.645696

>  <RMSD>
6.383

$$$$
ligand
 OpenBabel02271912153D
libRbt.so/2013.1/901 2013/11/27
 27 29  0  0  0  0  0  0  0  0999 V2000
   50.4277  -27.6073 -103.2598 N   0  0  0  0  0  0  0  0  0  0  0  0
   49.2922  -28.4147 -103.7197 C   0  0  2  0  0  0  0  0  0  0  0  0
   49.1669  -28.2997 -105.2243 C   0  0  0  0  0  0  0  0  0  0  0  0
   49.7496  -27.4082 -105.8231 O   0  0  0  0  0  0  0  0  0  0  0  0
   47.9788  -27.9501 -103.0758 C   0  0  0  0  0  0  0  0  0  0  0  0
   47.9629  -28.2695 -101.5877 C   0  0  0  0  0  0  0  0  0  0  0  0
   47.4703  -29.9977 -101.2217 S   0  0  2  0  0  0  0  0  0  0  0  0
   46.8964  -29.9342  -99.4937 C   0  0  0  0  0  0  0  0  0  0  0  0
   49.1339  -30.6013 -100.9444 C   0  0  0  0  0  0  0  0  0  0  0  0
   49.9062  -30.8531 -102.2120 C   0  0  1  0  0  0  0  0  0  0  0  0
   51.2504  -31.2087 -101.8465 O   0  0  0  0  0  0  0  0  0  0  0  0
   49.2762  -32.0795 -102.7379 C   0  0  1  0  0  0  0  0  0  0  0  0
   48.3096  -31.7345 -103.7289 O   0  0  0  0  0  0  0  0  0  0  0  0
   50.4311  -32.7882 -103.3751 C   0  0  1  0  0  0  0  0  0  0  0  0
   50.6025  -32.3446 -104.7372 O   0  0  0  0  0  0  0  0  0  0  0  0
   51.6864  -32.4087 -102.5336 C   0  0  2  0  0  0  0  0  0  0  0  0
   48.5124  -29.1131 -105.8527 O   0  0  0  0  0  0  0  0  0  0  0  0
   53.1265  -37.2938 -101.0303 N   0  0  0  0  0  0  0  0  0  0  0  0
   52.7672  -36.8819 -102.2710 C   0  0  0  0  0  0  0  0  0  0  0  0
   52.4616  -35.5933 -102.5303 N   0  0  0  0  0  0  0  0  0  0  0  0
   52.4179  -34.6873 -101.5401 C   0  0  0  0  0  0  0  0  0  0  0  0
   52.7531  -35.0911 -100.1958 C   0  0  0  0  0  0  0  0  0  0  0  0
   53.1241  -36.4510  -99.9759 C   0  0  0  0  0  0  0  0  0  0  0  0
   53.4660  -36.9024  -98.7173 N   0  0  0  0  0  0  0  0  0  0  0  0
   52.6263  -34.0135  -99.4126 N   0  0  0  0  0  0  0  0  0  0  0  0
   52.2422  -33.0065 -100.1391 C   0  0  0  0  0  0  0  0  0  0  0  0
   52.1039  -33.3586 -101.4614 N   0  0  0  0  0  0  0  0  0  0  0  0
  2  1  1  1  0  0  0
  2  3  1  0  0  0  0
  2  5  1  0  0  0  0
  3  4  1  0  0  0  0
  3 17  1  0  0  0  0
  5  6  1  0  0  0  0
  7  6  1  1  0  0  0
  7  8  1  0  0  0  0
  7  9  1  0  0  0  0
 10  9  1  1  0  0  0
 10 11  1  0  0  0  0
 10 12  1  0  0  0  0
 11 16  1  0  0  0  0
 12 13  1  6  0  0  0
 12 14  1  0  0  0  0
 14 15  1  6  0  0  0
 14 16  1  0  0  0  0
 16 27  1  1  0  0  0
 18 19  2  0  0  0  0
 18 23  1  0  0  0  0
 19 20  1  0  0  0  0
 20 21  2  0  0  0  0
 21 22  1  0  0  0  0
 21 27  1  0  0  0  0
 22 23  2  0  0  0  0
 22 25  1  0  0  0  0
 23 24  1  0  0  0  0
 25 26  2  0  0  0  0
 26 27  1  0  0  0  0
M  END
>  <CHROM.1>
-15.59189019,-68.96613035,-82.47499238,-158.25489137,-78.08585796,174.67400759
169.80871399,50.34458696,-31.81542590,-102.18734667,-2.44971157,-0.88468927
2.01320884

>  <Name>
ligand

>  <RI>
0

>  <Rbt.Current_Directory>
/home/itssahil/PROJECTS/Mol_Feturizer/Test_systems_manuscript/rnas/4l81

>  <Rbt.Executable>
rbdock ($Id: //depot/dev/client3/rdock/2013.1/src/exe/rbdock.cxx#4 $)

>  <Rbt.Library>
libRbt.so (2013.1, Build901 2013/11/27)

>  <Rbt.Parameter_File>
/export/apps/rDock/src/rDock_2013.1_src/data/scripts/dock_solv.prm

>  <Rbt.Receptor>
prm/pocket_docking_8.prm

>  <SCORE>
-16.322

>  <SCORE.INTER>
-15.6889

>  <SCORE.INTER.CONST>
1

>  <SCORE.INTER.POLAR>
0

>  <SCORE.INTER.ROT>
7

>  <SCORE.INTER.SOLV>
8.5341

>  <SCORE.INTER.VDW>
-21.5706

>  <SCORE.INTER.norm>
-0.58107

>  <SCORE.INTRA>
-0.633075

>  <SCORE.INTRA.DIHEDRAL>
-0.336227

>  <SCORE.INTRA.DIHEDRAL.0>
8.34559

>  <SCORE.INTRA.POLAR>
0

>  <SCORE.INTRA.POLAR.0>
0

>  <SCORE.INTRA.REPUL>
0

>  <SCORE.INTRA.REPUL.0>
0

>  <SCORE.INTRA.SOLV>
1.83785

>  <SCORE.INTRA.SOLV.lig_0>
-48.829

>  <SCORE.INTRA.VDW>
-1.38388

>  <SCORE.INTRA.VDW.0>
-1.77092

>  <SCORE.INTRA.norm>
-0.0234472

>  <SCORE.RESTR>
0

>  <SCORE.RESTR.CAVITY>
0

>  <SCORE.RESTR.norm>
0

>  <SCORE.SYSTEM>
0

>  <SCORE.SYSTEM.CONST>
0

>  <SCORE.SYSTEM.DIHEDRAL>
0

>  <SCORE.SYSTEM.SOLV>
0

>  <SCORE.SYSTEM.norm>
0

>  <SCORE.heavy>
27

>  <SCORE.norm>
-0.604518

>  <RMSD>
6.389

$$$$
ligand
 OpenBabel02271912153D
libRbt.so/2013.1/901 2013/11/27
 27 29  0  0  0  0  0  0  0  0999 V2000
   50.9751  -26.0892 -102.8598 N   0  0  0  0  0  0  0  0  0  0  0  0
   49.7995  -26.2955 -103.7130 C   0  0  2  0  0  0  0  0  0  0  0  0
   48.6988  -25.3431 -103.2956 C   0  0  0  0  0  0  0  0  0  0  0  0
   47.9366  -24.8808 -104.1311 O   0  0  0  0  0  0  0  0  0  0  0  0
   49.2770  -27.7346 -103.6064 C   0  0  0  0  0  0  0  0  0  0  0  0
   49.0263  -28.1132 -102.1536 C   0  0  0  0  0  0  0  0  0  0  0  0
   48.2213  -29.7494 -101.9587 S   0  0  2  0  0  0  0  0  0  0  0  0
   48.1461  -29.9897 -100.1542 C   0  0  0  0  0  0  0  0  0  0  0  0
   49.6900  -30.7127 -102.3105 C   0  0  0  0  0  0  0  0  0  0  0  0
   49.7341  -31.2600 -103.7124 C   0  0  1  0  0  0  0  0  0  0  0  0
   51.0064  -31.9042 -103.8948 O   0  0  0  0  0  0  0  0  0  0  0  0
   48.7222  -32.3335 -103.6738 C   0  0  1  0  0  0  0  0  0  0  0  0
   47.4893  -31.8490 -104.2034 O   0  0  0  0  0  0  0  0  0  0  0  0
   49.3056  -33.3604 -104.5943 C   0  0  1  0  0  0  0  0  0  0  0  0
   48.9099  -33.0962 -105.9562 O   0  0  0  0  0  0  0  0  0  0  0  0
   50.8525  -33.2310 -104.4586 C   0  0  2  0  0  0  0  0  0  0  0  0
   48.5437  -25.0565 -102.1214 O   0  0  0  0  0  0  0  0  0  0  0  0
   52.8737  -34.1969  -99.6441 N   0  0  0  0  0  0  0  0  0  0  0  0
   52.3194  -33.0440 -100.0929 C   0  0  0  0  0  0  0  0  0  0  0  0
   51.8009  -32.9418 -101.3345 N   0  0  0  0  0  0  0  0  0  0  0  0
   51.8980  -33.9615 -102.2031 C   0  0  0  0  0  0  0  0  0  0  0  0
   52.5177  -35.1945 -101.7809 C   0  0  0  0  0  0  0  0  0  0  0  0
   53.0029  -35.2781 -100.4419 C   0  0  0  0  0  0  0  0  0  0  0  0
   53.5975  -36.4305  -99.9695 N   0  0  0  0  0  0  0  0  0  0  0  0
   52.4903  -36.0320 -102.8242 N   0  0  0  0  0  0  0  0  0  0  0  0
   51.9287  -35.4329 -103.8318 C   0  0  0  0  0  0  0  0  0  0  0  0
   51.5354  -34.1556 -103.5073 N   0  0  0  0  0  0  0  0  0  0  0  0
  2  1  1  1  0  0  0
  2  3  1  0  0  0  0
  2  5  1  0  0  0  0
  3  4  1  0  0  0  0
  3 17  1  0  0  0  0
  5  6  1  0  0  0  0
  7  6  1  1  0  0  0
  7  8  1  0  0  0  0
  7  9  1  0  0  0  0
 10  9  1  1  0  0  0
 10 11  1  0  0  0  0
 10 12  1  0  0  0  0
 11 16  1  0  0  0  0
 12 13  1  6  0  0  0
 12 14  1  0  0  0  0
 14 15  1  6  0  0  0
 14 16  1  0  0  0  0
 16 27  1  1  0  0  0
 18 19  2  0  0  0  0
 18 23  1  0  0  0  0
 19 20  1  0  0  0  0
 20 21  2  0  0  0  0
 21 22  1  0  0  0  0
 21 27  1  0  0  0  0
 22 23  2  0  0  0  0
 22 25  1  0  0  0  0
 23 24  1  0  0  0  0
 25 26  2  0  0  0  0
 26 27  1  0  0  0  0
M  END
>  <CHROM.1>
146.13592428,53.50552336,173.43470469,176.37938658,-100.92608852,174.97817123
17.97839702,50.20208232,-31.21357515,-102.68326148,-2.28429247,0.94965185
-2.66085644

>  <Name>
ligand

>  <RI>
0

>  <Rbt.Current_Directory>
/home/itssahil/PROJECTS/Mol_Feturizer/Test_systems_manuscript/rnas/4l81

>  <Rbt.Executable>
rbdock ($Id: //depot/dev/client3/rdock/2013.1/src/exe/rbdock.cxx#4 $)

>  <Rbt.Library>
libRbt.so (2013.1, Build901 2013/11/27)

>  <Rbt.Parameter_File>
/export/apps/rDock/src/rDock_2013.1_src/data/scripts/dock_solv.prm

>  <Rbt.Receptor>
prm/pocket_docking_6.prm

>  <SCORE>
-14.9099

>  <SCORE.INTER>
-12.9315

>  <SCORE.INTER.CONST>
1

>  <SCORE.INTER.POLAR>
0

>  <SCORE.INTER.ROT>
7

>  <SCORE.INTER.SOLV>
10.781

>  <SCORE.INTER.VDW>
-20.4813

>  <SCORE.INTER.norm>
-0.478943

>  <SCORE.INTRA>
-1.97848

>  <SCORE.INTRA.DIHEDRAL>
-2.015

>  <SCORE.INTRA.DIHEDRAL.0>
8.34559

>  <SCORE.INTRA.POLAR>
0

>  <SCORE.INTRA.POLAR.0>
0

>  <SCORE.INTRA.REPUL>
0

>  <SCORE.INTRA.REPUL.0>
0

>  <SCORE.INTRA.SOLV>
-0.334738

>  <SCORE.INTRA.SOLV.lig_0>
-48.829

>  <SCORE.INTRA.VDW>
-0.803612

>  <SCORE.INTRA.VDW.0>
-1.77092

>  <SCORE.INTRA.norm>
-0.0732772

>  <SCORE.RESTR>
0

>  <SCORE.RESTR.CAVITY>
0

>  <SCORE.RESTR.norm>
0

>  <SCORE.SYSTEM>
0

>  <SCORE.SYSTEM.CONST>
0

>  <SCORE.SYSTEM.DIHEDRAL>
0

>  <SCORE.SYSTEM.SOLV>
0

>  <SCORE.SYSTEM.norm>
0

>  <SCORE.heavy>
27

>  <SCORE.norm>
-0.55222

>  <RMSD>
6.396

$$$$
ligand
 OpenBabel02271912153D
libRbt.so/2013.1/901 2013/11/27
 27 29  0  0  0  0  0  0  0  0999 V2000
   50.4132  -31.5658 -101.5538 N   0  0  0  0  0  0  0  0  0  0  0  0
   50.4072  -32.3350 -102.8031 C   0  0  2  0  0  0  0  0  0  0  0  0
   51.7756  -32.9425 -103.0290 C   0  0  0  0  0  0  0  0  0  0  0  0
   52.5570  -33.0605 -102.0972 O   0  0  0  0  0  0  0  0  0  0  0  0
   50.0542  -31.4474 -104.0043 C   0  0  0  0  0  0  0  0  0  0  0  0
   48.5526  -31.2095 -104.0789 C   0  0  0  0  0  0  0  0  0  0  0  0
   47.5874  -32.7450 -104.3511 S   0  0  2  0  0  0  0  0  0  0  0  0
   47.5847  -32.9467 -106.1619 C   0  0  0  0  0  0  0  0  0  0  0  0
   45.9794  -31.9816 -104.1500 C   0  0  0  0  0  0  0  0  0  0  0  0
   45.5998  -31.7379 -102.7136 C   0  0  1  0  0  0  0  0  0  0  0  0
   46.5270  -30.7841 -102.1680 O   0  0  0  0  0  0  0  0  0  0  0  0
   44.3042  -31.0418 -102.8338 C   0  0  1  0  0  0  0  0  0  0  0  0
   43.2403  -31.9767 -102.6619 O   0  0  0  0  0  0  0  0  0  0  0  0
   44.3403  -30.0903 -101.6782 C   0  0  1  0  0  0  0  0  0  0  0  0
   43.8371  -30.7288 -100.4864 O   0  0  0  0  0  0  0  0  0  0  0  0
   45.8382  -29.7088 -101.4813 C   0  0  2  0  0  0  0  0  0  0  0  0
   52.0957  -33.3483 -104.1326 O   0  0  0  0  0  0  0  0  0  0  0  0
   49.8255  -26.5448 -102.9941 N   0  0  0  0  0  0  0  0  0  0  0  0
   49.9106  -27.7225 -102.3280 C   0  0  0  0  0  0  0  0  0  0  0  0
   48.8149  -28.4550 -102.0384 N   0  0  0  0  0  0  0  0  0  0  0  0
   47.5870  -27.9933 -102.3257 C   0  0  0  0  0  0  0  0  0  0  0  0
   47.4474  -26.7242 -102.9982 C   0  0  0  0  0  0  0  0  0  0  0  0
   48.6347  -26.0086 -103.3353 C   0  0  0  0  0  0  0  0  0  0  0  0
   48.5742  -24.7938 -103.9875 N   0  0  0  0  0  0  0  0  0  0  0  0
   46.1379  -26.4998 -103.1583 N   0  0  0  0  0  0  0  0  0  0  0  0
   45.4738  -27.4932 -102.6467 C   0  0  0  0  0  0  0  0  0  0  0  0
   46.3135  -28.4493 -102.1247 N   0  0  0  0  0  0  0  0  0  0  0  0
  2  1  1  1  0  0  0
  2  3  1  0  0  0  0
  2  5  1  0  0  0  0
  3  4  1  0  0  0  0
  3 17  1  0  0  0  0
  5  6  1  0  0  0  0
  7  6  1  6  0  0  0
  7  8  1  0  0  0  0
  7  9  1  0  0  0  0
 10  9  1  6  0  0  0
 10 11  1  0  0  0  0
 10 12  1  0  0  0  0
 11 16  1  0  0  0  0
 12 13  1  1  0  0  0
 12 14  1  0  0  0  0
 14 15  1  1  0  0  0
 14 16  1  0  0  0  0
 16 27  1  6  0  0  0
 18 19  2  0  0  0  0
 18 23  1  0  0  0  0
 19 20  1  0  0  0  0
 20 21  2  0  0  0  0
 21 22  1  0  0  0  0
 21 27  1  0  0  0  0
 22 23  2  0  0  0  0
 22 25  1  0  0  0  0
 23 24  1  0  0  0  0
 25 26  2  0  0  0  0
 26 27  1  0  0  0  0
M  END
>  <CHROM.1>
19.24293833,-79.02906100,-63.14926886,-85.97858027,-78.32542705,64.35560007
-53.59874554,47.74423533,-30.24189914,-102.97292529,-0.75264649,0.11511158
0.10570053

>  <Name>
ligand

>  <RI>
0

>  <Rbt.Current_Directory>
/home/itssahil/PROJECTS/Mol_Feturizer/Test_systems_manuscript/rnas/4l81

>  <Rbt.Executable>
rbdock ($Id: //depot/dev/client3/rdock/2013.1/src/exe/rbdock.cxx#4 $)

>  <Rbt.Library>
libRbt.so (2013.1, Build901 2013/11/27)

>  <Rbt.Parameter_File>
/export/apps/rDock/src/rDock_2013.1_src/data/scripts/dock_solv.prm

>  <Rbt.Receptor>
prm/pocket_docking_4.prm

>  <SCORE>
-15.9995

>  <SCORE.INTER>
-13.7121

>  <SCORE.INTER.CONST>
1

>  <SCORE.INTER.POLAR>
0

>  <SCORE.INTER.ROT>
7

>  <SCORE.INTER.SOLV>
10.0726

>  <SCORE.INTER.VDW>
-20.7656

>  <SCORE.INTER.norm>
-0.507855

>  <SCORE.INTRA>
-2.28742

>  <SCORE.INTRA.DIHEDRAL>
-2.59778

>  <SCORE.INTRA.DIHEDRAL.0>
8.34559

>  <SCORE.INTRA.POLAR>
0

>  <SCORE.INTRA.POLAR.0>
0

>  <SCORE.INTRA.REPUL>
0

>  <SCORE.INTRA.REPUL.0>
0

>  <SCORE.INTRA.SOLV>
0.276913

>  <SCORE.INTRA.SOLV.lig_0>
-48.829

>  <SCORE.INTRA.VDW>
-1.12698

>  <SCORE.INTRA.VDW.0>
-1.77092

>  <SCORE.INTRA.norm>
-0.0847191

>  <SCORE.RESTR>
0

>  <SCORE.RESTR.CAVITY>
0

>  <SCORE.RESTR.norm>
0

>  <SCORE.SYSTEM>
0

>  <SCORE.SYSTEM.CONST>
0

>  <SCORE.SYSTEM.DIHEDRAL>
0

>  <SCORE.SYSTEM.SOLV>
0

>  <SCORE.SYSTEM.norm>
0

>  <SCORE.heavy>
27

>  <SCORE.norm>
-0.592574

>  <RMSD>
6.407

$$$$
ligand
 OpenBabel02271912153D
libRbt.so/2013.1/901 2013/11/27
 27 29  0  0  0  0  0  0  0  0999 V2000
   52.4618  -32.6076 -102.6115 N   0  0  0  0  0  0  0  0  0  0  0  0
   51.2031  -31.8624 -102.7264 C   0  0  2  0  0  0  0  0  0  0  0  0
   50.8128  -31.3176 -101.3686 C   0  0  0  0  0  0  0  0  0  0  0  0
   50.4123  -30.1685 -101.2595 O   0  0  0  0  0  0  0  0  0  0  0  0
   50.0695  -32.7568 -103.2464 C   0  0  0  0  0  0  0  0  0  0  0  0
   48.7612  -31.9826 -103.3234 C   0  0  0  0  0  0  0  0  0  0  0  0
   47.3717  -32.9712 -103.9981 S   0  0  2  0  0  0  0  0  0  0  0  0
   47.6339  -32.9243 -105.8005 C   0  0  0  0  0  0  0  0  0  0  0  0
   46.1456  -31.6729 -103.8575 C   0  0  0  0  0  0  0  0  0  0  0  0
   45.7931  -31.3237 -102.4360 C   0  0  1  0  0  0  0  0  0  0  0  0
   46.6914  -30.2893 -102.0000 O   0  0  0  0  0  0  0  0  0  0  0  0
   44.4655  -30.6948 -102.5758 C   0  0  1  0  0  0  0  0  0  0  0  0
   43.4485  -31.6551 -102.2947 O   0  0  0  0  0  0  0  0  0  0  0  0
   44.4898  -29.6478 -101.5057 C   0  0  1  0  0  0  0  0  0  0  0  0
   44.0463  -30.2029 -100.2502 O   0  0  0  0  0  0  0  0  0  0  0  0
   45.9742  -29.1890 -101.3860 C   0  0  2  0  0  0  0  0  0  0  0  0
   50.8633  -32.0293 -100.3807 O   0  0  0  0  0  0  0  0  0  0  0  0
   49.7742  -25.9559 -103.2040 N   0  0  0  0  0  0  0  0  0  0  0  0
   49.9262  -27.0589 -102.4305 C   0  0  0  0  0  0  0  0  0  0  0  0
   48.8742  -27.8231 -102.0693 N   0  0  0  0  0  0  0  0  0  0  0  0
   47.6221  -27.4622 -102.3942 C   0  0  0  0  0  0  0  0  0  0  0  0
   47.4105  -26.2721 -103.1824 C   0  0  0  0  0  0  0  0  0  0  0  0
   48.5549  -25.5239 -103.5896 C   0  0  0  0  0  0  0  0  0  0  0  0
   48.4253  -24.3813 -104.3528 N   0  0  0  0  0  0  0  0  0  0  0  0
   46.0904  -26.1399 -103.3580 N   0  0  0  0  0  0  0  0  0  0  0  0
   45.4841  -27.1175 -102.7529 C   0  0  0  0  0  0  0  0  0  0  0  0
   46.3769  -27.9701 -102.1466 N   0  0  0  0  0  0  0  0  0  0  0  0
  2  1  1  1  0  0  0
  2  3  1  0  0  0  0
  2  5  1  0  0  0  0
  3  4  1  0  0  0  0
  3 17  1  0  0  0  0
  5  6  1  0  0  0  0
  7  6  1  1  0  0  0
  7  8  1  0  0  0  0
  7  9  1  0  0  0  0
 10  9  1  6  0  0  0
 10 11  1  0  0  0  0
 10 12  1  0  0  0  0
 11 16  1  0  0  0  0
 12 13  1  1  0  0  0
 12 14  1  0  0  0  0
 14 15  1  1  0  0  0
 14 16  1  0  0  0  0
 16 27  1  6  0  0  0
 18 19  2  0  0  0  0
 18 23  1  0  0  0  0
 19 20  1  0  0  0  0
 20 21  2  0  0  0  0
 21 22  1  0  0  0  0
 21 27  1  0  0  0  0
 22 23  2  0  0  0  0
 22 25  1  0  0  0  0
 23 24  1  0  0  0  0
 25 26  2  0  0  0  0
 26 27  1  0  0  0  0
M  END
>  <CHROM.1>
135.79734579,178.39200358,177.81860419,-79.92712606,-68.43515662,89.61588416
-55.44865476,47.71343416,-29.84404027,-102.65463927,-1.21775750,0.02594476
-0.00243578

>  <Name>
ligand

>  <RI>
0

>  <Rbt.Current_Directory>
/home/itssahil/PROJECTS/Mol_Feturizer/Test_systems_manuscript/rnas/4l81

>  <Rbt.Executable>
rbdock ($Id: //depot/dev/client3/rdock/2013.1/src/exe/rbdock.cxx#4 $)

>  <Rbt.Library>
libRbt.so (2013.1, Build901 2013/11/27)

>  <Rbt.Parameter_File>
/export/apps/rDock/src/rDock_2013.1_src/data/scripts/dock_solv.prm

>  <Rbt.Receptor>
prm/pocket_docking_4.prm

>  <SCORE>
-17.4477

>  <SCORE.INTER>
-14.931

>  <SCORE.INTER.CONST>
1

>  <SCORE.INTER.POLAR>
0

>  <SCORE.INTER.ROT>
7

>  <SCORE.INTER.SOLV>
13.2165

>  <SCORE.INTER.VDW>
-22.6261

>  <SCORE.INTER.norm>
-0.552999

>  <SCORE.INTRA>
-2.53897

>  <SCORE.INTRA.DIHEDRAL>
-2.30583

>  <SCORE.INTRA.DIHEDRAL.0>
8.34559

>  <SCORE.INTRA.POLAR>
0

>  <SCORE.INTRA.POLAR.0>
0

>  <SCORE.INTRA.REPUL>
0

>  <SCORE.INTRA.REPUL.0>
0

>  <SCORE.INTRA.SOLV>
-1.27985

>  <SCORE.INTRA.SOLV.lig_0>
-48.829

>  <SCORE.INTRA.VDW>
-0.746132

>  <SCORE.INTRA.VDW.0>
-1.77092

>  <SCORE.INTRA.norm>
-0.094036

>  <SCORE.RESTR>
0.022271

>  <SCORE.RESTR.CAVITY>
0.022271

>  <SCORE.RESTR.norm>
0.000824851

>  <SCORE.SYSTEM>
0

>  <SCORE.SYSTEM.CONST>
0

>  <SCORE.SYSTEM.DIHEDRAL>
0

>  <SCORE.SYSTEM.SOLV>
0

>  <SCORE.SYSTEM.norm>
0

>  <SCORE.heavy>
27

>  <SCORE.norm>
-0.64621

>  <RMSD>
6.416

$$$$
ligand
 OpenBabel02271912153D
libRbt.so/2013.1/901 2013/11/27
 27 29  0  0  0  0  0  0  0  0999 V2000
   46.4455  -28.2397 -100.2365 N   0  0  0  0  0  0  0  0  0  0  0  0
   45.4968  -28.5947 -101.2979 C   0  0  2  0  0  0  0  0  0  0  0  0
   44.6004  -29.7174 -100.8197 C   0  0  0  0  0  0  0  0  0  0  0  0
   44.9758  -30.4674  -99.9313 O   0  0  0  0  0  0  0  0  0  0  0  0
   46.2254  -29.0493 -102.5698 C   0  0  0  0  0  0  0  0  0  0  0  0
   46.9561  -27.8836 -103.2211 C   0  0  0  0  0  0  0  0  0  0  0  0
   47.9159  -28.3679 -104.7069 S   0  0  2  0  0  0  0  0  0  0  0  0
   49.5247  -28.8989 -104.0366 C   0  0  0  0  0  0  0  0  0  0  0  0
   48.3490  -26.6983 -105.1902 C   0  0  0  0  0  0  0  0  0  0  0  0
   48.7294  -26.5669 -106.6410 C   0  0  1  0  0  0  0  0  0  0  0  0
   49.4021  -27.7758 -107.0320 O   0  0  0  0  0  0  0  0  0  0  0  0
   47.4203  -26.5764 -107.3220 C   0  0  1  0  0  0  0  0  0  0  0  0
   47.0144  -25.2369 -107.5987 O   0  0  0  0  0  0  0  0  0  0  0  0
   47.7268  -27.2921 -108.6010 C   0  0  1  0  0  0  0  0  0  0  0  0
   48.1904  -26.3595 -109.5994 O   0  0  0  0  0  0  0  0  0  0  0  0
   48.8567  -28.3109 -108.2641 C   0  0  2  0  0  0  0  0  0  0  0  0
   43.4867  -29.8615 -101.2927 O   0  0  0  0  0  0  0  0  0  0  0  0
   49.7737  -33.5355 -108.5108 N   0  0  0  0  0  0  0  0  0  0  0  0
   50.5210  -32.5380 -109.0441 C   0  0  0  0  0  0  0  0  0  0  0  0
   50.1979  -31.2392 -108.8721 N   0  0  0  0  0  0  0  0  0  0  0  0
   49.0668  -30.8934 -108.2360 C   0  0  0  0  0  0  0  0  0  0  0  0
   48.2195  -31.9248 -107.6876 C   0  0  0  0  0  0  0  0  0  0  0  0
   48.6274  -33.2829 -107.8443 C   0  0  0  0  0  0  0  0  0  0  0  0
   47.8695  -34.3183 -107.3361 N   0  0  0  0  0  0  0  0  0  0  0  0
   47.1706  -31.3185 -107.1192 N   0  0  0  0  0  0  0  0  0  0  0  0
   47.2908  -30.0336 -107.2741 C   0  0  0  0  0  0  0  0  0  0  0  0
   48.4446  -29.7099 -107.9492 N   0  0  0  0  0  0  0  0  0  0  0  0
  2  1  1  1  0  0  0
  2  3  1  0  0  0  0
  2  5  1  0  0  0  0
  3  4  1  0  0  0  0
  3 17  1  0  0  0  0
  5  6  1  0  0  0  0
  7  6  1  1  0  0  0
  7  8  1  0  0  0  0
  7  9  1  0  0  0  0
 10  9  1  1  0  0  0
 10 11  1  0  0  0  0
 10 12  1  0  0  0  0
 11 16  1  0  0  0  0
 12 13  1  6  0  0  0
 12 14  1  0  0  0  0
 14 15  1  6  0  0  0
 14 16  1  0  0  0  0
 16 27  1  1  0  0  0
 18 19  2  0  0  0  0
 18 23  1  0  0  0  0
 19 20  1  0  0  0  0
 20 21  2  0  0  0  0
 21 22  1  0  0  0  0
 21 27  1  0  0  0  0
 22 23  2  0  0  0  0
 22 25  1  0  0  0  0
 23 24  1  0  0  0  0
 25 26  2  0  0  0  0
 26 27  1  0  0  0  0
M  END
>  <CHROM.1>
-24.04915307,-68.73615050,177.32265850,-86.64908502,-158.92969594,-34.18212317
-101.95367638,47.69826635,-29.30858259,-105.74588517,-3.06294058,-1.12161987
3.03245007

>  <Name>
ligand

>  <RI>
0

>  <Rbt.Current_Directory>
/home/itssahil/PROJECTS/Mol_Feturizer/Test_systems_manuscript/rnas/4l81

>  <Rbt.Executable>
rbdock ($Id: //depot/dev/client3/rdock/2013.1/src/exe/rbdock.cxx#4 $)

>  <Rbt.Library>
libRbt.so (2013.1, Build901 2013/11/27)

>  <Rbt.Parameter_File>
/export/apps/rDock/src/rDock_2013.1_src/data/scripts/dock_solv.prm

>  <Rbt.Receptor>
prm/pocket_docking_7.prm

>  <SCORE>
-10.2694

>  <SCORE.INTER>
-8.80437

>  <SCORE.INTER.CONST>
1

>  <SCORE.INTER.POLAR>
0

>  <SCORE.INTER.ROT>
7

>  <SCORE.INTER.SOLV>
14.5356

>  <SCORE.INTER.VDW>
-18.9814

>  <SCORE.INTER.norm>
-0.326088

>  <SCORE.INTRA>
-1.46506

>  <SCORE.INTRA.DIHEDRAL>
0.147946

>  <SCORE.INTRA.DIHEDRAL.0>
8.34559

>  <SCORE.INTRA.POLAR>
0

>  <SCORE.INTRA.POLAR.0>
0

>  <SCORE.INTRA.REPUL>
0

>  <SCORE.INTRA.REPUL.0>
0

>  <SCORE.INTRA.SOLV>
-0.401938

>  <SCORE.INTRA.SOLV.lig_0>
-48.829

>  <SCORE.INTRA.VDW>
-1.33806

>  <SCORE.INTRA.VDW.0>
-1.77092

>  <SCORE.INTRA.norm>
-0.0542615

>  <SCORE.RESTR>
0

>  <SCORE.RESTR.CAVITY>
0

>  <SCORE.RESTR.norm>
0

>  <SCORE.SYSTEM>
0

>  <SCORE.SYSTEM.CONST>
0

>  <SCORE.SYSTEM.DIHEDRAL>
0

>  <SCORE.SYSTEM.SOLV>
0

>  <SCORE.SYSTEM.norm>
0

>  <SCORE.heavy>
27

>  <SCORE.norm>
-0.380349

>  <RMSD>
6.439

$$$$
ligand
 OpenBabel02271912153D
libRbt.so/2013.1/901 2013/11/27
 27 29  0  0  0  0  0  0  0  0999 V2000
   48.1540  -25.2992 -110.9988 N   0  0  0  0  0  0  0  0  0  0  0  0
   48.3750  -24.3833 -109.8741 C   0  0  2  0  0  0  0  0  0  0  0  0
   48.7040  -25.1812 -108.6299 C   0  0  0  0  0  0  0  0  0  0  0  0
   49.4354  -24.7090 -107.7727 O   0  0  0  0  0  0  0  0  0  0  0  0
   47.1323  -23.5258 -109.5990 C   0  0  0  0  0  0  0  0  0  0  0  0
   47.4828  -22.3288 -108.7266 C   0  0  0  0  0  0  0  0  0  0  0  0
   46.6457  -22.3502 -107.0949 S   0  0  2  0  0  0  0  0  0  0  0  0
   46.3670  -20.5889 -106.7213 C   0  0  0  0  0  0  0  0  0  0  0  0
   48.1354  -22.6099 -106.1347 C   0  0  0  0  0  0  0  0  0  0  0  0
   47.9131  -22.5610 -104.6464 C   0  0  1  0  0  0  0  0  0  0  0  0
   47.0632  -23.6647 -104.2907 O   0  0  0  0  0  0  0  0  0  0  0  0
   49.2514  -22.8717 -104.1078 C   0  0  1  0  0  0  0  0  0  0  0  0
   49.9222  -21.6606 -103.7633 O   0  0  0  0  0  0  0  0  0  0  0  0
   48.9287  -23.6477 -102.8686 C   0  0  1  0  0  0  0  0  0  0  0  0
   48.7352  -22.7538 -101.7528 O   0  0  0  0  0  0  0  0  0  0  0  0
   47.6039  -24.4102 -103.1709 C   0  0  2  0  0  0  0  0  0  0  0  0
   48.2167  -26.2848 -108.4582 O   0  0  0  0  0  0  0  0  0  0  0  0
   46.3537  -28.1969 -106.6775 N   0  0  0  0  0  0  0  0  0  0  0  0
   45.9161  -26.9140 -106.6537 C   0  0  0  0  0  0  0  0  0  0  0  0
   46.3464  -26.0344 -105.7251 N   0  0  0  0  0  0  0  0  0  0  0  0
   47.1612  -26.4294 -104.7334 C   0  0  0  0  0  0  0  0  0  0  0  0
   47.6194  -27.7973 -104.6961 C   0  0  0  0  0  0  0  0  0  0  0  0
   47.1839  -28.6797 -105.7291 C   0  0  0  0  0  0  0  0  0  0  0  0
   47.5916  -29.9979 -105.7597 N   0  0  0  0  0  0  0  0  0  0  0  0
   48.4033  -27.9258 -103.6192 N   0  0  0  0  0  0  0  0  0  0  0  0
   48.4592  -26.7848 -102.9992 C   0  0  0  0  0  0  0  0  0  0  0  0
   47.7191  -25.8209 -103.6432 N   0  0  0  0  0  0  0  0  0  0  0  0
  2  1  1  6  0  0  0
  2  3  1  0  0  0  0
  2  5  1  0  0  0  0
  3  4  1  0  0  0  0
  3 17  1  0  0  0  0
  5  6  1  0  0  0  0
  7  6  1  6  0  0  0
  7  8  1  0  0  0  0
  7  9  1  0  0  0  0
 10  9  1  6  0  0  0
 10 11  1  0  0  0  0
 10 12  1  0  0  0  0
 11 16  1  0  0  0  0
 12 13  1  1  0  0  0
 12 14  1  0  0  0  0
 14 15  1  1  0  0  0
 14 16  1  0  0  0  0
 16 27  1  6  0  0  0
 18 19  2  0  0  0  0
 18 23  1  0  0  0  0
 19 20  1  0  0  0  0
 20 21  2  0  0  0  0
 21 22  1  0  0  0  0
 21 27  1  0  0  0  0
 22 23  2  0  0  0  0
 22 25  1  0  0  0  0
 23 24  1  0  0  0  0
 25 26  2  0  0  0  0
 26 27  1  0  0  0  0
M  END
>  <CHROM.1>
149.42037185,-163.70015723,-116.41336434,-146.95788589,174.40126745,64.78479481
-15.22768504,47.77423404,-24.73603808,-105.94607902,1.53459654,-1.43107064
-0.60178558

>  <Name>
ligand

>  <RI>
0

>  <Rbt.Current_Directory>
/home/itssahil/PROJECTS/Mol_Feturizer/Test_systems_manuscript/rnas/4l81

>  <Rbt.Executable>
rbdock ($Id: //depot/dev/client3/rdock/2013.1/src/exe/rbdock.cxx#4 $)

>  <Rbt.Library>
libRbt.so (2013.1, Build901 2013/11/27)

>  <Rbt.Parameter_File>
/export/apps/rDock/src/rDock_2013.1_src/data/scripts/dock_solv.prm

>  <Rbt.Receptor>
prm/pocket_docking_8.prm

>  <SCORE>
-5.74167

>  <SCORE.INTER>
-4.81897

>  <SCORE.INTER.CONST>
1

>  <SCORE.INTER.POLAR>
0

>  <SCORE.INTER.ROT>
7

>  <SCORE.INTER.SOLV>
8.43053

>  <SCORE.INTER.VDW>
-14.2895

>  <SCORE.INTER.norm>
-0.17848

>  <SCORE.INTRA>
-0.922697

>  <SCORE.INTRA.DIHEDRAL>
4.81653

>  <SCORE.INTRA.DIHEDRAL.0>
8.34559

>  <SCORE.INTRA.POLAR>
0

>  <SCORE.INTRA.POLAR.0>
0

>  <SCORE.INTRA.REPUL>
0

>  <SCORE.INTRA.REPUL.0>
0

>  <SCORE.INTRA.SOLV>
-1.21886

>  <SCORE.INTRA.SOLV.lig_0>
-48.829

>  <SCORE.INTRA.VDW>
-2.72153

>  <SCORE.INTRA.VDW.0>
-1.77092

>  <SCORE.INTRA.norm>
-0.034174

>  <SCORE.RESTR>
0

>  <SCORE.RESTR.CAVITY>
0

>  <SCORE.RESTR.norm>
0

>  <SCORE.SYSTEM>
0

>  <SCORE.SYSTEM.CONST>
0

>  <SCORE.SYSTEM.DIHEDRAL>
0

>  <SCORE.SYSTEM.SOLV>
0

>  <SCORE.SYSTEM.norm>
0

>  <SCORE.heavy>
27

>  <SCORE.norm>
-0.212654

>  <RMSD>
6.455

$$$$
ligand
 OpenBabel02271912153D
libRbt.so/2013.1/901 2013/11/27
 27 29  0  0  0  0  0  0  0  0999 V2000
   48.6906  -31.4054 -102.7821 N   0  0  0  0  0  0  0  0  0  0  0  0
   49.9921  -30.8985 -102.3329 C   0  0  2  0  0  0  0  0  0  0  0  0
   50.7204  -31.9837 -101.5682 C   0  0  0  0  0  0  0  0  0  0  0  0
   51.0184  -33.0313 -102.1218 O   0  0  0  0  0  0  0  0  0  0  0  0
   49.8310  -29.6733 -101.4229 C   0  0  0  0  0  0  0  0  0  0  0  0
   48.8438  -29.9591 -100.3000 C   0  0  0  0  0  0  0  0  0  0  0  0
   47.2424  -29.0886 -100.5028 S   0  0  2  0  0  0  0  0  0  0  0  0
   46.5613  -29.0232  -98.8141 C   0  0  0  0  0  0  0  0  0  0  0  0
   46.3431  -30.5118 -101.1147 C   0  0  0  0  0  0  0  0  0  0  0  0
   44.9104  -30.2160 -101.4708 C   0  0  1  0  0  0  0  0  0  0  0  0
   44.8200  -28.8232 -101.8155 O   0  0  0  0  0  0  0  0  0  0  0  0
   44.7250  -30.9713 -102.7249 C   0  0  1  0  0  0  0  0  0  0  0  0
   44.1012  -32.2230 -102.4426 O   0  0  0  0  0  0  0  0  0  0  0  0
   43.7864  -30.0943 -103.4943 C   0  0  1  0  0  0  0  0  0  0  0  0
   42.4187  -30.4048 -103.1564 O   0  0  0  0  0  0  0  0  0  0  0  0
   44.1172  -28.6322 -103.0692 C   0  0  2  0  0  0  0  0  0  0  0  0
   51.0438  -31.8085 -100.4065 O   0  0  0  0  0  0  0  0  0  0  0  0
   48.6889  -26.0098 -103.7178 N   0  0  0  0  0  0  0  0  0  0  0  0
   48.2141  -26.5769 -102.5816 C   0  0  0  0  0  0  0  0  0  0  0  0
   47.0481  -27.2559 -102.5607 N   0  0  0  0  0  0  0  0  0  0  0  0
   46.2713  -27.3164 -103.6545 C   0  0  0  0  0  0  0  0  0  0  0  0
   46.7185  -26.6912 -104.8759 C   0  0  0  0  0  0  0  0  0  0  0  0
   47.9833  -26.0312 -104.8683 C   0  0  0  0  0  0  0  0  0  0  0  0
   48.4760  -25.4210 -106.0040 N   0  0  0  0  0  0  0  0  0  0  0  0
   45.7691  -26.8920 -105.7973 N   0  0  0  0  0  0  0  0  0  0  0  0
   44.7944  -27.5632 -105.2597 C   0  0  0  0  0  0  0  0  0  0  0  0
   45.0500  -27.8607 -103.9414 N   0  0  0  0  0  0  0  0  0  0  0  0
  2  1  1  1  0  0  0
  2  3  1  0  0  0  0
  2  5  1  0  0  0  0
  3  4  1  0  0  0  0
  3 17  1  0  0  0  0
  5  6  1  0  0  0  0
  7  6  1  1  0  0  0
  7  8  1  0  0  0  0
  7  9  1  0  0  0  0
 10  9  1  6  0  0  0
 10 11  1  0  0  0  0
 10 12  1  0  0  0  0
 11 16  1  0  0  0  0
 12 13  1  1  0  0  0
 12 14  1  0  0  0  0
 14 15  1  1  0  0  0
 14 16  1  0  0  0  0
 16 27  1  6  0  0  0
 18 19  2  0  0  0  0
 18 23  1  0  0  0  0
 19 20  1  0  0  0  0
 20 21  2  0  0  0  0
 21 22  1  0  0  0  0
 21 27  1  0  0  0  0
 22 23  2  0  0  0  0
 22 25  1  0  0  0  0
 23 24  1  0  0  0  0
 25 26  2  0  0  0  0
 26 27  1  0  0  0  0
M  END
>  <CHROM.1>
61.69370096,51.33218777,-107.93949958,-157.58853386,-178.09316080,26.49991064
-5.22644629,46.97775923,-29.20810731,-102.53342202,0.81878225,0.10387785
2.53395249

>  <Name>
ligand

>  <RI>
0

>  <Rbt.Current_Directory>
/home/itssahil/PROJECTS/Mol_Feturizer/Test_systems_manuscript/rnas/4l81

>  <Rbt.Executable>
rbdock ($Id: //depot/dev/client3/rdock/2013.1/src/exe/rbdock.cxx#4 $)

>  <Rbt.Library>
libRbt.so (2013.1, Build901 2013/11/27)

>  <Rbt.Parameter_File>
/export/apps/rDock/src/rDock_2013.1_src/data/scripts/dock_solv.prm

>  <Rbt.Receptor>
prm/pocket_docking_2.prm

>  <SCORE>
-4.71119

>  <SCORE.INTER>
-11.0919

>  <SCORE.INTER.CONST>
1

>  <SCORE.INTER.POLAR>
0

>  <SCORE.INTER.ROT>
7

>  <SCORE.INTER.SOLV>
9.3404

>  <SCORE.INTER.VDW>
-18.7747

>  <SCORE.INTER.norm>
-0.41081

>  <SCORE.INTRA>
4.60835

>  <SCORE.INTRA.DIHEDRAL>
5.69369

>  <SCORE.INTRA.DIHEDRAL.0>
8.34559

>  <SCORE.INTRA.POLAR>
0

>  <SCORE.INTRA.POLAR.0>
0

>  <SCORE.INTRA.REPUL>
0

>  <SCORE.INTRA.REPUL.0>
0

>  <SCORE.INTRA.SOLV>
2.22092

>  <SCORE.INTRA.SOLV.lig_0>
-48.829

>  <SCORE.INTRA.VDW>
0.651042

>  <SCORE.INTRA.VDW.0>
-1.77092

>  <SCORE.INTRA.norm>
0.170679

>  <SCORE.RESTR>
1.77233

>  <SCORE.RESTR.CAVITY>
1.77233

>  <SCORE.RESTR.norm>
0.065642

>  <SCORE.SYSTEM>
0

>  <SCORE.SYSTEM.CONST>
0

>  <SCORE.SYSTEM.DIHEDRAL>
0

>  <SCORE.SYSTEM.SOLV>
0

>  <SCORE.SYSTEM.norm>
0

>  <SCORE.heavy>
27

>  <SCORE.norm>
-0.174489

>  <RMSD>
6.468

$$$$
ligand
 OpenBabel02271912153D
libRbt.so/2013.1/901 2013/11/27
 27 29  0  0  0  0  0  0  0  0999 V2000
   50.4306  -24.2452 -103.6899 N   0  0  0  0  0  0  0  0  0  0  0  0
   50.4593  -25.1695 -104.8290 C   0  0  2  0  0  0  0  0  0  0  0  0
   49.8999  -24.4784 -106.0547 C   0  0  0  0  0  0  0  0  0  0  0  0
   49.5309  -23.3155 -105.9897 O   0  0  0  0  0  0  0  0  0  0  0  0
   49.6290  -26.4292 -104.5478 C   0  0  0  0  0  0  0  0  0  0  0  0
   50.2577  -27.2543 -103.4338 C   0  0  0  0  0  0  0  0  0  0  0  0
   49.2629  -28.7232 -102.9690 S   0  0  2  0  0  0  0  0  0  0  0  0
   50.4313  -29.7694 -102.0417 C   0  0  0  0  0  0  0  0  0  0  0  0
   49.3733  -29.5252 -104.5669 C   0  0  0  0  0  0  0  0  0  0  0  0
   48.0731  -30.1218 -105.0365 C   0  0  1  0  0  0  0  0  0  0  0  0
   47.0989  -29.0662 -105.0954 O   0  0  0  0  0  0  0  0  0  0  0  0
   48.3725  -30.4946 -106.4326 C   0  0  1  0  0  0  0  0  0  0  0  0
   48.7065  -31.8801 -106.4974 O   0  0  0  0  0  0  0  0  0  0  0  0
   47.0643  -30.2515 -107.1194 C   0  0  1  0  0  0  0  0  0  0  0  0
   46.2264  -31.4227 -107.0323 O   0  0  0  0  0  0  0  0  0  0  0  0
   46.3949  -29.0651 -106.3628 C   0  0  2  0  0  0  0  0  0  0  0  0
   49.8441  -25.0644 -107.1216 O   0  0  0  0  0  0  0  0  0  0  0  0
   48.4311  -25.8815 -110.0933 N   0  0  0  0  0  0  0  0  0  0  0  0
   48.5829  -27.2237 -109.9778 C   0  0  0  0  0  0  0  0  0  0  0  0
   47.9733  -27.9255 -108.9996 N   0  0  0  0  0  0  0  0  0  0  0  0
   47.2617  -27.2987 -108.0488 C   0  0  0  0  0  0  0  0  0  0  0  0
   47.1078  -25.8651 -108.1092 C   0  0  0  0  0  0  0  0  0  0  0  0
   47.7232  -25.1687 -109.1916 C   0  0  0  0  0  0  0  0  0  0  0  0
   47.6081  -23.7990 -109.3158 N   0  0  0  0  0  0  0  0  0  0  0  0
   46.3691  -25.4987 -107.0552 N   0  0  0  0  0  0  0  0  0  0  0  0
   46.0691  -26.5564 -106.3619 C   0  0  0  0  0  0  0  0  0  0  0  0
   46.5854  -27.6979 -106.9292 N   0  0  0  0  0  0  0  0  0  0  0  0
  2  1  1  1  0  0  0
  2  3  1  0  0  0  0
  2  5  1  0  0  0  0
  3  4  1  0  0  0  0
  3 17  1  0  0  0  0
  5  6  1  0  0  0  0
  7  6  1  6  0  0  0
  7  8  1  0  0  0  0
  7  9  1  0  0  0  0
 10  9  1  6  0  0  0
 10 11  1  0  0  0  0
 10 12  1  0  0  0  0
 11 16  1  0  0  0  0
 12 13  1  1  0  0  0
 12 14  1  0  0  0  0
 14 15  1  1  0  0  0
 14 16  1  0  0  0  0
 16 27  1  6  0  0  0
 18 19  2  0  0  0  0
 18 23  1  0  0  0  0
 19 20  1  0  0  0  0
 20 21  2  0  0  0  0
 21 22  1  0  0  0  0
 21 27  1  0  0  0  0
 22 23  2  0  0  0  0
 22 25  1  0  0  0  0
 23 24  1  0  0  0  0
 25 26  2  0  0  0  0
 26 27  1  0  0  0  0
M  END
>  <CHROM.1>
1.06313978,-66.42569764,176.36150185,163.18697401,-137.06322090,58.32990978
114.15450606,48.39284398,-27.48420838,-106.18969660,-1.67336548,1.02518987
2.61481327

>  <Name>
ligand

>  <RI>
0

>  <Rbt.Current_Directory>
/home/itssahil/PROJECTS/Mol_Feturizer/Test_systems_manuscript/rnas/4l81

>  <Rbt.Executable>
rbdock ($Id: //depot/dev/client3/rdock/2013.1/src/exe/rbdock.cxx#4 $)

>  <Rbt.Library>
libRbt.so (2013.1, Build901 2013/11/27)

>  <Rbt.Parameter_File>
/export/apps/rDock/src/rDock_2013.1_src/data/scripts/dock_solv.prm

>  <Rbt.Receptor>
prm/pocket_docking_7.prm

>  <SCORE>
-9.5864

>  <SCORE.INTER>
-7.08932

>  <SCORE.INTER.CONST>
1

>  <SCORE.INTER.POLAR>
0

>  <SCORE.INTER.ROT>
7

>  <SCORE.INTER.SOLV>
9.01324

>  <SCORE.INTER.VDW>
-15.9973

>  <SCORE.INTER.norm>
-0.262567

>  <SCORE.INTRA>
-2.49708

>  <SCORE.INTRA.DIHEDRAL>
-0.546152

>  <SCORE.INTRA.DIHEDRAL.0>
8.34559

>  <SCORE.INTRA.POLAR>
0

>  <SCORE.INTRA.POLAR.0>
0

>  <SCORE.INTRA.REPUL>
0

>  <SCORE.INTRA.REPUL.0>
0

>  <SCORE.INTRA.SOLV>
0.107833

>  <SCORE.INTRA.SOLV.lig_0>
-48.829

>  <SCORE.INTRA.VDW>
-2.27792

>  <SCORE.INTRA.VDW.0>
-1.77092

>  <SCORE.INTRA.norm>
-0.0924845

>  <SCORE.RESTR>
0

>  <SCORE.RESTR.CAVITY>
0

>  <SCORE.RESTR.norm>
0

>  <SCORE.SYSTEM>
0

>  <SCORE.SYSTEM.CONST>
0

>  <SCORE.SYSTEM.DIHEDRAL>
0

>  <SCORE.SYSTEM.SOLV>
0

>  <SCORE.SYSTEM.norm>
0

>  <SCORE.heavy>
27

>  <SCORE.norm>
-0.355052

>  <RMSD>
6.486

$$$$
ligand
 OpenBabel02271912153D
libRbt.so/2013.1/901 2013/11/27
 27 29  0  0  0  0  0  0  0  0999 V2000
   50.7930  -29.8088 -102.6091 N   0  0  0  0  0  0  0  0  0  0  0  0
   49.8117  -30.7710 -102.0953 C   0  0  2  0  0  0  0  0  0  0  0  0
   49.9320  -30.8595 -100.5885 C   0  0  0  0  0  0  0  0  0  0  0  0
   48.9421  -30.7291  -99.8843 O   0  0  0  0  0  0  0  0  0  0  0  0
   50.0319  -32.1672 -102.6933 C   0  0  0  0  0  0  0  0  0  0  0  0
   49.2848  -32.3156 -104.0112 C   0  0  0  0  0  0  0  0  0  0  0  0
   47.4626  -32.3655 -103.8107 S   0  0  2  0  0  0  0  0  0  0  0  0
   46.8362  -32.4869 -105.5173 C   0  0  0  0  0  0  0  0  0  0  0  0
   47.2631  -30.6029 -103.5617 C   0  0  0  0  0  0  0  0  0  0  0  0
   46.1591  -30.2477 -102.6016 C   0  0  1  0  0  0  0  0  0  0  0  0
   46.1537  -28.8186 -102.4445 O   0  0  0  0  0  0  0  0  0  0  0  0
   44.9430  -30.5904 -103.3641 C   0  0  1  0  0  0  0  0  0  0  0  0
   44.4822  -31.8834 -102.9752 O   0  0  0  0  0  0  0  0  0  0  0  0
   43.9723  -29.5442 -102.9111 C   0  0  1  0  0  0  0  0  0  0  0  0
   43.2911  -29.9758 -101.7149 O   0  0  0  0  0  0  0  0  0  0  0  0
   44.8204  -28.2728 -102.6070 C   0  0  2  0  0  0  0  0  0  0  0  0
   51.0088  -31.0940 -100.0685 O   0  0  0  0  0  0  0  0  0  0  0  0
   47.2732  -24.0570 -104.7068 N   0  0  0  0  0  0  0  0  0  0  0  0
   47.5616  -24.6869 -103.5415 C   0  0  0  0  0  0  0  0  0  0  0  0
   46.8828  -25.7816 -103.1393 N   0  0  0  0  0  0  0  0  0  0  0  0
   45.8327  -26.2334 -103.8440 C   0  0  0  0  0  0  0  0  0  0  0  0
   45.4643  -25.5682 -105.0705 C   0  0  0  0  0  0  0  0  0  0  0  0
   46.2435  -24.4481 -105.4871 C   0  0  0  0  0  0  0  0  0  0  0  0
   45.9526  -23.7717 -106.6544 N   0  0  0  0  0  0  0  0  0  0  0  0
   44.3970  -26.2062 -105.5649 N   0  0  0  0  0  0  0  0  0  0  0  0
   44.0778  -27.1785 -104.7636 C   0  0  0  0  0  0  0  0  0  0  0  0
   44.9317  -27.2503 -103.6878 N   0  0  0  0  0  0  0  0  0  0  0  0
  2  1  1  6  0  0  0
  2  3  1  0  0  0  0
  2  5  1  0  0  0  0
  3  4  1  0  0  0  0
  3 17  1  0  0  0  0
  5  6  1  0  0  0  0
  7  6  1  6  0  0  0
  7  8  1  0  0  0  0
  7  9  1  0  0  0  0
 10  9  1  6  0  0  0
 10 11  1  0  0  0  0
 10 12  1  0  0  0  0
 11 16  1  0  0  0  0
 12 13  1  1  0  0  0
 12 14  1  0  0  0  0
 14 15  1  1  0  0  0
 14 16  1  0  0  0  0
 16 27  1  6  0  0  0
 18 19  2  0  0  0  0
 18 23  1  0  0  0  0
 19 20  1  0  0  0  0
 20 21  2  0  0  0  0
 21 22  1  0  0  0  0
 21 27  1  0  0  0  0
 22 23  2  0  0  0  0
 22 25  1  0  0  0  0
 23 24  1  0  0  0  0
 25 26  2  0  0  0  0
 26 27  1  0  0  0  0
M  END
>  <CHROM.1>
128.38057927,-87.32967663,-69.46791218,178.12948785,-145.64401713,177.17035807
-48.77309550,46.85728412,-29.07953299,-103.30030448,-1.09547194,-0.29587081
-0.23813861

>  <Name>
ligand

>  <RI>
0

>  <Rbt.Current_Directory>
/home/itssahil/PROJECTS/Mol_Feturizer/Test_systems_manuscript/rnas/4l81

>  <Rbt.Executable>
rbdock ($Id: //depot/dev/client3/rdock/2013.1/src/exe/rbdock.cxx#4 $)

>  <Rbt.Library>
libRbt.so (2013.1, Build901 2013/11/27)

>  <Rbt.Parameter_File>
/export/apps/rDock/src/rDock_2013.1_src/data/scripts/dock_solv.prm

>  <Rbt.Receptor>
prm/pocket_docking_4.prm

>  <SCORE>
-13.6548

>  <SCORE.INTER>
-14.073

>  <SCORE.INTER.CONST>
1

>  <SCORE.INTER.POLAR>
0

>  <SCORE.INTER.ROT>
7

>  <SCORE.INTER.SOLV>
13.1467

>  <SCORE.INTER.VDW>
-22.0309

>  <SCORE.INTER.norm>
-0.521222

>  <SCORE.INTRA>
0.415947

>  <SCORE.INTRA.DIHEDRAL>
1.45584

>  <SCORE.INTRA.DIHEDRAL.0>
8.34559

>  <SCORE.INTRA.POLAR>
0

>  <SCORE.INTRA.POLAR.0>
0

>  <SCORE.INTRA.REPUL>
0

>  <SCORE.INTRA.REPUL.0>
0

>  <SCORE.INTRA.SOLV>
0.468742

>  <SCORE.INTRA.SOLV.lig_0>
-48.829

>  <SCORE.INTRA.VDW>
-0.546345

>  <SCORE.INTRA.VDW.0>
-1.77092

>  <SCORE.INTRA.norm>
0.0154054

>  <SCORE.RESTR>
0.00226662

>  <SCORE.RESTR.CAVITY>
0.00226662

>  <SCORE.RESTR.norm>
8.39488e-05

>  <SCORE.SYSTEM>
0

>  <SCORE.SYSTEM.CONST>
0

>  <SCORE.SYSTEM.DIHEDRAL>
0

>  <SCORE.SYSTEM.SOLV>
0

>  <SCORE.SYSTEM.norm>
0

>  <SCORE.heavy>
27

>  <SCORE.norm>
-0.505733

>  <RMSD>
6.496

$$$$
ligand
 OpenBabel02271912153D
libRbt.so/2013.1/901 2013/11/27
 27 29  0  0  0  0  0  0  0  0999 V2000
   49.4353  -32.9010 -104.5084 N   0  0  0  0  0  0  0  0  0  0  0  0
   50.3323  -32.1376 -103.6336 C   0  0  2  0  0  0  0  0  0  0  0  0
   51.4171  -33.0505 -103.1019 C   0  0  0  0  0  0  0  0  0  0  0  0
   51.4950  -34.2052 -103.4935 O   0  0  0  0  0  0  0  0  0  0  0  0
   49.5717  -31.5284 -102.4480 C   0  0  0  0  0  0  0  0  0  0  0  0
   48.7011  -30.3657 -102.9032 C   0  0  0  0  0  0  0  0  0  0  0  0
   48.2390  -29.2284 -101.5407 S   0  0  2  0  0  0  0  0  0  0  0  0
   49.6046  -29.3962 -100.3463 C   0  0  0  0  0  0  0  0  0  0  0  0
   47.0581  -30.3376 -100.7766 C   0  0  0  0  0  0  0  0  0  0  0  0
   45.6240  -30.0106 -101.0981 C   0  0  1  0  0  0  0  0  0  0  0  0
   45.4918  -28.5792 -101.1195 O   0  0  0  0  0  0  0  0  0  0  0  0
   45.4929  -30.4649 -102.4960 C   0  0  1  0  0  0  0  0  0  0  0  0
   44.9078  -31.7658 -102.5242 O   0  0  0  0  0  0  0  0  0  0  0  0
   44.5409  -29.4635 -103.0730 C   0  0  1  0  0  0  0  0  0  0  0  0
   43.1779  -29.8831 -102.8549 O   0  0  0  0  0  0  0  0  0  0  0  0
   44.8103  -28.1279 -102.3170 C   0  0  2  0  0  0  0  0  0  0  0  0
   52.2396  -32.6324 -102.3060 O   0  0  0  0  0  0  0  0  0  0  0  0
   45.8391  -24.6558 -106.2008 N   0  0  0  0  0  0  0  0  0  0  0  0
   44.7286  -25.4176 -106.0445 C   0  0  0  0  0  0  0  0  0  0  0  0
   44.5725  -26.2353 -104.9824 N   0  0  0  0  0  0  0  0  0  0  0  0
   45.5595  -26.3877 -104.0846 C   0  0  0  0  0  0  0  0  0  0  0  0
   46.7765  -25.6268 -104.2345 C   0  0  0  0  0  0  0  0  0  0  0  0
   46.8773  -24.7326 -105.3416 C   0  0  0  0  0  0  0  0  0  0  0  0
   48.0087  -23.9675 -105.5395 N   0  0  0  0  0  0  0  0  0  0  0  0
   47.5855  -25.9656 -103.2239 N   0  0  0  0  0  0  0  0  0  0  0  0
   46.9901  -26.8552 -102.4866 C   0  0  0  0  0  0  0  0  0  0  0  0
   45.7341  -27.1505 -102.9631 N   0  0  0  0  0  0  0  0  0  0  0  0
  2  1  1  6  0  0  0
  2  3  1  0  0  0  0
  2  5  1  0  0  0  0
  3  4  1  0  0  0  0
  3 17  1  0  0  0  0
  5  6  1  0  0  0  0
  7  6  1  6  0  0  0
  7  8  1  0  0  0  0
  7  9  1  0  0  0  0
 10  9  1  6  0  0  0
 10 11  1  0  0  0  0
 10 12  1  0  0  0  0
 11 16  1  0  0  0  0
 12 13  1  1  0  0  0
 12 14  1  0  0  0  0
 14 15  1  1  0  0  0
 14 16  1  0  0  0  0
 16 27  1  6  0  0  0
 18 19  2  0  0  0  0
 18 23  1  0  0  0  0
 19 20  1  0  0  0  0
 20 21  2  0  0  0  0
 21 22  1  0  0  0  0
 21 27  1  0  0  0  0
 22 23  2  0  0  0  0
 22 25  1  0  0  0  0
 23 24  1  0  0  0  0
 25 26  2  0  0  0  0
 26 27  1  0  0  0  0
M  END
>  <CHROM.1>
5.02204038,-72.61606065,-159.55323957,27.52687492,-101.15581074,-38.08154106
-176.89304222,47.29353308,-29.05213571,-103.04690637,-0.94674558,0.25913810
-0.45177873

>  <Name>
ligand

>  <RI>
0

>  <Rbt.Current_Directory>
/home/itssahil/PROJECTS/Mol_Feturizer/Test_systems_manuscript/rnas/4l81

>  <Rbt.Executable>
rbdock ($Id: //depot/dev/client3/rdock/2013.1/src/exe/rbdock.cxx#4 $)

>  <Rbt.Library>
libRbt.so (2013.1, Build901 2013/11/27)

>  <Rbt.Parameter_File>
/export/apps/rDock/src/rDock_2013.1_src/data/scripts/dock_solv.prm

>  <Rbt.Receptor>
prm/pocket_docking_3.prm

>  <SCORE>
-10.4655

>  <SCORE.INTER>
-13.4003

>  <SCORE.INTER.CONST>
1

>  <SCORE.INTER.POLAR>
0

>  <SCORE.INTER.ROT>
7

>  <SCORE.INTER.SOLV>
8.0293

>  <SCORE.INTER.VDW>
-19.8766

>  <SCORE.INTER.norm>
-0.496307

>  <SCORE.INTRA>
2.82099

>  <SCORE.INTRA.DIHEDRAL>
2.46486

>  <SCORE.INTRA.DIHEDRAL.0>
8.34559

>  <SCORE.INTRA.POLAR>
0

>  <SCORE.INTRA.POLAR.0>
0

>  <SCORE.INTRA.REPUL>
0

>  <SCORE.INTRA.REPUL.0>
0

>  <SCORE.INTRA.SOLV>
-0.333836

>  <SCORE.INTRA.SOLV.lig_0>
-48.829

>  <SCORE.INTRA.VDW>
1.75548

>  <SCORE.INTRA.VDW.0>
-1.77092

>  <SCORE.INTRA.norm>
0.104481

>  <SCORE.RESTR>
0.113814

>  <SCORE.RESTR.CAVITY>
0.113814

>  <SCORE.RESTR.norm>
0.00421532

>  <SCORE.SYSTEM>
0

>  <SCORE.SYSTEM.CONST>
0

>  <SCORE.SYSTEM.DIHEDRAL>
0

>  <SCORE.SYSTEM.SOLV>
0

>  <SCORE.SYSTEM.norm>
0

>  <SCORE.heavy>
27

>  <SCORE.norm>
-0.387611

>  <RMSD>
6.500

$$$$
ligand
 OpenBabel02271912153D
libRbt.so/2013.1/901 2013/11/27
 27 29  0  0  0  0  0  0  0  0999 V2000
   49.9190  -25.9136 -102.7817 N   0  0  0  0  0  0  0  0  0  0  0  0
   48.5242  -26.2226 -103.1162 C   0  0  2  0  0  0  0  0  0  0  0  0
   47.6550  -25.0187 -102.8197 C   0  0  0  0  0  0  0  0  0  0  0  0
   46.6066  -24.8538 -103.4250 O   0  0  0  0  0  0  0  0  0  0  0  0
   48.0071  -27.4192 -102.3062 C   0  0  0  0  0  0  0  0  0  0  0  0
   48.8495  -28.6585 -102.5736 C   0  0  0  0  0  0  0  0  0  0  0  0
   48.1163  -30.1951 -101.8921 S   0  0  2  0  0  0  0  0  0  0  0  0
   48.1893  -29.9538 -100.0877 C   0  0  0  0  0  0  0  0  0  0  0  0
   49.5841  -31.2002 -102.1019 C   0  0  0  0  0  0  0  0  0  0  0  0
   49.8284  -31.6262 -103.5252 C   0  0  1  0  0  0  0  0  0  0  0  0
   51.1463  -32.1965 -103.5951 O   0  0  0  0  0  0  0  0  0  0  0  0
   48.8787  -32.7424 -103.6976 C   0  0  1  0  0  0  0  0  0  0  0  0
   47.6952  -32.2699 -104.3392 O   0  0  0  0  0  0  0  0  0  0  0  0
   49.6244  -33.6624 -104.6139 C   0  0  1  0  0  0  0  0  0  0  0  0
   49.3842  -33.3030 -105.9903 O   0  0  0  0  0  0  0  0  0  0  0  0
   51.1340  -33.4771 -104.2748 C   0  0  2  0  0  0  0  0  0  0  0  0
   47.9766  -24.2240 -101.9537 O   0  0  0  0  0  0  0  0  0  0  0  0
   53.0673  -34.5766  -99.4528 N   0  0  0  0  0  0  0  0  0  0  0  0
   52.6008  -33.3871  -99.9059 C   0  0  0  0  0  0  0  0  0  0  0  0
   52.0941  -33.2503 -101.1491 N   0  0  0  0  0  0  0  0  0  0  0  0
   52.1174  -34.2767 -102.0148 C   0  0  0  0  0  0  0  0  0  0  0  0
   52.6433  -35.5510 -101.5879 C   0  0  0  0  0  0  0  0  0  0  0  0
   53.1179  -35.6666 -100.2475 C   0  0  0  0  0  0  0  0  0  0  0  0
   53.6245  -36.8585  -99.7707 N   0  0  0  0  0  0  0  0  0  0  0  0
   52.5564  -36.3871 -102.6291 N   0  0  0  0  0  0  0  0  0  0  0  0
   52.0430  -35.7509 -103.6396 C   0  0  0  0  0  0  0  0  0  0  0  0
   51.7445  -34.4470 -103.3194 N   0  0  0  0  0  0  0  0  0  0  0  0
  2  1  1  1  0  0  0
  2  3  1  0  0  0  0
  2  5  1  0  0  0  0
  3  4  1  0  0  0  0
  3 17  1  0  0  0  0
  5  6  1  0  0  0  0
  7  6  1  6  0  0  0
  7  8  1  0  0  0  0
  7  9  1  0  0  0  0
 10  9  1  1  0  0  0
 10 11  1  0  0  0  0
 10 12  1  0  0  0  0
 11 16  1  0  0  0  0
 12 13  1  6  0  0  0
 12 14  1  0  0  0  0
 14 15  1  6  0  0  0
 14 16  1  0  0  0  0
 16 27  1  1  0  0  0
 18 19  2  0  0  0  0
 18 23  1  0  0  0  0
 19 20  1  0  0  0  0
 20 21  2  0  0  0  0
 21 22  1  0  0  0  0
 21 27  1  0  0  0  0
 22 23  2  0  0  0  0
 22 25  1  0  0  0  0
 23 24  1  0  0  0  0
 25 26  2  0  0  0  0
 26 27  1  0  0  0  0
M  END
>  <CHROM.1>
154.01348877,-59.31953794,-169.30022239,-66.53195185,-76.09267847,169.22160067
6.95617837,50.06567465,-31.41866840,-102.48294365,-2.43380397,0.94925931
-2.47517319

>  <Name>
ligand

>  <RI>
0

>  <Rbt.Current_Directory>
/home/itssahil/PROJECTS/Mol_Feturizer/Test_systems_manuscript/rnas/4l81

>  <Rbt.Executable>
rbdock ($Id: //depot/dev/client3/rdock/2013.1/src/exe/rbdock.cxx#4 $)

>  <Rbt.Library>
libRbt.so (2013.1, Build901 2013/11/27)

>  <Rbt.Parameter_File>
/export/apps/rDock/src/rDock_2013.1_src/data/scripts/dock_solv.prm

>  <Rbt.Receptor>
prm/pocket_docking_8.prm

>  <SCORE>
-17.8282

>  <SCORE.INTER>
-14.8228

>  <SCORE.INTER.CONST>
1

>  <SCORE.INTER.POLAR>
0

>  <SCORE.INTER.ROT>
7

>  <SCORE.INTER.SOLV>
9.31671

>  <SCORE.INTER.VDW>
-21.2541

>  <SCORE.INTER.norm>
-0.548992

>  <SCORE.INTRA>
-3.00548

>  <SCORE.INTRA.DIHEDRAL>
-4.11327

>  <SCORE.INTRA.DIHEDRAL.0>
8.34559

>  <SCORE.INTRA.POLAR>
0

>  <SCORE.INTRA.POLAR.0>
0

>  <SCORE.INTRA.REPUL>
0

>  <SCORE.INTRA.REPUL.0>
0

>  <SCORE.INTRA.SOLV>
-0.398758

>  <SCORE.INTRA.SOLV.lig_0>
-48.829

>  <SCORE.INTRA.VDW>
-0.749462

>  <SCORE.INTRA.VDW.0>
-1.77092

>  <SCORE.INTRA.norm>
-0.111314

>  <SCORE.RESTR>
0

>  <SCORE.RESTR.CAVITY>
0

>  <SCORE.RESTR.norm>
0

>  <SCORE.SYSTEM>
0

>  <SCORE.SYSTEM.CONST>
0

>  <SCORE.SYSTEM.DIHEDRAL>
0

>  <SCORE.SYSTEM.SOLV>
0

>  <SCORE.SYSTEM.norm>
0

>  <SCORE.heavy>
27

>  <SCORE.norm>
-0.660306

>  <RMSD>
6.506

$$$$
ligand
 OpenBabel02271912153D
libRbt.so/2013.1/901 2013/11/27
 27 29  0  0  0  0  0  0  0  0999 V2000
   50.4112  -35.7599 -106.4248 N   0  0  0  0  0  0  0  0  0  0  0  0
   49.9887  -34.4265 -105.9818 C   0  0  2  0  0  0  0  0  0  0  0  0
   50.3799  -33.4003 -107.0242 C   0  0  0  0  0  0  0  0  0  0  0  0
   49.9388  -32.2626 -106.9623 O   0  0  0  0  0  0  0  0  0  0  0  0
   50.6410  -34.0489 -104.6449 C   0  0  0  0  0  0  0  0  0  0  0  0
   50.0140  -32.7846 -104.0746 C   0  0  0  0  0  0  0  0  0  0  0  0
   48.2609  -33.0024 -103.5823 S   0  0  2  0  0  0  0  0  0  0  0  0
   47.3370  -32.7764 -105.1363 C   0  0  0  0  0  0  0  0  0  0  0  0
   48.0640  -31.3597 -102.8956 C   0  0  0  0  0  0  0  0  0  0  0  0
   46.8610  -31.2169 -102.0017 C   0  0  1  0  0  0  0  0  0  0  0  0
   46.9010  -29.9053 -101.4143 O   0  0  0  0  0  0  0  0  0  0  0  0
   45.7412  -31.2120 -102.9628 C   0  0  1  0  0  0  0  0  0  0  0  0
   45.1740  -32.5185 -103.0444 O   0  0  0  0  0  0  0  0  0  0  0  0
   44.7687  -30.2717 -102.3208 C   0  0  1  0  0  0  0  0  0  0  0  0
   43.9169  -30.9829 -101.3989 O   0  0  0  0  0  0  0  0  0  0  0  0
   45.6272  -29.2258 -101.5481 C   0  0  2  0  0  0  0  0  0  0  0  0
   51.1622  -33.6906 -107.9123 O   0  0  0  0  0  0  0  0  0  0  0  0
   49.1473  -25.6108 -103.2033 N   0  0  0  0  0  0  0  0  0  0  0  0
   49.3916  -26.7389 -102.4921 C   0  0  0  0  0  0  0  0  0  0  0  0
   48.4057  -27.6016 -102.1686 N   0  0  0  0  0  0  0  0  0  0  0  0
   47.1265  -27.3229 -102.4676 C   0  0  0  0  0  0  0  0  0  0  0  0
   46.8157  -26.1120 -103.1883 C   0  0  0  0  0  0  0  0  0  0  0  0
   47.8946  -25.2554 -103.5591 C   0  0  0  0  0  0  0  0  0  0  0  0
   47.6696  -24.0868 -104.2579 N   0  0  0  0  0  0  0  0  0  0  0  0
   45.4878  -26.0744 -103.3505 N   0  0  0  0  0  0  0  0  0  0  0  0
   44.9650  -27.1279 -102.7972 C   0  0  0  0  0  0  0  0  0  0  0  0
   45.9269  -27.9396 -102.2425 N   0  0  0  0  0  0  0  0  0  0  0  0
  2  1  1  6  0  0  0
  2  3  1  0  0  0  0
  2  5  1  0  0  0  0
  3  4  1  0  0  0  0
  3 17  1  0  0  0  0
  5  6  1  0  0  0  0
  7  6  1  6  0  0  0
  7  8  1  0  0  0  0
  7  9  1  0  0  0  0
 10  9  1  6  0  0  0
 10 11  1  0  0  0  0
 10 12  1  0  0  0  0
 11 16  1  0  0  0  0
 12 13  1  1  0  0  0
 12 14  1  0  0  0  0
 14 15  1  1  0  0  0
 14 16  1  0  0  0  0
 16 27  1  6  0  0  0
 18 19  2  0  0  0  0
 18 23  1  0  0  0  0
 19 20  1  0  0  0  0
 20 21  2  0  0  0  0
 21 22  1  0  0  0  0
 21 27  1  0  0  0  0
 22 23  2  0  0  0  0
 22 25  1  0  0  0  0
 23 24  1  0  0  0  0
 25 26  2  0  0  0  0
 26 27  1  0  0  0  0
M  END
>  <CHROM.1>
168.24134828,-169.95690782,66.49301970,-83.36588695,-163.20992604,174.11054543
-13.64084889,47.73438276,-30.34750883,-103.69227082,-1.08151150,0.64033537
0.10574917

>  <Name>
ligand

>  <RI>
0

>  <Rbt.Current_Directory>
/home/itssahil/PROJECTS/Mol_Feturizer/Test_systems_manuscript/rnas/4l81

>  <Rbt.Executable>
rbdock ($Id: //depot/dev/client3/rdock/2013.1/src/exe/rbdock.cxx#4 $)

>  <Rbt.Library>
libRbt.so (2013.1, Build901 2013/11/27)

>  <Rbt.Parameter_File>
/export/apps/rDock/src/rDock_2013.1_src/data/scripts/dock_solv.prm

>  <Rbt.Receptor>
prm/pocket_docking_8.prm

>  <SCORE>
-14.8394

>  <SCORE.INTER>
-13.5016

>  <SCORE.INTER.CONST>
1

>  <SCORE.INTER.POLAR>
0

>  <SCORE.INTER.ROT>
7

>  <SCORE.INTER.SOLV>
9.22096

>  <SCORE.INTER.VDW>
-20.3414

>  <SCORE.INTER.norm>
-0.500058

>  <SCORE.INTRA>
-1.33783

>  <SCORE.INTRA.DIHEDRAL>
-2.3891

>  <SCORE.INTRA.DIHEDRAL.0>
8.34559

>  <SCORE.INTRA.POLAR>
0

>  <SCORE.INTRA.POLAR.0>
0

>  <SCORE.INTRA.REPUL>
0

>  <SCORE.INTRA.REPUL.0>
0

>  <SCORE.INTRA.SOLV>
-0.521675

>  <SCORE.INTRA.SOLV.lig_0>
-48.829

>  <SCORE.INTRA.VDW>
0.117557

>  <SCORE.INTRA.VDW.0>
-1.77092

>  <SCORE.INTRA.norm>
-0.0495493

>  <SCORE.RESTR>
0

>  <SCORE.RESTR.CAVITY>
0

>  <SCORE.RESTR.norm>
0

>  <SCORE.SYSTEM>
0

>  <SCORE.SYSTEM.CONST>
0

>  <SCORE.SYSTEM.DIHEDRAL>
0

>  <SCORE.SYSTEM.SOLV>
0

>  <SCORE.SYSTEM.norm>
0

>  <SCORE.heavy>
27

>  <SCORE.norm>
-0.549607

>  <RMSD>
6.506

$$$$
ligand
 OpenBabel02271912153D
libRbt.so/2013.1/901 2013/11/27
 27 29  0  0  0  0  0  0  0  0999 V2000
   51.2995  -34.8720 -104.2724 N   0  0  0  0  0  0  0  0  0  0  0  0
   50.3057  -33.7975 -104.3753 C   0  0  2  0  0  0  0  0  0  0  0  0
   50.4892  -33.0634 -105.6868 C   0  0  0  0  0  0  0  0  0  0  0  0
   50.8677  -33.6655 -106.6803 O   0  0  0  0  0  0  0  0  0  0  0  0
   50.4455  -32.7946 -103.2219 C   0  0  0  0  0  0  0  0  0  0  0  0
   49.2317  -31.8789 -103.1509 C   0  0  0  0  0  0  0  0  0  0  0  0
   47.6377  -32.7858 -103.1471 S   0  0  2  0  0  0  0  0  0  0  0  0
   47.1734  -32.8649 -104.9072 C   0  0  0  0  0  0  0  0  0  0  0  0
   46.6372  -31.3841 -102.6543 C   0  0  0  0  0  0  0  0  0  0  0  0
   47.0539  -30.7737 -101.3425 C   0  0  1  0  0  0  0  0  0  0  0  0
   48.0859  -29.8098 -101.6124 O   0  0  0  0  0  0  0  0  0  0  0  0
   45.8570  -30.0067 -100.9466 C   0  0  1  0  0  0  0  0  0  0  0  0
   45.0826  -30.7702 -100.0230 O   0  0  0  0  0  0  0  0  0  0  0  0
   46.4493  -28.8172 -100.2564 C   0  0  1  0  0  0  0  0  0  0  0  0
   46.6721  -29.1062  -98.8607 O   0  0  0  0  0  0  0  0  0  0  0  0
   47.8105  -28.5429 -100.9634 C   0  0  2  0  0  0  0  0  0  0  0  0
   50.2296  -31.8758 -105.7705 O   0  0  0  0  0  0  0  0  0  0  0  0
   50.4943  -25.1842 -104.0802 N   0  0  0  0  0  0  0  0  0  0  0  0
   50.9886  -25.9731 -103.0947 C   0  0  0  0  0  0  0  0  0  0  0  0
   50.1997  -26.8191 -102.3998 N   0  0  0  0  0  0  0  0  0  0  0  0
   48.8727  -26.8422 -102.6046 C   0  0  0  0  0  0  0  0  0  0  0  0
   48.2976  -25.9886 -103.6161 C   0  0  0  0  0  0  0  0  0  0  0  0
   49.1754  -25.1500 -104.3655 C   0  0  0  0  0  0  0  0  0  0  0  0
   48.6937  -24.3163 -105.3543 N   0  0  0  0  0  0  0  0  0  0  0  0
   46.9762  -26.1999 -103.6118 N   0  0  0  0  0  0  0  0  0  0  0  0
   46.6929  -27.0823 -102.7005 C   0  0  0  0  0  0  0  0  0  0  0  0
   47.8228  -27.5212 -102.0508 N   0  0  0  0  0  0  0  0  0  0  0  0
  2  1  1  1  0  0  0
  2  3  1  0  0  0  0
  2  5  1  0  0  0  0
  3  4  1  0  0  0  0
  3 17  1  0  0  0  0
  5  6  1  0  0  0  0
  7  6  1  6  0  0  0
  7  8  1  0  0  0  0
  7  9  1  0  0  0  0
 10  9  1  6  0  0  0
 10 11  1  0  0  0  0
 10 12  1  0  0  0  0
 11 16  1  0  0  0  0
 12 13  1  1  0  0  0
 12 14  1  0  0  0  0
 14 15  1  1  0  0  0
 14 16  1  0  0  0  0
 16 27  1  6  0  0  0
 18 19  2  0  0  0  0
 18 23  1  0  0  0  0
 19 20  1  0  0  0  0
 20 21  2  0  0  0  0
 21 22  1  0  0  0  0
 21 27  1  0  0  0  0
 22 23  2  0  0  0  0
 22 25  1  0  0  0  0
 23 24  1  0  0  0  0
 25 26  2  0  0  0  0
 26 27  1  0  0  0  0
M  END
>  <CHROM.1>
33.22509187,-166.93601409,50.89186902,-92.35540286,-58.26773800,86.61458338
-84.81039769,48.44495895,-29.80511832,-103.02545964,-1.31290983,0.83251160
0.04363648

>  <Name>
ligand

>  <RI>
0

>  <Rbt.Current_Directory>
/home/itssahil/PROJECTS/Mol_Feturizer/Test_systems_manuscript/rnas/4l81

>  <Rbt.Executable>
rbdock ($Id: //depot/dev/client3/rdock/2013.1/src/exe/rbdock.cxx#4 $)

>  <Rbt.Library>
libRbt.so (2013.1, Build901 2013/11/27)

>  <Rbt.Parameter_File>
/export/apps/rDock/src/rDock_2013.1_src/data/scripts/dock_solv.prm

>  <Rbt.Receptor>
prm/pocket_docking_8.prm

>  <SCORE>
-14.2819

>  <SCORE.INTER>
-14.9624

>  <SCORE.INTER.CONST>
1

>  <SCORE.INTER.POLAR>
0

>  <SCORE.INTER.ROT>
7

>  <SCORE.INTER.SOLV>
10.3164

>  <SCORE.INTER.VDW>
-21.6804

>  <SCORE.INTER.norm>
-0.554162

>  <SCORE.INTRA>
0.680253

>  <SCORE.INTRA.DIHEDRAL>
-0.507394

>  <SCORE.INTRA.DIHEDRAL.0>
8.34559

>  <SCORE.INTRA.POLAR>
0

>  <SCORE.INTRA.POLAR.0>
0

>  <SCORE.INTRA.REPUL>
0

>  <SCORE.INTRA.REPUL.0>
0

>  <SCORE.INTRA.SOLV>
-0.819293

>  <SCORE.INTRA.SOLV.lig_0>
-48.829

>  <SCORE.INTRA.VDW>
1.3436

>  <SCORE.INTRA.VDW.0>
-1.77092

>  <SCORE.INTRA.norm>
0.0251946

>  <SCORE.RESTR>
0.000200102

>  <SCORE.RESTR.CAVITY>
0.000200102

>  <SCORE.RESTR.norm>
7.4112e-06

>  <SCORE.SYSTEM>
0

>  <SCORE.SYSTEM.CONST>
0

>  <SCORE.SYSTEM.DIHEDRAL>
0

>  <SCORE.SYSTEM.SOLV>
0

>  <SCORE.SYSTEM.norm>
0

>  <SCORE.heavy>
27

>  <SCORE.norm>
-0.52896

>  <RMSD>
6.510

$$$$
ligand
 OpenBabel02271912153D
libRbt.so/2013.1/901 2013/11/27
 27 29  0  0  0  0  0  0  0  0999 V2000
   52.4460  -32.1655 -102.8321 N   0  0  0  0  0  0  0  0  0  0  0  0
   51.0844  -31.7111 -102.5287 C   0  0  2  0  0  0  0  0  0  0  0  0
   50.8513  -31.7763 -101.0340 C   0  0  0  0  0  0  0  0  0  0  0  0
   50.0387  -31.0324 -100.5057 O   0  0  0  0  0  0  0  0  0  0  0  0
   50.0347  -32.5816 -103.2328 C   0  0  0  0  0  0  0  0  0  0  0  0
   48.6561  -31.9419 -103.1484 C   0  0  0  0  0  0  0  0  0  0  0  0
   47.3305  -32.9752 -103.8821 S   0  0  2  0  0  0  0  0  0  0  0  0
   47.6850  -32.9405 -105.6689 C   0  0  0  0  0  0  0  0  0  0  0  0
   46.0646  -31.7093 -103.8211 C   0  0  0  0  0  0  0  0  0  0  0  0
   45.6854  -31.2985 -102.4231 C   0  0  1  0  0  0  0  0  0  0  0  0
   46.6160  -30.2912 -101.9915 O   0  0  0  0  0  0  0  0  0  0  0  0
   44.3925  -30.6163 -102.6246 C   0  0  1  0  0  0  0  0  0  0  0  0
   43.3250  -31.5208 -102.3459 O   0  0  0  0  0  0  0  0  0  0  0  0
   44.4319  -29.5369 -101.5877 C   0  0  1  0  0  0  0  0  0  0  0  0
   43.9258  -30.0304 -100.3300 O   0  0  0  0  0  0  0  0  0  0  0  0
   45.9312  -29.1407 -101.4353 C   0  0  2  0  0  0  0  0  0  0  0  0
   51.4465  -32.5921 -100.3520 O   0  0  0  0  0  0  0  0  0  0  0  0
   49.9250  -26.1218 -103.2057 N   0  0  0  0  0  0  0  0  0  0  0  0
   50.0024  -27.2008 -102.3886 C   0  0  0  0  0  0  0  0  0  0  0  0
   48.9077  -27.9111 -102.0449 N   0  0  0  0  0  0  0  0  0  0  0  0
   47.6847  -27.5153 -102.4339 C   0  0  0  0  0  0  0  0  0  0  0  0
   47.5517  -26.3475 -103.2713 C   0  0  0  0  0  0  0  0  0  0  0  0
   48.7400  -25.6584 -103.6564 C   0  0  0  0  0  0  0  0  0  0  0  0
   48.6861  -24.5403 -104.4637 N   0  0  0  0  0  0  0  0  0  0  0  0
   46.2459  -26.1721 -103.5060 N   0  0  0  0  0  0  0  0  0  0  0  0
   45.5780  -27.1034 -102.8929 C   0  0  0  0  0  0  0  0  0  0  0  0
   46.4115  -27.9665 -102.2206 N   0  0  0  0  0  0  0  0  0  0  0  0
  2  1  1  1  0  0  0
  2  3  1  0  0  0  0
  2  5  1  0  0  0  0
  3  4  1  0  0  0  0
  3 17  1  0  0  0  0
  5  6  1  0  0  0  0
  7  6  1  1  0  0  0
  7  8  1  0  0  0  0
  7  9  1  0  0  0  0
 10  9  1  6  0  0  0
 10 11  1  0  0  0  0
 10 12  1  0  0  0  0
 11 16  1  0  0  0  0
 12 13  1  1  0  0  0
 12 14  1  0  0  0  0
 14 15  1  1  0  0  0
 14 16  1  0  0  0  0
 16 27  1  6  0  0  0
 18 19  2  0  0  0  0
 18 23  1  0  0  0  0
 19 20  1  0  0  0  0
 20 21  2  0  0  0  0
 21 22  1  0  0  0  0
 21 27  1  0  0  0  0
 22 23  2  0  0  0  0
 22 25  1  0  0  0  0
 23 24  1  0  0  0  0
 25 26  2  0  0  0  0
 26 27  1  0  0  0  0
M  END
>  <CHROM.1>
153.22210910,-168.39967758,-176.55590139,-69.10285115,-65.13367012,85.02262520
-56.15104251,47.72683714,-29.89682248,-102.62167646,-1.09911427,-0.00214915
-0.05304346

>  <Name>
ligand

>  <RI>
0

>  <Rbt.Current_Directory>
/home/itssahil/PROJECTS/Mol_Feturizer/Test_systems_manuscript/rnas/4l81

>  <Rbt.Executable>
rbdock ($Id: //depot/dev/client3/rdock/2013.1/src/exe/rbdock.cxx#4 $)

>  <Rbt.Library>
libRbt.so (2013.1, Build901 2013/11/27)

>  <Rbt.Parameter_File>
/export/apps/rDock/src/rDock_2013.1_src/data/scripts/dock_solv.prm

>  <Rbt.Receptor>
prm/pocket_docking_4.prm

>  <SCORE>
-17.7808

>  <SCORE.INTER>
-15.2877

>  <SCORE.INTER.CONST>
1

>  <SCORE.INTER.POLAR>
0

>  <SCORE.INTER.ROT>
7

>  <SCORE.INTER.SOLV>
13.3925

>  <SCORE.INTER.VDW>
-22.9226

>  <SCORE.INTER.norm>
-0.566211

>  <SCORE.INTRA>
-2.49314

>  <SCORE.INTRA.DIHEDRAL>
-2.67089

>  <SCORE.INTRA.DIHEDRAL.0>
8.34559

>  <SCORE.INTRA.POLAR>
0

>  <SCORE.INTRA.POLAR.0>
0

>  <SCORE.INTRA.REPUL>
0

>  <SCORE.INTRA.REPUL.0>
0

>  <SCORE.INTRA.SOLV>
-1.24479

>  <SCORE.INTRA.SOLV.lig_0>
-48.829

>  <SCORE.INTRA.VDW>
-0.535303

>  <SCORE.INTRA.VDW.0>
-1.77092

>  <SCORE.INTRA.norm>
-0.0923386

>  <SCORE.RESTR>
0

>  <SCORE.RESTR.CAVITY>
0

>  <SCORE.RESTR.norm>
0

>  <SCORE.SYSTEM>
0

>  <SCORE.SYSTEM.CONST>
0

>  <SCORE.SYSTEM.DIHEDRAL>
0

>  <SCORE.SYSTEM.SOLV>
0

>  <SCORE.SYSTEM.norm>
0

>  <SCORE.heavy>
27

>  <SCORE.norm>
-0.65855

>  <RMSD>
6.512

$$$$
ligand
 OpenBabel02271912153D
libRbt.so/2013.1/901 2013/11/27
 27 29  0  0  0  0  0  0  0  0999 V2000
   49.6850  -26.8261 -104.3139 N   0  0  0  0  0  0  0  0  0  0  0  0
   48.7795  -26.5277 -103.1986 C   0  0  2  0  0  0  0  0  0  0  0  0
   49.0762  -25.1427 -102.6635 C   0  0  0  0  0  0  0  0  0  0  0  0
   50.2081  -24.6875 -102.7306 O   0  0  0  0  0  0  0  0  0  0  0  0
   48.9410  -27.5443 -102.0602 C   0  0  0  0  0  0  0  0  0  0  0  0
   48.6119  -28.9509 -102.5398 C   0  0  0  0  0  0  0  0  0  0  0  0
   48.7111  -30.2120 -101.2120 S   0  0  2  0  0  0  0  0  0  0  0  0
   50.4975  -30.3726 -100.8914 C   0  0  0  0  0  0  0  0  0  0  0  0
   48.4903  -31.6242 -102.2917 C   0  0  0  0  0  0  0  0  0  0  0  0
   49.2424  -31.5165 -103.5915 C   0  0  1  0  0  0  0  0  0  0  0  0
   50.6216  -31.8275 -103.3303 O   0  0  0  0  0  0  0  0  0  0  0  0
   48.6996  -32.6430 -104.3750 C   0  0  1  0  0  0  0  0  0  0  0  0
   47.6788  -32.1690 -105.2518 O   0  0  0  0  0  0  0  0  0  0  0  0
   49.8891  -33.0875 -105.1684 C   0  0  1  0  0  0  0  0  0  0  0  0
   49.9828  -32.3358 -106.3962 O   0  0  0  0  0  0  0  0  0  0  0  0
   51.1337  -32.7998 -104.2761 C   0  0  2  0  0  0  0  0  0  0  0  0
   48.1840  -24.4591 -102.1929 O   0  0  0  0  0  0  0  0  0  0  0  0
   53.0595  -34.6147  -99.6722 N   0  0  0  0  0  0  0  0  0  0  0  0
   52.7136  -33.3404  -99.9798 C   0  0  0  0  0  0  0  0  0  0  0  0
   52.1930  -33.0166 -101.1819 N   0  0  0  0  0  0  0  0  0  0  0  0
   52.0822  -33.9396 -102.1512 C   0  0  0  0  0  0  0  0  0  0  0  0
   52.4772  -35.3010 -101.8807 C   0  0  0  0  0  0  0  0  0  0  0  0
   52.9707  -35.6110 -100.5786 C   0  0  0  0  0  0  0  0  0  0  0  0
   53.3568  -36.8944 -100.2492 N   0  0  0  0  0  0  0  0  0  0  0  0
   52.2730  -36.0051 -103.0003 N   0  0  0  0  0  0  0  0  0  0  0  0
   51.8060  -35.2122 -103.9183 C   0  0  0  0  0  0  0  0  0  0  0  0
   51.6595  -33.9267 -103.4516 N   0  0  0  0  0  0  0  0  0  0  0  0
  2  1  1  6  0  0  0
  2  3  1  0  0  0  0
  2  5  1  0  0  0  0
  3  4  1  0  0  0  0
  3 17  1  0  0  0  0
  5  6  1  0  0  0  0
  7  6  1  6  0  0  0
  7  8  1  0  0  0  0
  7  9  1  0  0  0  0
 10  9  1  1  0  0  0
 10 11  1  0  0  0  0
 10 12  1  0  0  0  0
 11 16  1  0  0  0  0
 12 13  1  6  0  0  0
 12 14  1  0  0  0  0
 14 15  1  6  0  0  0
 14 16  1  0  0  0  0
 16 27  1  1  0  0  0
 18 19  2  0  0  0  0
 18 23  1  0  0  0  0
 19 20  1  0  0  0  0
 20 21  2  0  0  0  0
 21 22  1  0  0  0  0
 21 27  1  0  0  0  0
 22 23  2  0  0  0  0
 22 25  1  0  0  0  0
 23 24  1  0  0  0  0
 25 26  2  0  0  0  0
 26 27  1  0  0  0  0
M  END
>  <CHROM.1>
-30.01649409,-60.88287864,-177.44677675,-71.60484604,41.04397002,78.02692488
-23.28212677,50.34065939,-31.33244472,-102.65412230,2.31633394,-1.00924325
0.56488218

>  <Name>
ligand

>  <RI>
0

>  <Rbt.Current_Directory>
/home/itssahil/PROJECTS/Mol_Feturizer/Test_systems_manuscript/rnas/4l81

>  <Rbt.Executable>
rbdock ($Id: //depot/dev/client3/rdock/2013.1/src/exe/rbdock.cxx#4 $)

>  <Rbt.Library>
libRbt.so (2013.1, Build901 2013/11/27)

>  <Rbt.Parameter_File>
/export/apps/rDock/src/rDock_2013.1_src/data/scripts/dock_solv.prm

>  <Rbt.Receptor>
prm/pocket_docking_8.prm

>  <SCORE>
-17.0804

>  <SCORE.INTER>
-16.2068

>  <SCORE.INTER.CONST>
1

>  <SCORE.INTER.POLAR>
0

>  <SCORE.INTER.ROT>
7

>  <SCORE.INTER.SOLV>
6.80298

>  <SCORE.INTER.VDW>
-21.3389

>  <SCORE.INTER.norm>
-0.600253

>  <SCORE.INTRA>
-0.87351

>  <SCORE.INTRA.DIHEDRAL>
-3.514

>  <SCORE.INTRA.DIHEDRAL.0>
8.34559

>  <SCORE.INTRA.POLAR>
0

>  <SCORE.INTRA.POLAR.0>
0

>  <SCORE.INTRA.REPUL>
0

>  <SCORE.INTRA.REPUL.0>
0

>  <SCORE.INTRA.SOLV>
-0.439805

>  <SCORE.INTRA.SOLV.lig_0>
-48.829

>  <SCORE.INTRA.VDW>
1.10339

>  <SCORE.INTRA.VDW.0>
-1.77092

>  <SCORE.INTRA.norm>
-0.0323522

>  <SCORE.RESTR>
0

>  <SCORE.RESTR.CAVITY>
0

>  <SCORE.RESTR.norm>
0

>  <SCORE.SYSTEM>
0

>  <SCORE.SYSTEM.CONST>
0

>  <SCORE.SYSTEM.DIHEDRAL>
0

>  <SCORE.SYSTEM.SOLV>
0

>  <SCORE.SYSTEM.norm>
0

>  <SCORE.heavy>
27

>  <SCORE.norm>
-0.632606

>  <RMSD>
6.522

$$$$
ligand
 OpenBabel02271912153D
libRbt.so/2013.1/901 2013/11/27
 27 29  0  0  0  0  0  0  0  0999 V2000
   49.6695  -32.3104 -102.7771 N   0  0  0  0  0  0  0  0  0  0  0  0
   49.7528  -30.9026 -102.3726 C   0  0  2  0  0  0  0  0  0  0  0  0
   51.1257  -30.3603 -102.7100 C   0  0  0  0  0  0  0  0  0  0  0  0
   52.0498  -31.1263 -102.9382 O   0  0  0  0  0  0  0  0  0  0  0  0
   49.5114  -30.7387 -100.8659 C   0  0  0  0  0  0  0  0  0  0  0  0
   49.2435  -29.2817 -100.5159 C   0  0  0  0  0  0  0  0  0  0  0  0
   47.4579  -28.8795 -100.4011 S   0  0  2  0  0  0  0  0  0  0  0  0
   46.8052  -30.1103  -99.2268 C   0  0  0  0  0  0  0  0  0  0  0  0
   46.9965  -29.6810 -101.9352 C   0  0  0  0  0  0  0  0  0  0  0  0
   45.5518  -29.4844 -102.3108 C   0  0  1  0  0  0  0  0  0  0  0  0
   45.2965  -28.0704 -102.3575 O   0  0  0  0  0  0  0  0  0  0  0  0
   45.5109  -29.9643 -103.7057 C   0  0  1  0  0  0  0  0  0  0  0  0
   45.0426  -31.3116 -103.7353 O   0  0  0  0  0  0  0  0  0  0  0  0
   44.4966  -29.0567 -104.3298 C   0  0  1  0  0  0  0  0  0  0  0  0
   43.1684  -29.5914 -104.1530 O   0  0  0  0  0  0  0  0  0  0  0  0
   44.6216  -27.6941 -103.5843 C   0  0  2  0  0  0  0  0  0  0  0  0
   51.3118  -29.1587 -102.7892 O   0  0  0  0  0  0  0  0  0  0  0  0
   46.9897  -25.6660 -107.8827 N   0  0  0  0  0  0  0  0  0  0  0  0
   46.2485  -26.7983 -107.8030 C   0  0  0  0  0  0  0  0  0  0  0  0
   45.6625  -27.1834 -106.6500 N   0  0  0  0  0  0  0  0  0  0  0  0
   45.8699  -26.4977 -105.5141 C   0  0  0  0  0  0  0  0  0  0  0  0
   46.6864  -25.3082 -105.5444 C   0  0  0  0  0  0  0  0  0  0  0  0
   47.2413  -24.9062 -106.7958 C   0  0  0  0  0  0  0  0  0  0  0  0
   48.0234  -23.7737 -106.8982 N   0  0  0  0  0  0  0  0  0  0  0  0
   46.7355  -24.8265 -104.2969 N   0  0  0  0  0  0  0  0  0  0  0  0
   46.0436  -25.6029 -103.5171 C   0  0  0  0  0  0  0  0  0  0  0  0
   45.4793  -26.6471 -104.2121 N   0  0  0  0  0  0  0  0  0  0  0  0
  2  1  1  1  0  0  0
  2  3  1  0  0  0  0
  2  5  1  0  0  0  0
  3  4  1  0  0  0  0
  3 17  1  0  0  0  0
  5  6  1  0  0  0  0
  7  6  1  6  0  0  0
  7  8  1  0  0  0  0
  7  9  1  0  0  0  0
 10  9  1  6  0  0  0
 10 11  1  0  0  0  0
 10 12  1  0  0  0  0
 11 16  1  0  0  0  0
 12 13  1  1  0  0  0
 12 14  1  0  0  0  0
 14 15  1  1  0  0  0
 14 16  1  0  0  0  0
 16 27  1  6  0  0  0
 18 19  2  0  0  0  0
 18 23  1  0  0  0  0
 19 20  1  0  0  0  0
 20 21  2  0  0  0  0
 21 22  1  0  0  0  0
 21 27  1  0  0  0  0
 22 23  2  0  0  0  0
 22 25  1  0  0  0  0
 23 24  1  0  0  0  0
 25 26  2  0  0  0  0
 26 27  1  0  0  0  0
M  END
>  <CHROM.1>
-17.30169143,-165.40321025,96.51350705,53.45727886,-174.93417107,55.77800229
135.57345926,47.16595066,-28.43991022,-103.47563581,-1.12288536,0.04488232
-0.80960398

>  <Name>
ligand

>  <RI>
0

>  <Rbt.Current_Directory>
/home/itssahil/PROJECTS/Mol_Feturizer/Test_systems_manuscript/rnas/4l81

>  <Rbt.Executable>
rbdock ($Id: //depot/dev/client3/rdock/2013.1/src/exe/rbdock.cxx#4 $)

>  <Rbt.Library>
libRbt.so (2013.1, Build901 2013/11/27)

>  <Rbt.Parameter_File>
/export/apps/rDock/src/rDock_2013.1_src/data/scripts/dock_solv.prm

>  <Rbt.Receptor>
prm/pocket_docking_4.prm

>  <SCORE>
-10.7626

>  <SCORE.INTER>
-11.7902

>  <SCORE.INTER.CONST>
1

>  <SCORE.INTER.POLAR>
0

>  <SCORE.INTER.ROT>
7

>  <SCORE.INTER.SOLV>
10.1775

>  <SCORE.INTER.VDW>
-19.5193

>  <SCORE.INTER.norm>
-0.436674

>  <SCORE.INTRA>
0.901327

>  <SCORE.INTRA.DIHEDRAL>
0.00613862

>  <SCORE.INTRA.DIHEDRAL.0>
8.34559

>  <SCORE.INTRA.POLAR>
0

>  <SCORE.INTRA.POLAR.0>
0

>  <SCORE.INTRA.REPUL>
0

>  <SCORE.INTRA.REPUL.0>
0

>  <SCORE.INTRA.SOLV>
-0.555755

>  <SCORE.INTRA.SOLV.lig_0>
-48.829

>  <SCORE.INTRA.VDW>
1.17613

>  <SCORE.INTRA.VDW.0>
-1.77092

>  <SCORE.INTRA.norm>
0.0333825

>  <SCORE.RESTR>
0.126313

>  <SCORE.RESTR.CAVITY>
0.126313

>  <SCORE.RESTR.norm>
0.00467826

>  <SCORE.SYSTEM>
0

>  <SCORE.SYSTEM.CONST>
0

>  <SCORE.SYSTEM.DIHEDRAL>
0

>  <SCORE.SYSTEM.SOLV>
0

>  <SCORE.SYSTEM.norm>
0

>  <SCORE.heavy>
27

>  <SCORE.norm>
-0.398613

>  <RMSD>
6.553

$$$$
ligand
 OpenBabel02271912153D
libRbt.so/2013.1/901 2013/11/27
 27 29  0  0  0  0  0  0  0  0999 V2000
   46.2559  -30.1821  -98.9161 N   0  0  0  0  0  0  0  0  0  0  0  0
   46.1626  -29.2550 -100.0495 C   0  0  2  0  0  0  0  0  0  0  0  0
   44.8423  -29.4594 -100.7621 C   0  0  0  0  0  0  0  0  0  0  0  0
   44.1658  -30.4501 -100.5302 O   0  0  0  0  0  0  0  0  0  0  0  0
   47.3055  -29.4777 -101.0493 C   0  0  0  0  0  0  0  0  0  0  0  0
   48.6580  -29.3407 -100.3646 C   0  0  0  0  0  0  0  0  0  0  0  0
   50.0743  -29.4804 -101.5213 S   0  0  2  0  0  0  0  0  0  0  0  0
   49.6823  -28.2876 -102.8416 C   0  0  0  0  0  0  0  0  0  0  0  0
   49.5051  -30.9803 -102.3183 C   0  0  0  0  0  0  0  0  0  0  0  0
   50.4812  -31.5439 -103.3164 C   0  0  1  0  0  0  0  0  0  0  0  0
   51.7275  -31.7691 -102.6361 O   0  0  0  0  0  0  0  0  0  0  0  0
   49.9156  -32.8756 -103.6073 C   0  0  1  0  0  0  0  0  0  0  0  0
   49.1511  -32.8190 -104.8105 O   0  0  0  0  0  0  0  0  0  0  0  0
   51.1420  -33.7080 -103.8195 C   0  0  1  0  0  0  0  0  0  0  0  0
   51.5657  -33.6355 -105.1967 O   0  0  0  0  0  0  0  0  0  0  0  0
   52.2400  -33.1003 -102.8958 C   0  0  2  0  0  0  0  0  0  0  0  0
   44.4287  -28.6233 -101.5461 O   0  0  0  0  0  0  0  0  0  0  0  0
   53.3436  -37.3708  -99.9390 N   0  0  0  0  0  0  0  0  0  0  0  0
   53.2438  -37.3024 -101.2893 C   0  0  0  0  0  0  0  0  0  0  0  0
   52.9976  -36.1377 -101.9249 N   0  0  0  0  0  0  0  0  0  0  0  0
   52.7539  -35.0158 -101.2282 C   0  0  0  0  0  0  0  0  0  0  0  0
   52.8090  -35.0516  -99.7867 C   0  0  0  0  0  0  0  0  0  0  0  0
   53.1273  -36.2918  -99.1574 C   0  0  0  0  0  0  0  0  0  0  0  0
   53.2064  -36.3946  -97.7834 N   0  0  0  0  0  0  0  0  0  0  0  0
   52.5261  -33.8200  -99.3462 N   0  0  0  0  0  0  0  0  0  0  0  0
   52.2979  -33.0487 -100.3672 C   0  0  0  0  0  0  0  0  0  0  0  0
   52.4308  -33.7280 -101.5558 N   0  0  0  0  0  0  0  0  0  0  0  0
  2  1  1  1  0  0  0
  2  3  1  0  0  0  0
  2  5  1  0  0  0  0
  3  4  1  0  0  0  0
  3 17  1  0  0  0  0
  5  6  1  0  0  0  0
  7  6  1  1  0  0  0
  7  8  1  0  0  0  0
  7  9  1  0  0  0  0
 10  9  1  1  0  0  0
 10 11  1  0  0  0  0
 10 12  1  0  0  0  0
 11 16  1  0  0  0  0
 12 13  1  6  0  0  0
 12 14  1  0  0  0  0
 14 15  1  6  0  0  0
 14 16  1  0  0  0  0
 16 27  1  1  0  0  0
 18 19  2  0  0  0  0
 18 23  1  0  0  0  0
 19 20  1  0  0  0  0
 20 21  2  0  0  0  0
 21 22  1  0  0  0  0
 21 27  1  0  0  0  0
 22 23  2  0  0  0  0
 22 25  1  0  0  0  0
 23 24  1  0  0  0  0
 25 26  2  0  0  0  0
 26 27  1  0  0  0  0
M  END
>  <CHROM.1>
-13.72367423,-56.80281084,-176.05197563,51.60992343,-175.00281492,56.69777174
172.18370748,50.12708715,-32.32948327,-101.48882216,2.83510264,0.71212320
-1.16728815

>  <Name>
ligand

>  <RI>
0

>  <Rbt.Current_Directory>
/home/itssahil/PROJECTS/Mol_Feturizer/Test_systems_manuscript/rnas/4l81

>  <Rbt.Executable>
rbdock ($Id: //depot/dev/client3/rdock/2013.1/src/exe/rbdock.cxx#4 $)

>  <Rbt.Library>
libRbt.so (2013.1, Build901 2013/11/27)

>  <Rbt.Parameter_File>
/export/apps/rDock/src/rDock_2013.1_src/data/scripts/dock_solv.prm

>  <Rbt.Receptor>
prm/pocket_docking_8.prm

>  <SCORE>
-20.1084

>  <SCORE.INTER>
-18.9892

>  <SCORE.INTER.CONST>
1

>  <SCORE.INTER.POLAR>
0

>  <SCORE.INTER.ROT>
7

>  <SCORE.INTER.SOLV>
16.7083

>  <SCORE.INTER.VDW>
-26.4956

>  <SCORE.INTER.norm>
-0.703304

>  <SCORE.INTRA>
-1.11922

>  <SCORE.INTRA.DIHEDRAL>
-4.44773

>  <SCORE.INTRA.DIHEDRAL.0>
8.34559

>  <SCORE.INTRA.POLAR>
0

>  <SCORE.INTRA.POLAR.0>
0

>  <SCORE.INTRA.REPUL>
0

>  <SCORE.INTRA.REPUL.0>
0

>  <SCORE.INTRA.SOLV>
-0.584736

>  <SCORE.INTRA.SOLV.lig_0>
-48.829

>  <SCORE.INTRA.VDW>
1.39701

>  <SCORE.INTRA.VDW.0>
-1.77092

>  <SCORE.INTRA.norm>
-0.0414526

>  <SCORE.RESTR>
0

>  <SCORE.RESTR.CAVITY>
0

>  <SCORE.RESTR.norm>
0

>  <SCORE.SYSTEM>
0

>  <SCORE.SYSTEM.CONST>
0

>  <SCORE.SYSTEM.DIHEDRAL>
0

>  <SCORE.SYSTEM.SOLV>
0

>  <SCORE.SYSTEM.norm>
0

>  <SCORE.heavy>
27

>  <SCORE.norm>
-0.744756

>  <RMSD>
6.557

$$$$
ligand
 OpenBabel02271912153D
libRbt.so/2013.1/901 2013/11/27
 27 29  0  0  0  0  0  0  0  0999 V2000
   50.2711  -31.4678 -100.8341 N   0  0  0  0  0  0  0  0  0  0  0  0
   49.6518  -31.3194 -102.1559 C   0  0  2  0  0  0  0  0  0  0  0  0
   50.7237  -31.0357 -103.1871 C   0  0  0  0  0  0  0  0  0  0  0  0
   51.5540  -30.1622 -102.9861 O   0  0  0  0  0  0  0  0  0  0  0  0
   48.6335  -30.1712 -102.1704 C   0  0  0  0  0  0  0  0  0  0  0  0
   47.4822  -30.4568 -101.2164 C   0  0  0  0  0  0  0  0  0  0  0  0
   46.3828  -29.0127 -100.9533 S   0  0  2  0  0  0  0  0  0  0  0  0
   46.2476  -28.8883  -99.1406 C   0  0  0  0  0  0  0  0  0  0  0  0
   44.8567  -29.8880 -101.2905 C   0  0  0  0  0  0  0  0  0  0  0  0
   44.3820  -29.7523 -102.7129 C   0  0  1  0  0  0  0  0  0  0  0  0
   44.2773  -28.3499 -103.0112 O   0  0  0  0  0  0  0  0  0  0  0  0
   45.5299  -30.2614 -103.4881 C   0  0  1  0  0  0  0  0  0  0  0  0
   45.3034  -31.6254 -103.8399 O   0  0  0  0  0  0  0  0  0  0  0  0
   45.4961  -29.4045 -104.7156 C   0  0  1  0  0  0  0  0  0  0  0  0
   44.6245  -29.9841 -105.7084 O   0  0  0  0  0  0  0  0  0  0  0  0
   44.9354  -28.0235 -104.2612 C   0  0  2  0  0  0  0  0  0  0  0  0
   50.7872  -31.6969 -104.2087 O   0  0  0  0  0  0  0  0  0  0  0  0
   46.9937  -23.2163 -105.1841 N   0  0  0  0  0  0  0  0  0  0  0  0
   45.9955  -23.8333 -105.8628 C   0  0  0  0  0  0  0  0  0  0  0  0
   45.5335  -25.0475 -105.4975 N   0  0  0  0  0  0  0  0  0  0  0  0
   46.1131  -25.7273 -104.4948 C   0  0  0  0  0  0  0  0  0  0  0  0
   47.2068  -25.1255 -103.7709 C   0  0  0  0  0  0  0  0  0  0  0  0
   47.6271  -23.8173 -104.1547 C   0  0  0  0  0  0  0  0  0  0  0  0
   48.6601  -23.1790 -103.4988 N   0  0  0  0  0  0  0  0  0  0  0  0
   47.5997  -26.0032 -102.8403 N   0  0  0  0  0  0  0  0  0  0  0  0
   46.8661  -27.0722 -102.9319 C   0  0  0  0  0  0  0  0  0  0  0  0
   45.9263  -26.9585 -103.9296 N   0  0  0  0  0  0  0  0  0  0  0  0
  2  1  1  1  0  0  0
  2  3  1  0  0  0  0
  2  5  1  0  0  0  0
  3  4  1  0  0  0  0
  3 17  1  0  0  0  0
  5  6  1  0  0  0  0
  7  6  1  1  0  0  0
  7  8  1  0  0  0  0
  7  9  1  0  0  0  0
 10  9  1  1  0  0  0
 10 11  1  0  0  0  0
 10 12  1  0  0  0  0
 11 16  1  0  0  0  0
 12 13  1  6  0  0  0
 12 14  1  0  0  0  0
 14 15  1  6  0  0  0
 14 16  1  0  0  0  0
 16 27  1  1  0  0  0
 18 19  2  0  0  0  0
 18 23  1  0  0  0  0
 19 20  1  0  0  0  0
 20 21  2  0  0  0  0
 21 22  1  0  0  0  0
 21 27  1  0  0  0  0
 22 23  2  0  0  0  0
 22 25  1  0  0  0  0
 23 24  1  0  0  0  0
 25 26  2  0  0  0  0
 26 27  1  0  0  0  0
M  END
>  <CHROM.1>
-49.36880771,-63.09913363,169.79597087,-129.87635825,-95.32463976,-55.06077744
-127.29348197,47.00081317,-28.34252669,-103.13340236,-1.25544300,-0.08721141
-0.33188760

>  <Name>
ligand

>  <RI>
0

>  <Rbt.Current_Directory>
/home/itssahil/PROJECTS/Mol_Feturizer/Test_systems_manuscript/rnas/4l81

>  <Rbt.Executable>
rbdock ($Id: //depot/dev/client3/rdock/2013.1/src/exe/rbdock.cxx#4 $)

>  <Rbt.Library>
libRbt.so (2013.1, Build901 2013/11/27)

>  <Rbt.Parameter_File>
/export/apps/rDock/src/rDock_2013.1_src/data/scripts/dock_solv.prm

>  <Rbt.Receptor>
prm/pocket_docking_6.prm

>  <SCORE>
-11.5209

>  <SCORE.INTER>
-12.4231

>  <SCORE.INTER.CONST>
1

>  <SCORE.INTER.POLAR>
0

>  <SCORE.INTER.ROT>
7

>  <SCORE.INTER.SOLV>
11.3631

>  <SCORE.INTER.VDW>
-20.3364

>  <SCORE.INTER.norm>
-0.460114

>  <SCORE.INTRA>
0.902227

>  <SCORE.INTRA.DIHEDRAL>
1.65244

>  <SCORE.INTRA.DIHEDRAL.0>
8.34559

>  <SCORE.INTRA.POLAR>
0

>  <SCORE.INTRA.POLAR.0>
0

>  <SCORE.INTRA.REPUL>
0

>  <SCORE.INTRA.REPUL.0>
0

>  <SCORE.INTRA.SOLV>
-0.0724516

>  <SCORE.INTRA.SOLV.lig_0>
-48.829

>  <SCORE.INTRA.VDW>
0.112234

>  <SCORE.INTRA.VDW.0>
-1.77092

>  <SCORE.INTRA.norm>
0.0334158

>  <SCORE.RESTR>
0

>  <SCORE.RESTR.CAVITY>
0

>  <SCORE.RESTR.norm>
0

>  <SCORE.SYSTEM>
0

>  <SCORE.SYSTEM.CONST>
0

>  <SCORE.SYSTEM.DIHEDRAL>
0

>  <SCORE.SYSTEM.SOLV>
0

>  <SCORE.SYSTEM.norm>
0

>  <SCORE.heavy>
27

>  <SCORE.norm>
-0.426699

>  <RMSD>
6.558

$$$$
ligand
 OpenBabel02271912153D
libRbt.so/2013.1/901 2013/11/27
 27 29  0  0  0  0  0  0  0  0999 V2000
   50.9499  -32.1264 -103.0539 N   0  0  0  0  0  0  0  0  0  0  0  0
   50.8163  -30.8266 -102.3866 C   0  0  2  0  0  0  0  0  0  0  0  0
   50.9038  -31.0172 -100.8870 C   0  0  0  0  0  0  0  0  0  0  0  0
   50.9555  -32.1418 -100.4125 O   0  0  0  0  0  0  0  0  0  0  0  0
   49.4758  -30.1600 -102.7244 C   0  0  0  0  0  0  0  0  0  0  0  0
   49.5134  -28.6734 -102.3995 C   0  0  0  0  0  0  0  0  0  0  0  0
   47.9759  -27.7895 -102.8665 S   0  0  2  0  0  0  0  0  0  0  0  0
   48.3411  -26.0446 -102.4904 C   0  0  0  0  0  0  0  0  0  0  0  0
   47.0690  -28.2143 -101.3813 C   0  0  0  0  0  0  0  0  0  0  0  0
   45.5940  -28.4136 -101.6083 C   0  0  1  0  0  0  0  0  0  0  0  0
   45.1314  -27.3523 -102.4606 O   0  0  0  0  0  0  0  0  0  0  0  0
   45.5538  -29.6480 -102.4160 C   0  0  1  0  0  0  0  0  0  0  0  0
   45.2880  -30.7657 -101.5700 O   0  0  0  0  0  0  0  0  0  0  0  0
   44.3867  -29.4034 -103.3216 C   0  0  1  0  0  0  0  0  0  0  0  0
   43.1623  -29.8296 -102.6887 O   0  0  0  0  0  0  0  0  0  0  0  0
   44.3473  -27.8651 -103.5671 C   0  0  2  0  0  0  0  0  0  0  0  0
   50.9568  -30.0522 -100.1447 O   0  0  0  0  0  0  0  0  0  0  0  0
   47.1888  -24.1227 -106.0405 N   0  0  0  0  0  0  0  0  0  0  0  0
   46.7541  -24.1182 -104.7564 C   0  0  0  0  0  0  0  0  0  0  0  0
   46.0713  -25.1586 -104.2345 N   0  0  0  0  0  0  0  0  0  0  0  0
   45.7213  -26.2027 -105.0032 C   0  0  0  0  0  0  0  0  0  0  0  0
   46.1277  -26.2301 -106.3876 C   0  0  0  0  0  0  0  0  0  0  0  0
   46.8958  -25.1351 -106.8839 C   0  0  0  0  0  0  0  0  0  0  0  0
   47.3257  -25.1017 -108.1949 N   0  0  0  0  0  0  0  0  0  0  0  0
   45.6513  -27.3614 -106.9205 N   0  0  0  0  0  0  0  0  0  0  0  0
   44.9943  -28.0137 -106.0083 C   0  0  0  0  0  0  0  0  0  0  0  0
   45.0087  -27.3524 -104.8024 N   0  0  0  0  0  0  0  0  0  0  0  0
  2  1  1  6  0  0  0
  2  3  1  0  0  0  0
  2  5  1  0  0  0  0
  3  4  1  0  0  0  0
  3 17  1  0  0  0  0
  5  6  1  0  0  0  0
  7  6  1  1  0  0  0
  7  8  1  0  0  0  0
  7  9  1  0  0  0  0
 10  9  1  6  0  0  0
 10 11  1  0  0  0  0
 10 12  1  0  0  0  0
 11 16  1  0  0  0  0
 12 13  1  1  0  0  0
 12 14  1  0  0  0  0
 14 15  1  1  0  0  0
 14 16  1  0  0  0  0
 16 27  1  6  0  0  0
 18 19  2  0  0  0  0
 18 23  1  0  0  0  0
 19 20  1  0  0  0  0
 20 21  2  0  0  0  0
 21 22  1  0  0  0  0
 21 27  1  0  0  0  0
 22 23  2  0  0  0  0
 22 25  1  0  0  0  0
 23 24  1  0  0  0  0
 25 26  2  0  0  0  0
 26 27  1  0  0  0  0
M  END
>  <CHROM.1>
-5.85157966,-162.58417811,176.71175992,-175.86016868,-146.09274247,-43.95758099
-29.83800530,47.17879316,-28.17067217,-103.42051832,-1.01099700,-0.01353311
-0.71809676

>  <Name>
ligand

>  <RI>
0

>  <Rbt.Current_Directory>
/home/itssahil/PROJECTS/Mol_Feturizer/Test_systems_manuscript/rnas/4l81

>  <Rbt.Executable>
rbdock ($Id: //depot/dev/client3/rdock/2013.1/src/exe/rbdock.cxx#4 $)

>  <Rbt.Library>
libRbt.so (2013.1, Build901 2013/11/27)

>  <Rbt.Parameter_File>
/export/apps/rDock/src/rDock_2013.1_src/data/scripts/dock_solv.prm

>  <Rbt.Receptor>
prm/pocket_docking_4.prm

>  <SCORE>
-11.9088

>  <SCORE.INTER>
-10.2845

>  <SCORE.INTER.CONST>
1

>  <SCORE.INTER.POLAR>
0

>  <SCORE.INTER.ROT>
7

>  <SCORE.INTER.SOLV>
10.9423

>  <SCORE.INTER.VDW>
-18.7705

>  <SCORE.INTER.norm>
-0.380908

>  <SCORE.INTRA>
-1.62424

>  <SCORE.INTRA.DIHEDRAL>
0.963172

>  <SCORE.INTRA.DIHEDRAL.0>
8.34559

>  <SCORE.INTRA.POLAR>
0

>  <SCORE.INTRA.POLAR.0>
0

>  <SCORE.INTRA.REPUL>
0

>  <SCORE.INTRA.REPUL.0>
0

>  <SCORE.INTRA.SOLV>
-0.931696

>  <SCORE.INTRA.SOLV.lig_0>
-48.829

>  <SCORE.INTRA.VDW>
-1.63998

>  <SCORE.INTRA.VDW.0>
-1.77092

>  <SCORE.INTRA.norm>
-0.0601571

>  <SCORE.RESTR>
0

>  <SCORE.RESTR.CAVITY>
0

>  <SCORE.RESTR.norm>
0

>  <SCORE.SYSTEM>
0

>  <SCORE.SYSTEM.CONST>
0

>  <SCORE.SYSTEM.DIHEDRAL>
0

>  <SCORE.SYSTEM.SOLV>
0

>  <SCORE.SYSTEM.norm>
0

>  <SCORE.heavy>
27

>  <SCORE.norm>
-0.441065

>  <RMSD>
6.579

$$$$
ligand
 OpenBabel02271912153D
libRbt.so/2013.1/901 2013/11/27
 27 29  0  0  0  0  0  0  0  0999 V2000
   48.6122  -28.8763 -100.6860 N   0  0  0  0  0  0  0  0  0  0  0  0
   47.1582  -28.8935 -100.8810 C   0  0  2  0  0  0  0  0  0  0  0  0
   46.4852  -29.3940  -99.6204 C   0  0  0  0  0  0  0  0  0  0  0  0
   45.4155  -28.9218  -99.2659 O   0  0  0  0  0  0  0  0  0  0  0  0
   46.7618  -29.8053 -102.0502 C   0  0  0  0  0  0  0  0  0  0  0  0
   47.3399  -29.2881 -103.3600 C   0  0  0  0  0  0  0  0  0  0  0  0
   47.1586  -30.4705 -104.7501 S   0  0  2  0  0  0  0  0  0  0  0  0
   48.1885  -31.8900 -104.2564 C   0  0  0  0  0  0  0  0  0  0  0  0
   48.3185  -29.6451 -105.8374 C   0  0  0  0  0  0  0  0  0  0  0  0
   47.6632  -28.9084 -106.9752 C   0  0  1  0  0  0  0  0  0  0  0  0
   46.7794  -27.9238 -106.4127 O   0  0  0  0  0  0  0  0  0  0  0  0
   48.7902  -28.1672 -107.5738 C   0  0  1  0  0  0  0  0  0  0  0  0
   49.2921  -28.8856 -108.6996 O   0  0  0  0  0  0  0  0  0  0  0  0
   48.1376  -26.8979 -108.0268 C   0  0  1  0  0  0  0  0  0  0  0  0
   47.5952  -27.0584 -109.3540 O   0  0  0  0  0  0  0  0  0  0  0  0
   46.9855  -26.6211 -107.0148 C   0  0  2  0  0  0  0  0  0  0  0  0
   46.9872  -30.2929  -98.9685 O   0  0  0  0  0  0  0  0  0  0  0  0
   50.1049  -25.1377 -102.9816 N   0  0  0  0  0  0  0  0  0  0  0  0
   50.2659  -26.2036 -103.8037 C   0  0  0  0  0  0  0  0  0  0  0  0
   49.4178  -26.4471 -104.8247 N   0  0  0  0  0  0  0  0  0  0  0  0
   48.3276  -25.6842 -105.0061 C   0  0  0  0  0  0  0  0  0  0  0  0
   48.0944  -24.5626 -104.1284 C   0  0  0  0  0  0  0  0  0  0  0  0
   49.0459  -24.3085 -103.0962 C   0  0  0  0  0  0  0  0  0  0  0  0
   48.8897  -23.2472 -102.2279 N   0  0  0  0  0  0  0  0  0  0  0  0
   46.9536  -23.9818 -104.5183 N   0  0  0  0  0  0  0  0  0  0  0  0
   46.4703  -24.6383 -105.5307 C   0  0  0  0  0  0  0  0  0  0  0  0
   47.2778  -25.6947 -105.8824 N   0  0  0  0  0  0  0  0  0  0  0  0
  2  1  1  1  0  0  0
  2  3  1  0  0  0  0
  2  5  1  0  0  0  0
  3  4  1  0  0  0  0
  3 17  1  0  0  0  0
  5  6  1  0  0  0  0
  7  6  1  1  0  0  0
  7  8  1  0  0  0  0
  7  9  1  0  0  0  0
 10  9  1  1  0  0  0
 10 11  1  0  0  0  0
 10 12  1  0  0  0  0
 11 16  1  0  0  0  0
 12 13  1  6  0  0  0
 12 14  1  0  0  0  0
 14 15  1  6  0  0  0
 14 16  1  0  0  0  0
 16 27  1  1  0  0  0
 18 19  2  0  0  0  0
 18 23  1  0  0  0  0
 19 20  1  0  0  0  0
 20 21  2  0  0  0  0
 21 22  1  0  0  0  0
 21 27  1  0  0  0  0
 22 23  2  0  0  0  0
 22 25  1  0  0  0  0
 23 24  1  0  0  0  0
 25 26  2  0  0  0  0
 26 27  1  0  0  0  0
M  END
>  <CHROM.1>
143.70394608,-62.97812651,169.99382596,-64.86859059,-106.62001307,59.40000271
64.00729302,47.81613545,-27.70143799,-104.31445563,-2.43230795,-1.37607833
-2.07107447

>  <Name>
ligand

>  <RI>
0

>  <Rbt.Current_Directory>
/home/itssahil/PROJECTS/Mol_Feturizer/Test_systems_manuscript/rnas/4l81

>  <Rbt.Executable>
rbdock ($Id: //depot/dev/client3/rdock/2013.1/src/exe/rbdock.cxx#4 $)

>  <Rbt.Library>
libRbt.so (2013.1, Build901 2013/11/27)

>  <Rbt.Parameter_File>
/export/apps/rDock/src/rDock_2013.1_src/data/scripts/dock_solv.prm

>  <Rbt.Receptor>
prm/pocket_docking_5.prm

>  <SCORE>
-7.59856

>  <SCORE.INTER>
-4.5812

>  <SCORE.INTER.CONST>
1

>  <SCORE.INTER.POLAR>
0

>  <SCORE.INTER.ROT>
7

>  <SCORE.INTER.SOLV>
15.6893

>  <SCORE.INTER.VDW>
-16.5506

>  <SCORE.INTER.norm>
-0.169674

>  <SCORE.INTRA>
-3.01736

>  <SCORE.INTRA.DIHEDRAL>
-1.42699

>  <SCORE.INTRA.DIHEDRAL.0>
8.34559

>  <SCORE.INTRA.POLAR>
0

>  <SCORE.INTRA.POLAR.0>
0

>  <SCORE.INTRA.REPUL>
0

>  <SCORE.INTRA.REPUL.0>
0

>  <SCORE.INTRA.SOLV>
-0.508905

>  <SCORE.INTRA.SOLV.lig_0>
-48.829

>  <SCORE.INTRA.VDW>
-2.04941

>  <SCORE.INTRA.VDW.0>
-1.77092

>  <SCORE.INTRA.norm>
-0.111754

>  <SCORE.RESTR>
0

>  <SCORE.RESTR.CAVITY>
0

>  <SCORE.RESTR.norm>
0

>  <SCORE.SYSTEM>
0

>  <SCORE.SYSTEM.CONST>
0

>  <SCORE.SYSTEM.DIHEDRAL>
0

>  <SCORE.SYSTEM.SOLV>
0

>  <SCORE.SYSTEM.norm>
0

>  <SCORE.heavy>
27

>  <SCORE.norm>
-0.281428

>  <RMSD>
6.584

$$$$
ligand
 OpenBabel02271912153D
libRbt.so/2013.1/901 2013/11/27
 27 29  0  0  0  0  0  0  0  0999 V2000
   52.5114  -32.8845 -102.9987 N   0  0  0  0  0  0  0  0  0  0  0  0
   51.3106  -32.0962 -102.6998 C   0  0  2  0  0  0  0  0  0  0  0  0
   51.2044  -31.8846 -101.2042 C   0  0  0  0  0  0  0  0  0  0  0  0
   51.5206  -32.7782 -100.4333 O   0  0  0  0  0  0  0  0  0  0  0  0
   50.0407  -32.8037 -103.1920 C   0  0  0  0  0  0  0  0  0  0  0  0
   48.8122  -31.9364 -102.9569 C   0  0  0  0  0  0  0  0  0  0  0  0
   47.2378  -32.7808 -103.3712 S   0  0  2  0  0  0  0  0  0  0  0  0
   47.1995  -32.7693 -105.1928 C   0  0  0  0  0  0  0  0  0  0  0  0
   46.1885  -31.3631 -103.0581 C   0  0  0  0  0  0  0  0  0  0  0  0
   46.3564  -30.7774 -101.6814 C   0  0  1  0  0  0  0  0  0  0  0  0
   47.4190  -29.8107 -101.7397 O   0  0  0  0  0  0  0  0  0  0  0  0
   45.1060  -30.0154 -101.4980 C   0  0  1  0  0  0  0  0  0  0  0  0
   44.1764  -30.7940 -100.7463 O   0  0  0  0  0  0  0  0  0  0  0  0
   45.5598  -28.8397 -100.6894 C   0  0  1  0  0  0  0  0  0  0  0  0
   45.5231  -29.1544  -99.2820 O   0  0  0  0  0  0  0  0  0  0  0  0
   47.0273  -28.5553 -101.1294 C   0  0  2  0  0  0  0  0  0  0  0  0
   50.8351  -30.8127 -100.7577 O   0  0  0  0  0  0  0  0  0  0  0  0
   50.2886  -25.3593 -103.8401 N   0  0  0  0  0  0  0  0  0  0  0  0
   50.6099  -26.2078 -102.8327 C   0  0  0  0  0  0  0  0  0  0  0  0
   49.6863  -27.0016 -102.2514 N   0  0  0  0  0  0  0  0  0  0  0  0
   48.3914  -26.9113 -102.5959 C   0  0  0  0  0  0  0  0  0  0  0  0
   47.9981  -25.9912 -103.6357 C   0  0  0  0  0  0  0  0  0  0  0  0
   49.0151  -25.2109 -104.2620 C   0  0  0  0  0  0  0  0  0  0  0  0
   48.7102  -24.3187 -105.2699 N   0  0  0  0  0  0  0  0  0  0  0  0
   46.6713  -26.0935 -103.7775 N   0  0  0  0  0  0  0  0  0  0  0  0
   46.2225  -26.9698 -102.9290 C   0  0  0  0  0  0  0  0  0  0  0  0
   47.2376  -27.5141 -102.1773 N   0  0  0  0  0  0  0  0  0  0  0  0
  2  1  1  1  0  0  0
  2  3  1  0  0  0  0
  2  5  1  0  0  0  0
  3  4  1  0  0  0  0
  3 17  1  0  0  0  0
  5  6  1  0  0  0  0
  7  6  1  6  0  0  0
  7  8  1  0  0  0  0
  7  9  1  0  0  0  0
 10  9  1  6  0  0  0
 10 11  1  0  0  0  0
 10 12  1  0  0  0  0
 11 16  1  0  0  0  0
 12 13  1  1  0  0  0
 12 14  1  0  0  0  0
 14 15  1  1  0  0  0
 14 16  1  0  0  0  0
 16 27  1  6  0  0  0
 18 19  2  0  0  0  0
 18 23  1  0  0  0  0
 19 20  1  0  0  0  0
 20 21  2  0  0  0  0
 21 22  1  0  0  0  0
 21 27  1  0  0  0  0
 22 23  2  0  0  0  0
 22 25  1  0  0  0  0
 23 24  1  0  0  0  0
 25 26  2  0  0  0  0
 26 27  1  0  0  0  0
M  END
>  <CHROM.1>
-37.77734275,-176.35040689,-174.43723782,-75.09852740,-55.09132946,87.92937068
-78.39032365,48.19006351,-29.57964124,-102.45178262,-1.37938729,0.20324342
-0.18376910

>  <Name>
ligand

>  <RI>
0

>  <Rbt.Current_Directory>
/home/itssahil/PROJECTS/Mol_Feturizer/Test_systems_manuscript/rnas/4l81

>  <Rbt.Executable>
rbdock ($Id: //depot/dev/client3/rdock/2013.1/src/exe/rbdock.cxx#4 $)

>  <Rbt.Library>
libRbt.so (2013.1, Build901 2013/11/27)

>  <Rbt.Parameter_File>
/export/apps/rDock/src/rDock_2013.1_src/data/scripts/dock_solv.prm

>  <Rbt.Receptor>
prm/pocket_docking_8.prm

>  <SCORE>
-17.71

>  <SCORE.INTER>
-16.3407

>  <SCORE.INTER.CONST>
1

>  <SCORE.INTER.POLAR>
0

>  <SCORE.INTER.ROT>
7

>  <SCORE.INTER.SOLV>
13.1822

>  <SCORE.INTER.VDW>
-23.5545

>  <SCORE.INTER.norm>
-0.605209

>  <SCORE.INTRA>
-1.39577

>  <SCORE.INTRA.DIHEDRAL>
-2.04583

>  <SCORE.INTRA.DIHEDRAL.0>
8.34559

>  <SCORE.INTRA.POLAR>
0

>  <SCORE.INTRA.POLAR.0>
0

>  <SCORE.INTRA.REPUL>
0

>  <SCORE.INTRA.REPUL.0>
0

>  <SCORE.INTRA.SOLV>
-1.23492

>  <SCORE.INTRA.SOLV.lig_0>
-48.829

>  <SCORE.INTRA.VDW>
0.24461

>  <SCORE.INTRA.VDW.0>
-1.77092

>  <SCORE.INTRA.norm>
-0.051695

>  <SCORE.RESTR>
0.026428

>  <SCORE.RESTR.CAVITY>
0.026428

>  <SCORE.RESTR.norm>
0.000978813

>  <SCORE.SYSTEM>
0

>  <SCORE.SYSTEM.CONST>
0

>  <SCORE.SYSTEM.DIHEDRAL>
0

>  <SCORE.SYSTEM.SOLV>
0

>  <SCORE.SYSTEM.norm>
0

>  <SCORE.heavy>
27

>  <SCORE.norm>
-0.655926

>  <RMSD>
6.636

$$$$
ligand
 OpenBabel02271912153D
libRbt.so/2013.1/901 2013/11/27
 27 29  0  0  0  0  0  0  0  0999 V2000
   49.5936  -34.3478 -105.8193 N   0  0  0  0  0  0  0  0  0  0  0  0
   50.9826  -33.9939 -105.5060 C   0  0  2  0  0  0  0  0  0  0  0  0
   51.7644  -35.2505 -105.1861 C   0  0  0  0  0  0  0  0  0  0  0  0
   52.6139  -35.6601 -105.9627 O   0  0  0  0  0  0  0  0  0  0  0  0
   51.0595  -33.0425 -104.3041 C   0  0  0  0  0  0  0  0  0  0  0  0
   50.2023  -31.8064 -104.5365 C   0  0  0  0  0  0  0  0  0  0  0  0
   50.1429  -30.6819 -103.0889 S   0  0  2  0  0  0  0  0  0  0  0  0
   50.5257  -31.7656 -101.6751 C   0  0  0  0  0  0  0  0  0  0  0  0
   48.3569  -30.6616 -102.9532 C   0  0  0  0  0  0  0  0  0  0  0  0
   47.8512  -29.9730 -101.7135 C   0  0  1  0  0  0  0  0  0  0  0  0
   48.2847  -28.6031 -101.7618 O   0  0  0  0  0  0  0  0  0  0  0  0
   46.3906  -29.9583 -101.9231 C   0  0  1  0  0  0  0  0  0  0  0  0
   45.7947  -31.0474 -101.2201 O   0  0  0  0  0  0  0  0  0  0  0  0
   45.9869  -28.6612 -101.2933 C   0  0  1  0  0  0  0  0  0  0  0  0
   45.7388  -28.8435  -99.8838 O   0  0  0  0  0  0  0  0  0  0  0  0
   47.1891  -27.6911 -101.4973 C   0  0  2  0  0  0  0  0  0  0  0  0
   51.5765  -35.8438 -104.1384 O   0  0  0  0  0  0  0  0  0  0  0  0
   44.5186  -25.6322 -105.5995 N   0  0  0  0  0  0  0  0  0  0  0  0
   44.0949  -26.5807 -104.7284 C   0  0  0  0  0  0  0  0  0  0  0  0
   44.8617  -26.9897 -103.6961 N   0  0  0  0  0  0  0  0  0  0  0  0
   46.1148  -26.5297 -103.5495 C   0  0  0  0  0  0  0  0  0  0  0  0
   46.6220  -25.5488 -104.4786 C   0  0  0  0  0  0  0  0  0  0  0  0
   45.7580  -25.1031 -105.5227 C   0  0  0  0  0  0  0  0  0  0  0  0
   46.1753  -24.1599 -106.4397 N   0  0  0  0  0  0  0  0  0  0  0  0
   47.8789  -25.2680 -104.1150 N   0  0  0  0  0  0  0  0  0  0  0  0
   48.1860  -25.9807 -103.0724 C   0  0  0  0  0  0  0  0  0  0  0  0
   47.1354  -26.7732 -102.6724 N   0  0  0  0  0  0  0  0  0  0  0  0
  2  1  1  1  0  0  0
  2  3  1  0  0  0  0
  2  5  1  0  0  0  0
  3  4  1  0  0  0  0
  3 17  1  0  0  0  0
  5  6  1  0  0  0  0
  7  6  1  6  0  0  0
  7  8  1  0  0  0  0
  7  9  1  0  0  0  0
 10  9  1  6  0  0  0
 10 11  1  0  0  0  0
 10 12  1  0  0  0  0
 11 16  1  0  0  0  0
 12 13  1  1  0  0  0
 12 14  1  0  0  0  0
 14 15  1  1  0  0  0
 14 16  1  0  0  0  0
 16 27  1  6  0  0  0
 18 19  2  0  0  0  0
 18 23  1  0  0  0  0
 19 20  1  0  0  0  0
 20 21  2  0  0  0  0
 21 22  1  0  0  0  0
 21 27  1  0  0  0  0
 22 23  2  0  0  0  0
 22 25  1  0  0  0  0
 23 24  1  0  0  0  0
 25 26  2  0  0  0  0
 26 27  1  0  0  0  0
M  END
>  <CHROM.1>
109.63753612,-54.99250481,175.61643669,-23.85792184,171.69224071,61.48997530
121.46177025,48.13692453,-29.67547616,-103.50481166,-0.39452332,0.94007920
-1.00150703

>  <Name>
ligand

>  <RI>
0

>  <Rbt.Current_Directory>
/home/itssahil/PROJECTS/Mol_Feturizer/Test_systems_manuscript/rnas/4l81

>  <Rbt.Executable>
rbdock ($Id: //depot/dev/client3/rdock/2013.1/src/exe/rbdock.cxx#4 $)

>  <Rbt.Library>
libRbt.so (2013.1, Build901 2013/11/27)

>  <Rbt.Parameter_File>
/export/apps/rDock/src/rDock_2013.1_src/data/scripts/dock_solv.prm

>  <Rbt.Receptor>
prm/pocket_docking_7.prm

>  <SCORE>
-10.4422

>  <SCORE.INTER>
-10.8261

>  <SCORE.INTER.CONST>
1

>  <SCORE.INTER.POLAR>
0

>  <SCORE.INTER.ROT>
7

>  <SCORE.INTER.SOLV>
10.8895

>  <SCORE.INTER.VDW>
-19.1139

>  <SCORE.INTER.norm>
-0.400968

>  <SCORE.INTRA>
0.369991

>  <SCORE.INTRA.DIHEDRAL>
-1.2114

>  <SCORE.INTRA.DIHEDRAL.0>
8.34559

>  <SCORE.INTRA.POLAR>
0

>  <SCORE.INTRA.POLAR.0>
0

>  <SCORE.INTRA.REPUL>
0

>  <SCORE.INTRA.REPUL.0>
0

>  <SCORE.INTRA.SOLV>
-0.610071

>  <SCORE.INTRA.SOLV.lig_0>
-48.829

>  <SCORE.INTRA.VDW>
1.28073

>  <SCORE.INTRA.VDW.0>
-1.77092

>  <SCORE.INTRA.norm>
0.0137034

>  <SCORE.RESTR>
0.0139192

>  <SCORE.RESTR.CAVITY>
0.0139192

>  <SCORE.RESTR.norm>
0.000515526

>  <SCORE.SYSTEM>
0

>  <SCORE.SYSTEM.CONST>
0

>  <SCORE.SYSTEM.DIHEDRAL>
0

>  <SCORE.SYSTEM.SOLV>
0

>  <SCORE.SYSTEM.norm>
0

>  <SCORE.heavy>
27

>  <SCORE.norm>
-0.386749

>  <RMSD>
6.658

$$$$
ligand
 OpenBabel02271912153D
libRbt.so/2013.1/901 2013/11/27
 27 29  0  0  0  0  0  0  0  0999 V2000
   46.4291  -30.7951 -100.8961 N   0  0  0  0  0  0  0  0  0  0  0  0
   45.4280  -30.6180 -101.9539 C   0  0  2  0  0  0  0  0  0  0  0  0
   44.0579  -30.4535 -101.3305 C   0  0  0  0  0  0  0  0  0  0  0  0
   43.7081  -29.3676 -100.8933 O   0  0  0  0  0  0  0  0  0  0  0  0
   45.3992  -31.8232 -102.9037 C   0  0  0  0  0  0  0  0  0  0  0  0
   46.6760  -31.8921 -103.7296 C   0  0  0  0  0  0  0  0  0  0  0  0
   46.5308  -31.0655 -105.3603 S   0  0  2  0  0  0  0  0  0  0  0  0
   48.1362  -31.3866 -106.1598 C   0  0  0  0  0  0  0  0  0  0  0  0
   46.8459  -29.4114 -104.7493 C   0  0  0  0  0  0  0  0  0  0  0  0
   45.5959  -28.6347 -104.4313 C   0  0  1  0  0  0  0  0  0  0  0  0
   45.9694  -27.5134 -103.6126 O   0  0  0  0  0  0  0  0  0  0  0  0
   45.2121  -28.0848 -105.7458 C   0  0  1  0  0  0  0  0  0  0  0  0
   44.2102  -28.9109 -106.3367 O   0  0  0  0  0  0  0  0  0  0  0  0
   44.6286  -26.7548 -105.3816 C   0  0  1  0  0  0  0  0  0  0  0  0
   43.2249  -26.8890 -105.0768 O   0  0  0  0  0  0  0  0  0  0  0  0
   45.4013  -26.2778 -104.1153 C   0  0  2  0  0  0  0  0  0  0  0  0
   43.2821  -31.3924 -101.2898 O   0  0  0  0  0  0  0  0  0  0  0  0
   50.4618  -24.9717 -103.1753 N   0  0  0  0  0  0  0  0  0  0  0  0
   49.7677  -26.0169 -102.6617 C   0  0  0  0  0  0  0  0  0  0  0  0
   48.4894  -26.2633 -103.0169 N   0  0  0  0  0  0  0  0  0  0  0  0
   47.8305  -25.4222 -103.8304 C   0  0  0  0  0  0  0  0  0  0  0  0
   48.5184  -24.2733 -104.3683 C   0  0  0  0  0  0  0  0  0  0  0  0
   49.8860  -24.0811 -104.0104 C   0  0  0  0  0  0  0  0  0  0  0  0
   50.6065  -23.0090 -104.4965 N   0  0  0  0  0  0  0  0  0  0  0  0
   47.6450  -23.6077 -105.1330 N   0  0  0  0  0  0  0  0  0  0  0  0
   46.5027  -24.2274 -105.1064 C   0  0  0  0  0  0  0  0  0  0  0  0
   46.5573  -25.3582 -104.3254 N   0  0  0  0  0  0  0  0  0  0  0  0
  2  1  1  1  0  0  0
  2  3  1  0  0  0  0
  2  5  1  0  0  0  0
  3  4  1  0  0  0  0
  3 17  1  0  0  0  0
  5  6  1  0  0  0  0
  7  6  1  1  0  0  0
  7  8  1  0  0  0  0
  7  9  1  0  0  0  0
 10  9  1  6  0  0  0
 10 11  1  0  0  0  0
 10 12  1  0  0  0  0
 11 16  1  0  0  0  0
 12 13  1  1  0  0  0
 12 14  1  0  0  0  0
 14 15  1  1  0  0  0
 14 16  1  0  0  0  0
 16 27  1  6  0  0  0
 18 19  2  0  0  0  0
 18 23  1  0  0  0  0
 19 20  1  0  0  0  0
 20 21  2  0  0  0  0
 21 22  1  0  0  0  0
 21 27  1  0  0  0  0
 22 23  2  0  0  0  0
 22 25  1  0  0  0  0
 23 24  1  0  0  0  0
 25 26  2  0  0  0  0
 26 27  1  0  0  0  0
M  END
>  <CHROM.1>
81.30489784,-68.70342080,-93.81697432,-176.63066618,-94.44112210,163.78015297
-17.65949878,46.47487441,-27.97111752,-103.92371001,-2.09389517,-0.21159402
-0.29381669

>  <Name>
ligand

>  <RI>
0

>  <Rbt.Current_Directory>
/home/itssahil/PROJECTS/Mol_Feturizer/Test_systems_manuscript/rnas/4l81

>  <Rbt.Executable>
rbdock ($Id: //depot/dev/client3/rdock/2013.1/src/exe/rbdock.cxx#4 $)

>  <Rbt.Library>
libRbt.so (2013.1, Build901 2013/11/27)

>  <Rbt.Parameter_File>
/export/apps/rDock/src/rDock_2013.1_src/data/scripts/dock_solv.prm

>  <Rbt.Receptor>
prm/pocket_docking_4.prm

>  <SCORE>
-6.96474

>  <SCORE.INTER>
-7.10262

>  <SCORE.INTER.CONST>
1

>  <SCORE.INTER.POLAR>
0

>  <SCORE.INTER.ROT>
7

>  <SCORE.INTER.SOLV>
15.3594

>  <SCORE.INTER.VDW>
-18.1216

>  <SCORE.INTER.norm>
-0.26306

>  <SCORE.INTRA>
0.13063

>  <SCORE.INTRA.DIHEDRAL>
1.73863

>  <SCORE.INTRA.DIHEDRAL.0>
8.34559

>  <SCORE.INTRA.POLAR>
0

>  <SCORE.INTRA.POLAR.0>
0

>  <SCORE.INTRA.REPUL>
0

>  <SCORE.INTRA.REPUL.0>
0

>  <SCORE.INTRA.SOLV>
0.469614

>  <SCORE.INTRA.SOLV.lig_0>
-48.829

>  <SCORE.INTRA.VDW>
-0.973491

>  <SCORE.INTRA.VDW.0>
-1.77092

>  <SCORE.INTRA.norm>
0.00483814

>  <SCORE.RESTR>
0.0072547

>  <SCORE.RESTR.CAVITY>
0.0072547

>  <SCORE.RESTR.norm>
0.000268693

>  <SCORE.SYSTEM>
0

>  <SCORE.SYSTEM.CONST>
0

>  <SCORE.SYSTEM.DIHEDRAL>
0

>  <SCORE.SYSTEM.SOLV>
0

>  <SCORE.SYSTEM.norm>
0

>  <SCORE.heavy>
27

>  <SCORE.norm>
-0.257953

>  <RMSD>
6.696

$$$$
ligand
 OpenBabel02271912153D
libRbt.so/2013.1/901 2013/11/27
 27 29  0  0  0  0  0  0  0  0999 V2000
   51.0140  -30.5582 -102.5400 N   0  0  0  0  0  0  0  0  0  0  0  0
   50.8687  -30.8880 -101.1178 C   0  0  2  0  0  0  0  0  0  0  0  0
   51.2583  -32.3337 -100.8920 C   0  0  0  0  0  0  0  0  0  0  0  0
   51.3574  -32.7732  -99.7563 O   0  0  0  0  0  0  0  0  0  0  0  0
   49.4242  -30.6835 -100.6413 C   0  0  0  0  0  0  0  0  0  0  0  0
   49.0792  -29.2023 -100.5794 C   0  0  0  0  0  0  0  0  0  0  0  0
   47.2948  -28.8839 -100.2999 S   0  0  2  0  0  0  0  0  0  0  0  0
   46.8386  -30.0630  -98.9880 C   0  0  0  0  0  0  0  0  0  0  0  0
   46.7243  -29.8106 -101.7228 C   0  0  0  0  0  0  0  0  0  0  0  0
   45.2473  -29.6753 -101.9814 C   0  0  1  0  0  0  0  0  0  0  0  0
   44.9790  -28.2987 -102.2977 O   0  0  0  0  0  0  0  0  0  0  0  0
   45.0658  -30.4362 -103.2327 C   0  0  1  0  0  0  0  0  0  0  0  0
   44.6060  -31.7526 -102.9305 O   0  0  0  0  0  0  0  0  0  0  0  0
   43.9863  -29.6644 -103.9263 C   0  0  1  0  0  0  0  0  0  0  0  0
   42.6871  -30.1300 -103.5060 O   0  0  0  0  0  0  0  0  0  0  0  0
   44.1784  -28.1778 -103.5005 C   0  0  2  0  0  0  0  0  0  0  0  0
   51.4434  -33.0777 -101.8392 O   0  0  0  0  0  0  0  0  0  0  0  0
   48.7951  -26.8452 -105.7606 N   0  0  0  0  0  0  0  0  0  0  0  0
   48.5718  -27.8238 -104.8494 C   0  0  0  0  0  0  0  0  0  0  0  0
   47.3341  -28.0894 -104.3819 N   0  0  0  0  0  0  0  0  0  0  0  0
   46.2882  -27.3276 -104.7414 C   0  0  0  0  0  0  0  0  0  0  0  0
   46.4876  -26.2482 -105.6783 C   0  0  0  0  0  0  0  0  0  0  0  0
   47.8025  -26.0374 -106.1900 C   0  0  0  0  0  0  0  0  0  0  0  0
   48.0619  -25.0295 -107.0964 N   0  0  0  0  0  0  0  0  0  0  0  0
   45.3026  -25.6534 -105.8591 N   0  0  0  0  0  0  0  0  0  0  0  0
   44.4130  -26.2530 -105.1252 C   0  0  0  0  0  0  0  0  0  0  0  0
   44.9597  -27.2988 -104.4187 N   0  0  0  0  0  0  0  0  0  0  0  0
  2  1  1  6  0  0  0
  2  3  1  0  0  0  0
  2  5  1  0  0  0  0
  3  4  1  0  0  0  0
  3 17  1  0  0  0  0
  5  6  1  0  0  0  0
  7  6  1  6  0  0  0
  7  8  1  0  0  0  0
  7  9  1  0  0  0  0
 10  9  1  6  0  0  0
 10 11  1  0  0  0  0
 10 12  1  0  0  0  0
 11 16  1  0  0  0  0
 12 13  1  1  0  0  0
 12 14  1  0  0  0  0
 14 15  1  1  0  0  0
 14 16  1  0  0  0  0
 16 27  1  6  0  0  0
 18 19  2  0  0  0  0
 18 23  1  0  0  0  0
 19 20  1  0  0  0  0
 20 21  2  0  0  0  0
 21 22  1  0  0  0  0
 21 27  1  0  0  0  0
 22 23  2  0  0  0  0
 22 25  1  0  0  0  0
 23 24  1  0  0  0  0
 25 26  2  0  0  0  0
 26 27  1  0  0  0  0
M  END
>  <CHROM.1>
171.60317734,-70.78972081,170.06364889,44.19280066,-172.94858394,63.80643574
45.68021364,47.19557812,-29.08549734,-102.89746662,-0.94464310,0.04331332
-0.81010749

>  <Name>
ligand

>  <RI>
0

>  <Rbt.Current_Directory>
/home/itssahil/PROJECTS/Mol_Feturizer/Test_systems_manuscript/rnas/4l81

>  <Rbt.Executable>
rbdock ($Id: //depot/dev/client3/rdock/2013.1/src/exe/rbdock.cxx#4 $)

>  <Rbt.Library>
libRbt.so (2013.1, Build901 2013/11/27)

>  <Rbt.Parameter_File>
/export/apps/rDock/src/rDock_2013.1_src/data/scripts/dock_solv.prm

>  <Rbt.Receptor>
prm/pocket_docking_3.prm

>  <SCORE>
-14.4168

>  <SCORE.INTER>
-12.2314

>  <SCORE.INTER.CONST>
1

>  <SCORE.INTER.POLAR>
0

>  <SCORE.INTER.ROT>
7

>  <SCORE.INTER.SOLV>
10.938

>  <SCORE.INTER.VDW>
-20.067

>  <SCORE.INTER.norm>
-0.453015

>  <SCORE.INTRA>
-2.18537

>  <SCORE.INTRA.DIHEDRAL>
-3.51096

>  <SCORE.INTRA.DIHEDRAL.0>
8.34559

>  <SCORE.INTRA.POLAR>
0

>  <SCORE.INTRA.POLAR.0>
0

>  <SCORE.INTRA.REPUL>
0

>  <SCORE.INTRA.REPUL.0>
0

>  <SCORE.INTRA.SOLV>
-0.485135

>  <SCORE.INTRA.SOLV.lig_0>
-48.829

>  <SCORE.INTRA.VDW>
-0.187323

>  <SCORE.INTRA.VDW.0>
-1.77092

>  <SCORE.INTRA.norm>
-0.0809396

>  <SCORE.RESTR>
0

>  <SCORE.RESTR.CAVITY>
0

>  <SCORE.RESTR.norm>
0

>  <SCORE.SYSTEM>
0

>  <SCORE.SYSTEM.CONST>
0

>  <SCORE.SYSTEM.DIHEDRAL>
0

>  <SCORE.SYSTEM.SOLV>
0

>  <SCORE.SYSTEM.norm>
0

>  <SCORE.heavy>
27

>  <SCORE.norm>
-0.533955

>  <RMSD>
6.744

$$$$
ligand
 OpenBabel02271912153D
libRbt.so/2013.1/901 2013/11/27
 27 29  0  0  0  0  0  0  0  0999 V2000
   50.3134  -32.8677 -106.3781 N   0  0  0  0  0  0  0  0  0  0  0  0
   50.4854  -32.5478 -104.9565 C   0  0  2  0  0  0  0  0  0  0  0  0
   50.7151  -33.8245 -104.1755 C   0  0  0  0  0  0  0  0  0  0  0  0
   51.4033  -33.8120 -103.1661 O   0  0  0  0  0  0  0  0  0  0  0  0
   49.2495  -31.8355 -104.3903 C   0  0  0  0  0  0  0  0  0  0  0  0
   49.4517  -31.4846 -102.9231 C   0  0  0  0  0  0  0  0  0  0  0  0
   48.2363  -30.2634 -102.2949 S   0  0  2  0  0  0  0  0  0  0  0  0
   48.2817  -30.4885 -100.4875 C   0  0  0  0  0  0  0  0  0  0  0  0
   46.7870  -31.2488 -102.6655 C   0  0  0  0  0  0  0  0  0  0  0  0
   45.5142  -30.6990 -102.0785 C   0  0  1  0  0  0  0  0  0  0  0  0
   45.5571  -29.2667 -102.1954 O   0  0  0  0  0  0  0  0  0  0  0  0
   44.4888  -31.1670 -103.0310 C   0  0  1  0  0  0  0  0  0  0  0  0
   43.8752  -32.3535 -102.5298 O   0  0  0  0  0  0  0  0  0  0  0  0
   43.5032  -30.0397 -103.0242 C   0  0  1  0  0  0  0  0  0  0  0  0
   42.5402  -30.2215 -101.9655 O   0  0  0  0  0  0  0  0  0  0  0  0
   44.3318  -28.7450 -102.7686 C   0  0  2  0  0  0  0  0  0  0  0  0
   50.1895  -34.8659 -104.5277 O   0  0  0  0  0  0  0  0  0  0  0  0
   46.8808  -24.5808 -104.8566 N   0  0  0  0  0  0  0  0  0  0  0  0
   46.7393  -24.8917 -103.5447 C   0  0  0  0  0  0  0  0  0  0  0  0
   46.0987  -26.0102 -103.1453 N   0  0  0  0  0  0  0  0  0  0  0  0
   45.4990  -26.8123 -104.0400 C   0  0  0  0  0  0  0  0  0  0  0  0
   45.5891  -26.4972 -105.4454 C   0  0  0  0  0  0  0  0  0  0  0  0
   46.3231  -25.3350 -105.8273 C   0  0  0  0  0  0  0  0  0  0  0  0
   46.4573  -24.9805 -107.1543 N   0  0  0  0  0  0  0  0  0  0  0  0
   44.9105  -27.4401 -106.1096 N   0  0  0  0  0  0  0  0  0  0  0  0
   44.4141  -28.2841 -105.2547 C   0  0  0  0  0  0  0  0  0  0  0  0
   44.7497  -27.9536 -103.9625 N   0  0  0  0  0  0  0  0  0  0  0  0
  2  1  1  6  0  0  0
  2  3  1  0  0  0  0
  2  5  1  0  0  0  0
  3  4  1  0  0  0  0
  3 17  1  0  0  0  0
  5  6  1  0  0  0  0
  7  6  1  6  0  0  0
  7  8  1  0  0  0  0
  7  9  1  0  0  0  0
 10  9  1  6  0  0  0
 10 11  1  0  0  0  0
 10 12  1  0  0  0  0
 11 16  1  0  0  0  0
 12 13  1  1  0  0  0
 12 14  1  0  0  0  0
 14 15  1  1  0  0  0
 14 16  1  0  0  0  0
 16 27  1  6  0  0  0
 18 19  2  0  0  0  0
 18 23  1  0  0  0  0
 19 20  1  0  0  0  0
 20 21  2  0  0  0  0
 21 22  1  0  0  0  0
 21 27  1  0  0  0  0
 22 23  2  0  0  0  0
 22 25  1  0  0  0  0
 23 24  1  0  0  0  0
 25 26  2  0  0  0  0
 26 27  1  0  0  0  0
M  END
>  <CHROM.1>
149.34568188,-178.87030958,164.82274515,159.65648547,170.00527546,38.81911497
-64.84535336,46.85407556,-29.72067067,-103.68863197,-0.89066618,0.42088012
-0.42757689

>  <Name>
ligand

>  <RI>
0

>  <Rbt.Current_Directory>
/home/itssahil/PROJECTS/Mol_Feturizer/Test_systems_manuscript/rnas/4l81

>  <Rbt.Executable>
rbdock ($Id: //depot/dev/client3/rdock/2013.1/src/exe/rbdock.cxx#4 $)

>  <Rbt.Library>
libRbt.so (2013.1, Build901 2013/11/27)

>  <Rbt.Parameter_File>
/export/apps/rDock/src/rDock_2013.1_src/data/scripts/dock_solv.prm

>  <Rbt.Receptor>
prm/pocket_docking_7.prm

>  <SCORE>
-11.9617

>  <SCORE.INTER>
-10.7451

>  <SCORE.INTER.CONST>
1

>  <SCORE.INTER.POLAR>
0

>  <SCORE.INTER.ROT>
7

>  <SCORE.INTER.SOLV>
14.0416

>  <SCORE.INTER.VDW>
-20.1106

>  <SCORE.INTER.norm>
-0.397967

>  <SCORE.INTRA>
-1.21657

>  <SCORE.INTRA.DIHEDRAL>
-2.63352

>  <SCORE.INTRA.DIHEDRAL.0>
8.34559

>  <SCORE.INTRA.POLAR>
0

>  <SCORE.INTRA.POLAR.0>
0

>  <SCORE.INTRA.REPUL>
0

>  <SCORE.INTRA.REPUL.0>
0

>  <SCORE.INTRA.SOLV>
-1.23822

>  <SCORE.INTRA.SOLV.lig_0>
-48.829

>  <SCORE.INTRA.VDW>
0.7193

>  <SCORE.INTRA.VDW.0>
-1.77092

>  <SCORE.INTRA.norm>
-0.0450583

>  <SCORE.RESTR>
0

>  <SCORE.RESTR.CAVITY>
0

>  <SCORE.RESTR.norm>
0

>  <SCORE.SYSTEM>
0

>  <SCORE.SYSTEM.CONST>
0

>  <SCORE.SYSTEM.DIHEDRAL>
0

>  <SCORE.SYSTEM.SOLV>
0

>  <SCORE.SYSTEM.norm>
0

>  <SCORE.heavy>
27

>  <SCORE.norm>
-0.443026

>  <RMSD>
6.754

$$$$
ligand
 OpenBabel02271912153D
libRbt.so/2013.1/901 2013/11/27
 27 29  0  0  0  0  0  0  0  0999 V2000
   50.7072  -34.2859 -104.5029 N   0  0  0  0  0  0  0  0  0  0  0  0
   50.4616  -32.8974 -104.0974 C   0  0  2  0  0  0  0  0  0  0  0  0
   51.2573  -32.5880 -102.8468 C   0  0  0  0  0  0  0  0  0  0  0  0
   51.5474  -33.4819 -102.0662 O   0  0  0  0  0  0  0  0  0  0  0  0
   48.9736  -32.6535 -103.8114 C   0  0  0  0  0  0  0  0  0  0  0  0
   48.1625  -32.6863 -105.0990 C   0  0  0  0  0  0  0  0  0  0  0  0
   46.4239  -32.1473 -104.8752 S   0  0  2  0  0  0  0  0  0  0  0  0
   45.8166  -31.9060 -106.5760 C   0  0  0  0  0  0  0  0  0  0  0  0
   46.8159  -30.4466 -104.4718 C   0  0  0  0  0  0  0  0  0  0  0  0
   46.9092  -30.1809 -102.9928 C   0  0  1  0  0  0  0  0  0  0  0  0
   47.7203  -29.0087 -102.8054 O   0  0  0  0  0  0  0  0  0  0  0  0
   45.5280  -29.7951 -102.6445 C   0  0  1  0  0  0  0  0  0  0  0  0
   44.8353  -30.9231 -102.1122 O   0  0  0  0  0  0  0  0  0  0  0  0
   45.7392  -28.7720 -101.5718 C   0  0  1  0  0  0  0  0  0  0  0  0
   45.8397  -29.4105 -100.2820 O   0  0  0  0  0  0  0  0  0  0  0  0
   47.0818  -28.0594 -101.9149 C   0  0  2  0  0  0  0  0  0  0  0  0
   51.6426  -31.4532 -102.6260 O   0  0  0  0  0  0  0  0  0  0  0  0
   49.3734  -23.5956 -103.6532 N   0  0  0  0  0  0  0  0  0  0  0  0
   49.9178  -24.5506 -102.8598 C   0  0  0  0  0  0  0  0  0  0  0  0
   49.2372  -25.6660 -102.5224 N   0  0  0  0  0  0  0  0  0  0  0  0
   47.9562  -25.8249 -102.8930 C   0  0  0  0  0  0  0  0  0  0  0  0
   47.3233  -24.8130 -103.7042 C   0  0  0  0  0  0  0  0  0  0  0  0
   48.0968  -23.6761 -104.0843 C   0  0  0  0  0  0  0  0  0  0  0  0
   47.5571  -22.6759 -104.8671 N   0  0  0  0  0  0  0  0  0  0  0  0
   46.0641  -25.2089 -103.9245 N   0  0  0  0  0  0  0  0  0  0  0  0
   45.8682  -26.3459 -103.3259 C   0  0  0  0  0  0  0  0  0  0  0  0
   47.0015  -26.7803 -102.6789 N   0  0  0  0  0  0  0  0  0  0  0  0
  2  1  1  1  0  0  0
  2  3  1  0  0  0  0
  2  5  1  0  0  0  0
  3  4  1  0  0  0  0
  3 17  1  0  0  0  0
  5  6  1  0  0  0  0
  7  6  1  6  0  0  0
  7  8  1  0  0  0  0
  7  9  1  0  0  0  0
 10  9  1  6  0  0  0
 10 11  1  0  0  0  0
 10 12  1  0  0  0  0
 11 16  1  0  0  0  0
 12 13  1  1  0  0  0
 12 14  1  0  0  0  0
 14 15  1  1  0  0  0
 14 16  1  0  0  0  0
 16 27  1  6  0  0  0
 18 19  2  0  0  0  0
 18 23  1  0  0  0  0
 19 20  1  0  0  0  0
 20 21  2  0  0  0  0
 21 22  1  0  0  0  0
 21 27  1  0  0  0  0
 22 23  2  0  0  0  0
 22 25  1  0  0  0  0
 23 24  1  0  0  0  0
 25 26  2  0  0  0  0
 26 27  1  0  0  0  0
M  END
>  <CHROM.1>
-27.39642840,-70.22510023,-171.04131938,167.16126876,-94.60508679,157.22612352
-80.67427543,47.85105466,-29.15830620,-103.38210643,-1.40224008,-0.06777264
0.06506171

>  <Name>
ligand

>  <RI>
0

>  <Rbt.Current_Directory>
/home/itssahil/PROJECTS/Mol_Feturizer/Test_systems_manuscript/rnas/4l81

>  <Rbt.Executable>
rbdock ($Id: //depot/dev/client3/rdock/2013.1/src/exe/rbdock.cxx#4 $)

>  <Rbt.Library>
libRbt.so (2013.1, Build901 2013/11/27)

>  <Rbt.Parameter_File>
/export/apps/rDock/src/rDock_2013.1_src/data/scripts/dock_solv.prm

>  <Rbt.Receptor>
prm/pocket_docking_5.prm

>  <SCORE>
-11.4016

>  <SCORE.INTER>
-10.0542

>  <SCORE.INTER.CONST>
1

>  <SCORE.INTER.POLAR>
0

>  <SCORE.INTER.ROT>
7

>  <SCORE.INTER.SOLV>
9.66597

>  <SCORE.INTER.VDW>
-18.1914

>  <SCORE.INTER.norm>
-0.372376

>  <SCORE.INTRA>
-1.34744

>  <SCORE.INTRA.DIHEDRAL>
-0.847046

>  <SCORE.INTRA.DIHEDRAL.0>
8.34559

>  <SCORE.INTRA.POLAR>
0

>  <SCORE.INTRA.POLAR.0>
0

>  <SCORE.INTRA.REPUL>
0

>  <SCORE.INTRA.REPUL.0>
0

>  <SCORE.INTRA.SOLV>
-0.539974

>  <SCORE.INTRA.SOLV.lig_0>
-48.829

>  <SCORE.INTRA.VDW>
-0.653926

>  <SCORE.INTRA.VDW.0>
-1.77092

>  <SCORE.INTRA.norm>
-0.049905

>  <SCORE.RESTR>
0

>  <SCORE.RESTR.CAVITY>
0

>  <SCORE.RESTR.norm>
0

>  <SCORE.SYSTEM>
0

>  <SCORE.SYSTEM.CONST>
0

>  <SCORE.SYSTEM.DIHEDRAL>
0

>  <SCORE.SYSTEM.SOLV>
0

>  <SCORE.SYSTEM.norm>
0

>  <SCORE.heavy>
27

>  <SCORE.norm>
-0.422282

>  <RMSD>
6.767

$$$$
ligand
 OpenBabel02271912153D
libRbt.so/2013.1/901 2013/11/27
 27 29  0  0  0  0  0  0  0  0999 V2000
   49.9874  -31.0735 -102.7607 N   0  0  0  0  0  0  0  0  0  0  0  0
   49.8266  -29.7025 -102.2635 C   0  0  2  0  0  0  0  0  0  0  0  0
   50.9894  -28.8546 -102.7343 C   0  0  0  0  0  0  0  0  0  0  0  0
   50.8329  -27.6622 -102.9498 O   0  0  0  0  0  0  0  0  0  0  0  0
   49.7754  -29.6664 -100.7301 C   0  0  0  0  0  0  0  0  0  0  0  0
   48.4814  -30.2824 -100.2170 C   0  0  0  0  0  0  0  0  0  0  0  0
   47.0104  -29.2259 -100.5058 S   0  0  2  0  0  0  0  0  0  0  0  0
   45.6315  -30.1940  -99.8123 C   0  0  0  0  0  0  0  0  0  0  0  0
   46.8179  -29.6583 -102.2334 C   0  0  0  0  0  0  0  0  0  0  0  0
   45.4848  -29.2641 -102.8117 C   0  0  1  0  0  0  0  0  0  0  0  0
   45.2980  -27.8589 -102.5721 O   0  0  0  0  0  0  0  0  0  0  0  0
   45.7027  -29.4167 -104.2632 C   0  0  1  0  0  0  0  0  0  0  0  0
   45.1983  -30.6802 -104.6931 O   0  0  0  0  0  0  0  0  0  0  0  0
   44.8675  -28.3122 -104.8330 C   0  0  1  0  0  0  0  0  0  0  0  0
   43.5111  -28.7609 -105.0337 O   0  0  0  0  0  0  0  0  0  0  0  0
   44.8943  -27.1647 -103.7792 C   0  0  2  0  0  0  0  0  0  0  0  0
   52.0961  -29.3463 -102.8700 O   0  0  0  0  0  0  0  0  0  0  0  0
   46.6394  -22.9614 -106.5152 N   0  0  0  0  0  0  0  0  0  0  0  0
   45.5571  -23.7324 -106.7837 C   0  0  0  0  0  0  0  0  0  0  0  0
   45.1958  -24.7537 -105.9791 N   0  0  0  0  0  0  0  0  0  0  0  0
   45.9547  -25.0970 -104.9256 C   0  0  0  0  0  0  0  0  0  0  0  0
   47.1391  -24.3288 -104.6262 C   0  0  0  0  0  0  0  0  0  0  0  0
   47.4537  -23.2230 -105.4709 C   0  0  0  0  0  0  0  0  0  0  0  0
   48.5659  -22.4402 -105.2363 N   0  0  0  0  0  0  0  0  0  0  0  0
   47.7071  -24.8770 -103.5456 N   0  0  0  0  0  0  0  0  0  0  0  0
   46.9969  -25.8978 -103.1675 C   0  0  0  0  0  0  0  0  0  0  0  0
   45.8988  -26.0790 -103.9756 N   0  0  0  0  0  0  0  0  0  0  0  0
  2  1  1  1  0  0  0
  2  3  1  0  0  0  0
  2  5  1  0  0  0  0
  3  4  1  0  0  0  0
  3 17  1  0  0  0  0
  5  6  1  0  0  0  0
  7  6  1  1  0  0  0
  7  8  1  0  0  0  0
  7  9  1  0  0  0  0
 10  9  1  1  0  0  0
 10 11  1  0  0  0  0
 10 12  1  0  0  0  0
 11 16  1  0  0  0  0
 12 13  1  6  0  0  0
 12 14  1  0  0  0  0
 14 15  1  1  0  0  0
 14 16  1  0  0  0  0
 16 27  1  6  0  0  0
 18 19  2  0  0  0  0
 18 23  1  0  0  0  0
 19 20  1  0  0  0  0
 20 21  2  0  0  0  0
 21 22  1  0  0  0  0
 21 27  1  0  0  0  0
 22 23  2  0  0  0  0
 22 25  1  0  0  0  0
 23 24  1  0  0  0  0
 25 26  2  0  0  0  0
 26 27  1  0  0  0  0
M  END
>  <CHROM.1>
149.00366814,-69.82026351,-72.52921791,179.77078115,165.41964274,54.47974864
-176.74092691,47.16896041,-27.60556892,-103.34746697,-1.24731577,-0.21243025
-0.53907643

>  <Name>
ligand

>  <RI>
0

>  <Rbt.Current_Directory>
/home/itssahil/PROJECTS/Mol_Feturizer/Test_systems_manuscript/rnas/4l81

>  <Rbt.Executable>
rbdock ($Id: //depot/dev/client3/rdock/2013.1/src/exe/rbdock.cxx#4 $)

>  <Rbt.Library>
libRbt.so (2013.1, Build901 2013/11/27)

>  <Rbt.Parameter_File>
/export/apps/rDock/src/rDock_2013.1_src/data/scripts/dock_solv.prm

>  <Rbt.Receptor>
prm/pocket_docking_6.prm

>  <SCORE>
-16.0875

>  <SCORE.INTER>
-14.3311

>  <SCORE.INTER.CONST>
1

>  <SCORE.INTER.POLAR>
0

>  <SCORE.INTER.ROT>
7

>  <SCORE.INTER.SOLV>
7.5231

>  <SCORE.INTER.VDW>
-20.3284

>  <SCORE.INTER.norm>
-0.53078

>  <SCORE.INTRA>
-1.75646

>  <SCORE.INTRA.DIHEDRAL>
-3.7027

>  <SCORE.INTRA.DIHEDRAL.0>
8.34559

>  <SCORE.INTRA.POLAR>
0

>  <SCORE.INTRA.POLAR.0>
0

>  <SCORE.INTRA.REPUL>
0

>  <SCORE.INTRA.REPUL.0>
0

>  <SCORE.INTRA.SOLV>
0.591655

>  <SCORE.INTRA.SOLV.lig_0>
-48.829

>  <SCORE.INTRA.VDW>
-0.200942

>  <SCORE.INTRA.VDW.0>
-1.77092

>  <SCORE.INTRA.norm>
-0.0650542

>  <SCORE.RESTR>
0

>  <SCORE.RESTR.CAVITY>
0

>  <SCORE.RESTR.norm>
0

>  <SCORE.SYSTEM>
0

>  <SCORE.SYSTEM.CONST>
0

>  <SCORE.SYSTEM.DIHEDRAL>
0

>  <SCORE.SYSTEM.SOLV>
0

>  <SCORE.SYSTEM.norm>
0

>  <SCORE.heavy>
27

>  <SCORE.norm>
-0.595834

>  <RMSD>
6.771

$$$$
ligand
 OpenBabel02271912153D
libRbt.so/2013.1/901 2013/11/27
 27 29  0  0  0  0  0  0  0  0999 V2000
   49.1745  -29.1643 -100.0946 N   0  0  0  0  0  0  0  0  0  0  0  0
   47.9853  -30.0067 -100.2643 C   0  0  2  0  0  0  0  0  0  0  0  0
   48.0230  -30.6654 -101.6271 C   0  0  0  0  0  0  0  0  0  0  0  0
   47.6099  -31.8064 -101.7697 O   0  0  0  0  0  0  0  0  0  0  0  0
   46.6956  -29.1830 -100.1471 C   0  0  0  0  0  0  0  0  0  0  0  0
   45.4706  -30.0850 -100.1994 C   0  0  0  0  0  0  0  0  0  0  0  0
   44.2499  -29.5781 -101.4707 S   0  0  2  0  0  0  0  0  0  0  0  0
   43.1861  -31.0441 -101.6672 C   0  0  0  0  0  0  0  0  0  0  0  0
   45.3379  -29.8293 -102.8714 C   0  0  0  0  0  0  0  0  0  0  0  0
   44.6121  -29.9963 -104.1799 C   0  0  1  0  0  0  0  0  0  0  0  0
   44.0835  -28.7139 -104.5581 O   0  0  0  0  0  0  0  0  0  0  0  0
   45.7076  -30.2931 -105.1231 C   0  0  1  0  0  0  0  0  0  0  0  0
   45.8024  -31.7031 -105.3189 O   0  0  0  0  0  0  0  0  0  0  0  0
   45.2376  -29.6326 -106.3821 C   0  0  1  0  0  0  0  0  0  0  0  0
   44.4011  -30.5322 -107.1386 O   0  0  0  0  0  0  0  0  0  0  0  0
   44.4091  -28.3914 -105.9336 C   0  0  2  0  0  0  0  0  0  0  0  0
   48.4341  -30.0529 -102.5970 O   0  0  0  0  0  0  0  0  0  0  0  0
   47.9323  -24.9913 -107.9888 N   0  0  0  0  0  0  0  0  0  0  0  0
   47.6256  -26.2347 -108.4335 C   0  0  0  0  0  0  0  0  0  0  0  0
   46.6737  -26.9857 -107.8411 N   0  0  0  0  0  0  0  0  0  0  0  0
   46.0564  -26.5560 -106.7285 C   0  0  0  0  0  0  0  0  0  0  0  0
   46.3816  -25.2548 -106.1961 C   0  0  0  0  0  0  0  0  0  0  0  0
   47.3541  -24.4710 -106.8856 C   0  0  0  0  0  0  0  0  0  0  0  0
   47.7053  -23.2140 -106.4369 N   0  0  0  0  0  0  0  0  0  0  0  0
   45.6390  -25.0768 -105.0972 N   0  0  0  0  0  0  0  0  0  0  0  0
   44.9082  -26.1344 -104.9057 C   0  0  0  0  0  0  0  0  0  0  0  0
   45.1163  -27.0786 -105.8839 N   0  0  0  0  0  0  0  0  0  0  0  0
  2  1  1  6  0  0  0
  2  3  1  0  0  0  0
  2  5  1  0  0  0  0
  3  4  1  0  0  0  0
  3 17  1  0  0  0  0
  5  6  1  0  0  0  0
  7  6  1  1  0  0  0
  7  8  1  0  0  0  0
  7  9  1  0  0  0  0
 10  9  1  1  0  0  0
 10 11  1  0  0  0  0
 10 12  1  0  0  0  0
 11 16  1  0  0  0  0
 12 13  1  6  0  0  0
 12 14  1  0  0  0  0
 14 15  1  1  0  0  0
 14 16  1  0  0  0  0
 16 27  1  1  0  0  0
 18 19  2  0  0  0  0
 18 23  1  0  0  0  0
 19 20  1  0  0  0  0
 20 21  2  0  0  0  0
 21 22  1  0  0  0  0
 21 27  1  0  0  0  0
 22 23  2  0  0  0  0
 22 25  1  0  0  0  0
 23 24  1  0  0  0  0
 25 26  2  0  0  0  0
 26 27  1  0  0  0  0
M  END
>  <CHROM.1>
143.61296544,-174.89375653,-126.79275809,163.60205636,159.41813116,72.20892402
151.94297927,46.03306681,-28.55301677,-104.17311016,-1.64912298,-0.79826936
-0.93687991

>  <Name>
ligand

>  <RI>
0

>  <Rbt.Current_Directory>
/home/itssahil/PROJECTS/Mol_Feturizer/Test_systems_manuscript/rnas/4l81

>  <Rbt.Executable>
rbdock ($Id: //depot/dev/client3/rdock/2013.1/src/exe/rbdock.cxx#4 $)

>  <Rbt.Library>
libRbt.so (2013.1, Build901 2013/11/27)

>  <Rbt.Parameter_File>
/export/apps/rDock/src/rDock_2013.1_src/data/scripts/dock_solv.prm

>  <Rbt.Receptor>
prm/pocket_docking_6.prm

>  <SCORE>
-15.1898

>  <SCORE.INTER>
-14.9477

>  <SCORE.INTER.CONST>
1

>  <SCORE.INTER.POLAR>
0

>  <SCORE.INTER.ROT>
7

>  <SCORE.INTER.SOLV>
15.1409

>  <SCORE.INTER.VDW>
-23.2787

>  <SCORE.INTER.norm>
-0.553618

>  <SCORE.INTRA>
-0.242116

>  <SCORE.INTRA.DIHEDRAL>
1.46456

>  <SCORE.INTRA.DIHEDRAL.0>
8.34559

>  <SCORE.INTRA.POLAR>
0

>  <SCORE.INTRA.POLAR.0>
0

>  <SCORE.INTRA.REPUL>
0

>  <SCORE.INTRA.REPUL.0>
0

>  <SCORE.INTRA.SOLV>
-1.26818

>  <SCORE.INTRA.SOLV.lig_0>
-48.829

>  <SCORE.INTRA.VDW>
-0.340305

>  <SCORE.INTRA.VDW.0>
-1.77092

>  <SCORE.INTRA.norm>
-0.00896726

>  <SCORE.RESTR>
0

>  <SCORE.RESTR.CAVITY>
0

>  <SCORE.RESTR.norm>
0

>  <SCORE.SYSTEM>
0

>  <SCORE.SYSTEM.CONST>
0

>  <SCORE.SYSTEM.DIHEDRAL>
0

>  <SCORE.SYSTEM.SOLV>
0

>  <SCORE.SYSTEM.norm>
0

>  <SCORE.heavy>
27

>  <SCORE.norm>
-0.562586

>  <RMSD>
6.792

$$$$
ligand
 OpenBabel02271912153D
libRbt.so/2013.1/901 2013/11/27
 27 29  0  0  0  0  0  0  0  0999 V2000
   52.3437  -35.3749 -105.4386 N   0  0  0  0  0  0  0  0  0  0  0  0
   51.0582  -34.7351 -105.1371 C   0  0  2  0  0  0  0  0  0  0  0  0
   50.3525  -34.3852 -106.4303 C   0  0  0  0  0  0  0  0  0  0  0  0
   49.1492  -34.5652 -106.5418 O   0  0  0  0  0  0  0  0  0  0  0  0
   51.2508  -33.4537 -104.3148 C   0  0  0  0  0  0  0  0  0  0  0  0
   49.9105  -32.9030 -103.8487 C   0  0  0  0  0  0  0  0  0  0  0  0
   50.0600  -31.3520 -102.8816 S   0  0  2  0  0  0  0  0  0  0  0  0
   50.8677  -31.8752 -101.3346 C   0  0  0  0  0  0  0  0  0  0  0  0
   48.3597  -31.3295 -102.3185 C   0  0  0  0  0  0  0  0  0  0  0  0
   48.1147  -30.3891 -101.1685 C   0  0  1  0  0  0  0  0  0  0  0  0
   48.7266  -29.1287 -101.4911 O   0  0  0  0  0  0  0  0  0  0  0  0
   46.6559  -30.1749 -101.2293 C   0  0  1  0  0  0  0  0  0  0  0  0
   46.0059  -31.0361 -100.2959 O   0  0  0  0  0  0  0  0  0  0  0  0
   46.5202  -28.7498 -100.7904 C   0  0  1  0  0  0  0  0  0  0  0  0
   46.4273  -28.6741  -99.3527 O   0  0  0  0  0  0  0  0  0  0  0  0
   47.8114  -28.0250 -101.2756 C   0  0  2  0  0  0  0  0  0  0  0  0
   50.9714  -33.8913 -107.3566 O   0  0  0  0  0  0  0  0  0  0  0  0
   48.1576  -23.5041 -104.0396 N   0  0  0  0  0  0  0  0  0  0  0  0
   48.2872  -23.6671 -102.7000 C   0  0  0  0  0  0  0  0  0  0  0  0
   48.2184  -24.8851 -102.1231 N   0  0  0  0  0  0  0  0  0  0  0  0
   47.9287  -25.9736 -102.8543 C   0  0  0  0  0  0  0  0  0  0  0  0
   47.7421  -25.8402 -104.2791 C   0  0  0  0  0  0  0  0  0  0  0  0
   47.8784  -24.5424 -104.8556 C   0  0  0  0  0  0  0  0  0  0  0  0
   47.7225  -24.3450 -106.2126 N   0  0  0  0  0  0  0  0  0  0  0  0
   47.4627  -27.0573 -104.7601 N   0  0  0  0  0  0  0  0  0  0  0  0
   47.4524  -27.9076 -103.7771 C   0  0  0  0  0  0  0  0  0  0  0  0
   47.7404  -27.2995 -102.5775 N   0  0  0  0  0  0  0  0  0  0  0  0
  2  1  1  6  0  0  0
  2  3  1  0  0  0  0
  2  5  1  0  0  0  0
  3  4  1  0  0  0  0
  3 17  1  0  0  0  0
  5  6  1  0  0  0  0
  7  6  1  6  0  0  0
  7  8  1  0  0  0  0
  7  9  1  0  0  0  0
 10  9  1  6  0  0  0
 10 11  1  0  0  0  0
 10 12  1  0  0  0  0
 11 16  1  0  0  0  0
 12 13  1  1  0  0  0
 12 14  1  0  0  0  0
 14 15  1  1  0  0  0
 14 16  1  0  0  0  0
 16 27  1  6  0  0  0
 18 19  2  0  0  0  0
 18 23  1  0  0  0  0
 19 20  1  0  0  0  0
 20 21  2  0  0  0  0
 21 22  1  0  0  0  0
 21 27  1  0  0  0  0
 22 23  2  0  0  0  0
 22 25  1  0  0  0  0
 23 24  1  0  0  0  0
 25 26  2  0  0  0  0
 26 27  1  0  0  0  0
M  END
>  <CHROM.1>
138.69308624,-172.32251659,-179.00756246,-68.29890359,164.51891655,47.64538339
-127.30323924,48.71713219,-29.65437374,-103.26968581,-0.71921163,1.11616081
-0.55999122

>  <Name>
ligand

>  <RI>
0

>  <Rbt.Current_Directory>
/home/itssahil/PROJECTS/Mol_Feturizer/Test_systems_manuscript/rnas/4l81

>  <Rbt.Executable>
rbdock ($Id: //depot/dev/client3/rdock/2013.1/src/exe/rbdock.cxx#4 $)

>  <Rbt.Library>
libRbt.so (2013.1, Build901 2013/11/27)

>  <Rbt.Parameter_File>
/export/apps/rDock/src/rDock_2013.1_src/data/scripts/dock_solv.prm

>  <Rbt.Receptor>
prm/pocket_docking_6.prm

>  <SCORE>
-11.7183

>  <SCORE.INTER>
-8.77159

>  <SCORE.INTER.CONST>
1

>  <SCORE.INTER.POLAR>
0

>  <SCORE.INTER.ROT>
7

>  <SCORE.INTER.SOLV>
8.92448

>  <SCORE.INTER.VDW>
-17.0892

>  <SCORE.INTER.norm>
-0.324874

>  <SCORE.INTRA>
-2.94672

>  <SCORE.INTRA.DIHEDRAL>
-4.22764

>  <SCORE.INTRA.DIHEDRAL.0>
8.34559

>  <SCORE.INTRA.POLAR>
0

>  <SCORE.INTRA.POLAR.0>
0

>  <SCORE.INTRA.REPUL>
0

>  <SCORE.INTRA.REPUL.0>
0

>  <SCORE.INTRA.SOLV>
-1.29046

>  <SCORE.INTRA.SOLV.lig_0>
-48.829

>  <SCORE.INTRA.VDW>
-0.187671

>  <SCORE.INTRA.VDW.0>
-1.77092

>  <SCORE.INTRA.norm>
-0.109138

>  <SCORE.RESTR>
0

>  <SCORE.RESTR.CAVITY>
0

>  <SCORE.RESTR.norm>
0

>  <SCORE.SYSTEM>
0

>  <SCORE.SYSTEM.CONST>
0

>  <SCORE.SYSTEM.DIHEDRAL>
0

>  <SCORE.SYSTEM.SOLV>
0

>  <SCORE.SYSTEM.norm>
0

>  <SCORE.heavy>
27

>  <SCORE.norm>
-0.434012

>  <RMSD>
6.805

$$$$
ligand
 OpenBabel02271912153D
libRbt.so/2013.1/901 2013/11/27
 27 29  0  0  0  0  0  0  0  0999 V2000
   51.2506  -30.6794 -100.1324 N   0  0  0  0  0  0  0  0  0  0  0  0
   50.3995  -31.0712 -101.2614 C   0  0  2  0  0  0  0  0  0  0  0  0
   50.8331  -30.3231 -102.5045 C   0  0  0  0  0  0  0  0  0  0  0  0
   50.6768  -30.8230 -103.6083 O   0  0  0  0  0  0  0  0  0  0  0  0
   48.9230  -30.7577 -100.9836 C   0  0  0  0  0  0  0  0  0  0  0  0
   48.7548  -29.3214 -100.5085 C   0  0  0  0  0  0  0  0  0  0  0  0
   47.0289  -28.7136 -100.6324 S   0  0  2  0  0  0  0  0  0  0  0  0
   46.0347  -30.0681  -99.9278 C   0  0  0  0  0  0  0  0  0  0  0  0
   46.8314  -29.0939 -102.3716 C   0  0  0  0  0  0  0  0  0  0  0  0
   45.4035  -29.0374 -102.8458 C   0  0  1  0  0  0  0  0  0  0  0  0
   44.9912  -27.6601 -102.8410 O   0  0  0  0  0  0  0  0  0  0  0  0
   45.5156  -29.4368 -104.2620 C   0  0  1  0  0  0  0  0  0  0  0  0
   45.2086  -30.8237 -104.3944 O   0  0  0  0  0  0  0  0  0  0  0  0
   44.4498  -28.6125 -104.9153 C   0  0  1  0  0  0  0  0  0  0  0  0
   43.1828  -29.3008 -104.8669 O   0  0  0  0  0  0  0  0  0  0  0  0
   44.3649  -27.2903 -104.0952 C   0  0  2  0  0  0  0  0  0  0  0  0
   51.3099  -29.2052 -102.4166 O   0  0  0  0  0  0  0  0  0  0  0  0
   48.3597  -23.8356 -103.5432 N   0  0  0  0  0  0  0  0  0  0  0  0
   47.9961  -24.8237 -102.6892 C   0  0  0  0  0  0  0  0  0  0  0  0
   46.9798  -25.6660 -102.9696 N   0  0  0  0  0  0  0  0  0  0  0  0
   46.2332  -25.4950 -104.0727 C   0  0  0  0  0  0  0  0  0  0  0  0
   46.5590  -24.4295 -104.9898 C   0  0  0  0  0  0  0  0  0  0  0  0
   47.6758  -23.5967 -104.6822 C   0  0  0  0  0  0  0  0  0  0  0  0
   48.0488  -22.5657 -105.5204 N   0  0  0  0  0  0  0  0  0  0  0  0
   45.6687  -24.4764 -105.9878 N   0  0  0  0  0  0  0  0  0  0  0  0
   44.8366  -25.4499 -105.7657 C   0  0  0  0  0  0  0  0  0  0  0  0
   45.1383  -26.1197 -104.6029 N   0  0  0  0  0  0  0  0  0  0  0  0
  2  1  1  1  0  0  0
  2  3  1  0  0  0  0
  2  5  1  0  0  0  0
  3  4  1  0  0  0  0
  3 17  1  0  0  0  0
  5  6  1  0  0  0  0
  7  6  1  1  0  0  0
  7  8  1  0  0  0  0
  7  9  1  0  0  0  0
 10  9  1  6  0  0  0
 10 11  1  0  0  0  0
 10 12  1  0  0  0  0
 11 16  1  0  0  0  0
 12 13  1  1  0  0  0
 12 14  1  0  0  0  0
 14 15  1  1  0  0  0
 14 16  1  0  0  0  0
 16 27  1  6  0  0  0
 18 19  2  0  0  0  0
 18 23  1  0  0  0  0
 19 20  1  0  0  0  0
 20 21  2  0  0  0  0
 21 22  1  0  0  0  0
 21 27  1  0  0  0  0
 22 23  2  0  0  0  0
 22 25  1  0  0  0  0
 23 24  1  0  0  0  0
 25 26  2  0  0  0  0
 26 27  1  0  0  0  0
M  END
>  <CHROM.1>
150.74884754,50.16413830,162.82929097,46.29979192,166.65150379,69.96713634
1.48837273,47.13341415,-27.87301154,-103.08714165,-1.03066371,-0.32862750
-0.39934034

>  <Name>
ligand

>  <RI>
0

>  <Rbt.Current_Directory>
/home/itssahil/PROJECTS/Mol_Feturizer/Test_systems_manuscript/rnas/4l81

>  <Rbt.Executable>
rbdock ($Id: //depot/dev/client3/rdock/2013.1/src/exe/rbdock.cxx#4 $)

>  <Rbt.Library>
libRbt.so (2013.1, Build901 2013/11/27)

>  <Rbt.Parameter_File>
/export/apps/rDock/src/rDock_2013.1_src/data/scripts/dock_solv.prm

>  <Rbt.Receptor>
prm/pocket_docking_6.prm

>  <SCORE>
-15.0191

>  <SCORE.INTER>
-13.8511

>  <SCORE.INTER.CONST>
1

>  <SCORE.INTER.POLAR>
0

>  <SCORE.INTER.ROT>
7

>  <SCORE.INTER.SOLV>
15.2393

>  <SCORE.INTER.VDW>
-22.5805

>  <SCORE.INTER.norm>
-0.513005

>  <SCORE.INTRA>
-1.16802

>  <SCORE.INTRA.DIHEDRAL>
-3.21372

>  <SCORE.INTRA.DIHEDRAL.0>
8.34559

>  <SCORE.INTRA.POLAR>
0

>  <SCORE.INTRA.POLAR.0>
0

>  <SCORE.INTRA.REPUL>
0

>  <SCORE.INTRA.REPUL.0>
0

>  <SCORE.INTRA.SOLV>
-0.497911

>  <SCORE.INTRA.SOLV.lig_0>
-48.829

>  <SCORE.INTRA.VDW>
0.68779

>  <SCORE.INTRA.VDW.0>
-1.77092

>  <SCORE.INTRA.norm>
-0.0432602

>  <SCORE.RESTR>
0

>  <SCORE.RESTR.CAVITY>
0

>  <SCORE.RESTR.norm>
0

>  <SCORE.SYSTEM>
0

>  <SCORE.SYSTEM.CONST>
0

>  <SCORE.SYSTEM.DIHEDRAL>
0

>  <SCORE.SYSTEM.SOLV>
0

>  <SCORE.SYSTEM.norm>
0

>  <SCORE.heavy>
27

>  <SCORE.norm>
-0.556265

>  <RMSD>
6.841

$$$$
ligand
 OpenBabel02271912153D
libRbt.so/2013.1/901 2013/11/27
 27 29  0  0  0  0  0  0  0  0999 V2000
   50.9694  -31.2476 -100.4256 N   0  0  0  0  0  0  0  0  0  0  0  0
   49.8980  -31.2642 -101.4279 C   0  0  2  0  0  0  0  0  0  0  0  0
   50.4946  -31.0870 -102.8082 C   0  0  0  0  0  0  0  0  0  0  0  0
   50.0526  -31.7207 -103.7547 O   0  0  0  0  0  0  0  0  0  0  0  0
   48.8821  -30.1411 -101.1788 C   0  0  0  0  0  0  0  0  0  0  0  0
   47.4939  -30.7128 -100.9278 C   0  0  0  0  0  0  0  0  0  0  0  0
   46.1831  -29.4319 -100.8604 S   0  0  2  0  0  0  0  0  0  0  0  0
   44.6817  -30.3632 -100.4153 C   0  0  0  0  0  0  0  0  0  0  0  0
   45.9394  -29.3342 -102.6324 C   0  0  0  0  0  0  0  0  0  0  0  0
   44.9521  -28.2773 -103.0508 C   0  0  1  0  0  0  0  0  0  0  0  0
   45.5377  -26.9932 -102.7768 O   0  0  0  0  0  0  0  0  0  0  0  0
   44.9252  -28.4213 -104.5192 C   0  0  1  0  0  0  0  0  0  0  0  0
   43.8056  -29.2185 -104.9020 O   0  0  0  0  0  0  0  0  0  0  0  0
   44.7285  -27.0097 -104.9785 C   0  0  1  0  0  0  0  0  0  0  0  0
   43.3227  -26.6892 -105.0279 O   0  0  0  0  0  0  0  0  0  0  0  0
   45.4390  -26.1105 -103.9227 C   0  0  2  0  0  0  0  0  0  0  0  0
   51.3963  -30.2884 -102.9925 O   0  0  0  0  0  0  0  0  0  0  0  0
   50.5184  -27.3280 -104.8795 N   0  0  0  0  0  0  0  0  0  0  0  0
   49.5022  -28.1798 -104.5971 C   0  0  0  0  0  0  0  0  0  0  0  0
   48.2389  -27.7419 -104.4143 N   0  0  0  0  0  0  0  0  0  0  0  0
   47.9622  -26.4278 -104.4193 C   0  0  0  0  0  0  0  0  0  0  0  0
   49.0219  -25.4823 -104.6751 C   0  0  0  0  0  0  0  0  0  0  0  0
   50.3323  -25.9916 -104.9180 C   0  0  0  0  0  0  0  0  0  0  0  0
   51.3897  -25.1440 -105.1790 N   0  0  0  0  0  0  0  0  0  0  0  0
   48.4855  -24.2576 -104.6190 N   0  0  0  0  0  0  0  0  0  0  0  0
   47.2187  -24.3636 -104.3481 C   0  0  0  0  0  0  0  0  0  0  0  0
   46.8356  -25.6785 -104.2210 N   0  0  0  0  0  0  0  0  0  0  0  0
  2  1  1  1  0  0  0
  2  3  1  0  0  0  0
  2  5  1  0  0  0  0
  3  4  1  0  0  0  0
  3 17  1  0  0  0  0
  5  6  1  0  0  0  0
  7  6  1  6  0  0  0
  7  8  1  0  0  0  0
  7  9  1  0  0  0  0
 10  9  1  1  0  0  0
 10 11  1  0  0  0  0
 10 12  1  0  0  0  0
 11 16  1  0  0  0  0
 12 13  1  1  0  0  0
 12 14  1  0  0  0  0
 14 15  1  1  0  0  0
 14 16  1  0  0  0  0
 16 27  1  6  0  0  0
 18 19  2  0  0  0  0
 18 23  1  0  0  0  0
 19 20  1  0  0  0  0
 20 21  2  0  0  0  0
 21 22  1  0  0  0  0
 21 27  1  0  0  0  0
 22 23  2  0  0  0  0
 22 25  1  0  0  0  0
 23 24  1  0  0  0  0
 25 26  2  0  0  0  0
 26 27  1  0  0  0  0
M  END
>  <CHROM.1>
140.79977872,-119.46026660,-171.73959608,-175.37803513,-176.15737568,68.54631446
52.58499236,47.58957069,-28.23241595,-103.29569538,-0.90184122,0.07631977
-0.58942098

>  <Name>
ligand

>  <RI>
0

>  <Rbt.Current_Directory>
/home/itssahil/PROJECTS/Mol_Feturizer/Test_systems_manuscript/rnas/4l81

>  <Rbt.Executable>
rbdock ($Id: //depot/dev/client3/rdock/2013.1/src/exe/rbdock.cxx#4 $)

>  <Rbt.Library>
libRbt.so (2013.1, Build901 2013/11/27)

>  <Rbt.Parameter_File>
/export/apps/rDock/src/rDock_2013.1_src/data/scripts/dock_solv.prm

>  <Rbt.Receptor>
prm/pocket_docking_2.prm

>  <SCORE>
-5.32292

>  <SCORE.INTER>
-6.53691

>  <SCORE.INTER.CONST>
1

>  <SCORE.INTER.POLAR>
0

>  <SCORE.INTER.ROT>
7

>  <SCORE.INTER.SOLV>
23.0794

>  <SCORE.INTER.VDW>
-20.3178

>  <SCORE.INTER.norm>
-0.242108

>  <SCORE.INTRA>
-2.08993

>  <SCORE.INTRA.DIHEDRAL>
2.18703

>  <SCORE.INTRA.DIHEDRAL.0>
8.34559

>  <SCORE.INTRA.POLAR>
0

>  <SCORE.INTRA.POLAR.0>
0

>  <SCORE.INTRA.REPUL>
0

>  <SCORE.INTRA.REPUL.0>
0

>  <SCORE.INTRA.SOLV>
-1.09666

>  <SCORE.INTRA.SOLV.lig_0>
-48.829

>  <SCORE.INTRA.VDW>
-2.63512

>  <SCORE.INTRA.VDW.0>
-1.77092

>  <SCORE.INTRA.norm>
-0.0774049

>  <SCORE.RESTR>
3.30393

>  <SCORE.RESTR.CAVITY>
3.30393

>  <SCORE.RESTR.norm>
0.122368

>  <SCORE.SYSTEM>
0

>  <SCORE.SYSTEM.CONST>
0

>  <SCORE.SYSTEM.DIHEDRAL>
0

>  <SCORE.SYSTEM.SOLV>
0

>  <SCORE.SYSTEM.norm>
0

>  <SCORE.heavy>
27

>  <SCORE.norm>
-0.197145

>  <RMSD>
6.880

$$$$
ligand
 OpenBabel02271912153D
libRbt.so/2013.1/901 2013/11/27
 27 29  0  0  0  0  0  0  0  0999 V2000
   52.5004  -36.2740 -106.5391 N   0  0  0  0  0  0  0  0  0  0  0  0
   51.3868  -35.4081 -106.1356 C   0  0  2  0  0  0  0  0  0  0  0  0
   50.8150  -34.7184 -107.3563 C   0  0  0  0  0  0  0  0  0  0  0  0
   49.6122  -34.5233 -107.4449 O   0  0  0  0  0  0  0  0  0  0  0  0
   51.8439  -34.3410 -105.1317 C   0  0  0  0  0  0  0  0  0  0  0  0
   50.6693  -33.4851 -104.6791 C   0  0  0  0  0  0  0  0  0  0  0  0
   51.1480  -32.1565 -103.5090 S   0  0  2  0  0  0  0  0  0  0  0  0
   51.7019  -33.0569 -102.0251 C   0  0  0  0  0  0  0  0  0  0  0  0
   49.4779  -31.7639 -102.9937 C   0  0  0  0  0  0  0  0  0  0  0  0
   49.4108  -30.9154 -101.7518 C   0  0  1  0  0  0  0  0  0  0  0  0
   50.2628  -29.7745 -101.9503 O   0  0  0  0  0  0  0  0  0  0  0  0
   48.0237  -30.4123 -101.7769 C   0  0  1  0  0  0  0  0  0  0  0  0
   47.2063  -31.2184 -100.9298 O   0  0  0  0  0  0  0  0  0  0  0  0
   48.1671  -29.0405 -101.1941 C   0  0  1  0  0  0  0  0  0  0  0  0
   48.0752  -29.0943  -99.7554 O   0  0  0  0  0  0  0  0  0  0  0  0
   49.5813  -28.5395 -101.6152 C   0  0  2  0  0  0  0  0  0  0  0  0
   51.5516  -34.3235 -108.2432 O   0  0  0  0  0  0  0  0  0  0  0  0
   48.6709  -27.8285 -106.7983 N   0  0  0  0  0  0  0  0  0  0  0  0
   48.4054  -28.9307 -106.0549 C   0  0  0  0  0  0  0  0  0  0  0  0
   48.6487  -28.9676 -104.7281 N   0  0  0  0  0  0  0  0  0  0  0  0
   49.2488  -27.9356 -104.1130 C   0  0  0  0  0  0  0  0  0  0  0  0
   49.5869  -26.7573 -104.8744 C   0  0  0  0  0  0  0  0  0  0  0  0
   49.2616  -26.7390 -106.2633 C   0  0  0  0  0  0  0  0  0  0  0  0
   49.5478  -25.6406 -107.0484 N   0  0  0  0  0  0  0  0  0  0  0  0
   50.1712  -25.8944 -104.0349 N   0  0  0  0  0  0  0  0  0  0  0  0
   50.2293  -26.4299 -102.8520 C   0  0  0  0  0  0  0  0  0  0  0  0
   49.6691  -27.6860 -102.8359 N   0  0  0  0  0  0  0  0  0  0  0  0
  2  1  1  6  0  0  0
  2  3  1  0  0  0  0
  2  5  1  0  0  0  0
  3  4  1  0  0  0  0
  3 17  1  0  0  0  0
  5  6  1  0  0  0  0
  7  6  1  6  0  0  0
  7  8  1  0  0  0  0
  7  9  1  0  0  0  0
 10  9  1  6  0  0  0
 10 11  1  0  0  0  0
 10 12  1  0  0  0  0
 11 16  1  0  0  0  0
 12 13  1  1  0  0  0
 12 14  1  0  0  0  0
 14 15  1  1  0  0  0
 14 16  1  0  0  0  0
 16 27  1  6  0  0  0
 18 19  2  0  0  0  0
 18 23  1  0  0  0  0
 19 20  1  0  0  0  0
 20 21  2  0  0  0  0
 21 22  1  0  0  0  0
 21 27  1  0  0  0  0
 22 23  2  0  0  0  0
 22 25  1  0  0  0  0
 23 24  1  0  0  0  0
 25 26  2  0  0  0  0
 26 27  1  0  0  0  0
M  END
>  <CHROM.1>
143.34930630,-177.74210536,-178.48341236,-65.77935026,165.78701775,51.54632432
57.16484064,49.87816727,-30.61172611,-104.11048597,-0.27248500,1.27901753
-0.89914887

>  <Name>
ligand

>  <RI>
0

>  <Rbt.Current_Directory>
/home/itssahil/PROJECTS/Mol_Feturizer/Test_systems_manuscript/rnas/4l81

>  <Rbt.Executable>
rbdock ($Id: //depot/dev/client3/rdock/2013.1/src/exe/rbdock.cxx#4 $)

>  <Rbt.Library>
libRbt.so (2013.1, Build901 2013/11/27)

>  <Rbt.Parameter_File>
/export/apps/rDock/src/rDock_2013.1_src/data/scripts/dock_solv.prm

>  <Rbt.Receptor>
prm/pocket_docking_8.prm

>  <SCORE>
-11.1787

>  <SCORE.INTER>
-7.36499

>  <SCORE.INTER.CONST>
1

>  <SCORE.INTER.POLAR>
0

>  <SCORE.INTER.ROT>
7

>  <SCORE.INTER.SOLV>
12.2028

>  <SCORE.INTER.VDW>
-17.2442

>  <SCORE.INTER.norm>
-0.272777

>  <SCORE.INTRA>
-3.8137

>  <SCORE.INTRA.DIHEDRAL>
-4.71622

>  <SCORE.INTRA.DIHEDRAL.0>
8.34559

>  <SCORE.INTRA.POLAR>
0

>  <SCORE.INTRA.POLAR.0>
0

>  <SCORE.INTRA.REPUL>
0

>  <SCORE.INTRA.REPUL.0>
0

>  <SCORE.INTRA.SOLV>
-1.25612

>  <SCORE.INTRA.SOLV.lig_0>
-48.829

>  <SCORE.INTRA.VDW>
-0.827529

>  <SCORE.INTRA.VDW.0>
-1.77092

>  <SCORE.INTRA.norm>
-0.141248

>  <SCORE.RESTR>
0

>  <SCORE.RESTR.CAVITY>
0

>  <SCORE.RESTR.norm>
0

>  <SCORE.SYSTEM>
0

>  <SCORE.SYSTEM.CONST>
0

>  <SCORE.SYSTEM.DIHEDRAL>
0

>  <SCORE.SYSTEM.SOLV>
0

>  <SCORE.SYSTEM.norm>
0

>  <SCORE.heavy>
27

>  <SCORE.norm>
-0.414025

>  <RMSD>
6.890

$$$$
ligand
 OpenBabel02271912153D
libRbt.so/2013.1/901 2013/11/27
 27 29  0  0  0  0  0  0  0  0999 V2000
   50.0101  -29.4534 -102.5081 N   0  0  0  0  0  0  0  0  0  0  0  0
   48.8989  -30.4051 -102.3965 C   0  0  2  0  0  0  0  0  0  0  0  0
   48.4216  -30.4584 -100.9605 C   0  0  0  0  0  0  0  0  0  0  0  0
   49.0628  -29.9067 -100.0789 O   0  0  0  0  0  0  0  0  0  0  0  0
   49.3244  -31.8144 -102.8304 C   0  0  0  0  0  0  0  0  0  0  0  0
   49.7354  -31.8287 -104.2959 C   0  0  0  0  0  0  0  0  0  0  0  0
   48.3100  -31.8761 -105.4488 S   0  0  2  0  0  0  0  0  0  0  0  0
   49.0811  -31.9127 -107.0992 C   0  0  0  0  0  0  0  0  0  0  0  0
   47.9422  -30.1258 -105.3482 C   0  0  0  0  0  0  0  0  0  0  0  0
   46.5085  -29.8271 -104.9987 C   0  0  1  0  0  0  0  0  0  0  0  0
   46.4325  -28.4526 -104.5840 O   0  0  0  0  0  0  0  0  0  0  0  0
   45.8316  -29.9084 -106.3074 C   0  0  1  0  0  0  0  0  0  0  0  0
   45.2321  -31.1942 -106.4578 O   0  0  0  0  0  0  0  0  0  0  0  0
   44.7693  -28.8600 -106.1872 C   0  0  1  0  0  0  0  0  0  0  0  0
   43.5810  -29.4160 -105.5872 O   0  0  0  0  0  0  0  0  0  0  0  0
   45.3596  -27.7529 -105.2631 C   0  0  2  0  0  0  0  0  0  0  0  0
   47.3790  -31.0223 -100.6777 O   0  0  0  0  0  0  0  0  0  0  0  0
   48.8014  -25.7814 -108.7938 N   0  0  0  0  0  0  0  0  0  0  0  0
   48.5758  -27.0848 -108.4967 C   0  0  0  0  0  0  0  0  0  0  0  0
   47.6361  -27.4567 -107.6026 N   0  0  0  0  0  0  0  0  0  0  0  0
   46.9495  -26.5353 -106.9076 C   0  0  0  0  0  0  0  0  0  0  0  0
   47.1868  -25.1348 -107.1620 C   0  0  0  0  0  0  0  0  0  0  0  0
   48.1498  -24.7865 -108.1554 C   0  0  0  0  0  0  0  0  0  0  0  0
   48.4189  -23.4667 -108.4559 N   0  0  0  0  0  0  0  0  0  0  0  0
   46.3880  -24.4400 -106.3435 N   0  0  0  0  0  0  0  0  0  0  0  0
   45.7017  -25.2715 -105.6174 C   0  0  0  0  0  0  0  0  0  0  0  0
   45.9991  -26.5786 -105.9252 N   0  0  0  0  0  0  0  0  0  0  0  0
  2  1  1  1  0  0  0
  2  3  1  0  0  0  0
  2  5  1  0  0  0  0
  3  4  1  0  0  0  0
  3 17  1  0  0  0  0
  5  6  1  0  0  0  0
  7  6  1  1  0  0  0
  7  8  1  0  0  0  0
  7  9  1  0  0  0  0
 10  9  1  6  0  0  0
 10 11  1  0  0  0  0
 10 12  1  0  0  0  0
 11 16  1  0  0  0  0
 12 13  1  1  0  0  0
 12 14  1  0  0  0  0
 14 15  1  1  0  0  0
 14 16  1  0  0  0  0
 16 27  1  6  0  0  0
 18 19  2  0  0  0  0
 18 23  1  0  0  0  0
 19 20  1  0  0  0  0
 20 21  2  0  0  0  0
 21 22  1  0  0  0  0
 21 27  1  0  0  0  0
 22 23  2  0  0  0  0
 22 25  1  0  0  0  0
 23 24  1  0  0  0  0
 25 26  2  0  0  0  0
 26 27  1  0  0  0  0
M  END
>  <CHROM.1>
-9.62813150,-62.55804043,-79.61624846,-179.12644547,-127.07765728,164.03586279
62.93434520,47.42684275,-28.79788028,-105.29006606,-1.10364857,-1.16372818
-0.27542613

>  <Name>
ligand

>  <RI>
0

>  <Rbt.Current_Directory>
/home/itssahil/PROJECTS/Mol_Feturizer/Test_systems_manuscript/rnas/4l81

>  <Rbt.Executable>
rbdock ($Id: //depot/dev/client3/rdock/2013.1/src/exe/rbdock.cxx#4 $)

>  <Rbt.Library>
libRbt.so (2013.1, Build901 2013/11/27)

>  <Rbt.Parameter_File>
/export/apps/rDock/src/rDock_2013.1_src/data/scripts/dock_solv.prm

>  <Rbt.Receptor>
prm/pocket_docking_5.prm

>  <SCORE>
-6.08985

>  <SCORE.INTER>
-5.60791

>  <SCORE.INTER.CONST>
1

>  <SCORE.INTER.POLAR>
0

>  <SCORE.INTER.ROT>
7

>  <SCORE.INTER.SOLV>
8.78094

>  <SCORE.INTER.VDW>
-14.9323

>  <SCORE.INTER.norm>
-0.2077

>  <SCORE.INTRA>
-0.481937

>  <SCORE.INTRA.DIHEDRAL>
1.84937

>  <SCORE.INTRA.DIHEDRAL.0>
8.34559

>  <SCORE.INTRA.POLAR>
0

>  <SCORE.INTRA.POLAR.0>
0

>  <SCORE.INTRA.REPUL>
0

>  <SCORE.INTRA.REPUL.0>
0

>  <SCORE.INTRA.SOLV>
1.11692

>  <SCORE.INTRA.SOLV.lig_0>
-48.829

>  <SCORE.INTRA.VDW>
-1.96508

>  <SCORE.INTRA.VDW.0>
-1.77092

>  <SCORE.INTRA.norm>
-0.0178495

>  <SCORE.RESTR>
0

>  <SCORE.RESTR.CAVITY>
0

>  <SCORE.RESTR.norm>
0

>  <SCORE.SYSTEM>
0

>  <SCORE.SYSTEM.CONST>
0

>  <SCORE.SYSTEM.DIHEDRAL>
0

>  <SCORE.SYSTEM.SOLV>
0

>  <SCORE.SYSTEM.norm>
0

>  <SCORE.heavy>
27

>  <SCORE.norm>
-0.22555

>  <RMSD>
6.919

$$$$
ligand
 OpenBabel02271912153D
libRbt.so/2013.1/901 2013/11/27
 27 29  0  0  0  0  0  0  0  0999 V2000
   51.8457  -32.0922 -101.4046 N   0  0  0  0  0  0  0  0  0  0  0  0
   51.1450  -30.9405 -101.9836 C   0  0  2  0  0  0  0  0  0  0  0  0
   50.1412  -30.4051 -100.9844 C   0  0  0  0  0  0  0  0  0  0  0  0
   49.7719  -29.2422 -101.0474 O   0  0  0  0  0  0  0  0  0  0  0  0
   50.4052  -31.3262 -103.2718 C   0  0  0  0  0  0  0  0  0  0  0  0
   49.6299  -32.6225 -103.0833 C   0  0  0  0  0  0  0  0  0  0  0  0
   48.6218  -33.0841 -104.5441 S   0  0  2  0  0  0  0  0  0  0  0  0
   49.7211  -32.7527 -105.9587 C   0  0  0  0  0  0  0  0  0  0  0  0
   47.6568  -31.5753 -104.5774 C   0  0  0  0  0  0  0  0  0  0  0  0
   46.3500  -31.7080 -105.3134 C   0  0  1  0  0  0  0  0  0  0  0  0
   45.5961  -30.5036 -105.0947 O   0  0  0  0  0  0  0  0  0  0  0  0
   46.7707  -31.6884 -106.7278 C   0  0  1  0  0  0  0  0  0  0  0  0
   46.8599  -33.0246 -107.2197 O   0  0  0  0  0  0  0  0  0  0  0  0
   45.6351  -30.9737 -107.3925 C   0  0  1  0  0  0  0  0  0  0  0  0
   44.5993  -31.9087 -107.7590 O   0  0  0  0  0  0  0  0  0  0  0  0
   45.0873  -29.9634 -106.3402 C   0  0  2  0  0  0  0  0  0  0  0  0
   49.6694  -31.1368 -100.1318 O   0  0  0  0  0  0  0  0  0  0  0  0
   48.8794  -26.5130 -107.7231 N   0  0  0  0  0  0  0  0  0  0  0  0
   48.9001  -27.8621 -107.8547 C   0  0  0  0  0  0  0  0  0  0  0  0
   47.8460  -28.6262 -107.4998 N   0  0  0  0  0  0  0  0  0  0  0  0
   46.7674  -28.0772 -106.9177 C   0  0  0  0  0  0  0  0  0  0  0  0
   46.7198  -26.6485 -106.7203 C   0  0  0  0  0  0  0  0  0  0  0  0
   47.8329  -25.8722 -107.1607 C   0  0  0  0  0  0  0  0  0  0  0  0
   47.8490  -24.5003 -107.0117 N   0  0  0  0  0  0  0  0  0  0  0  0
   45.5552  -26.3670 -106.1244 N   0  0  0  0  0  0  0  0  0  0  0  0
   44.9003  -27.4735 -105.9338 C   0  0  0  0  0  0  0  0  0  0  0  0
   45.5941  -28.5618 -106.4092 N   0  0  0  0  0  0  0  0  0  0  0  0
  2  1  1  1  0  0  0
  2  3  1  0  0  0  0
  2  5  1  0  0  0  0
  3  4  1  0  0  0  0
  3 17  1  0  0  0  0
  5  6  1  0  0  0  0
  7  6  1  1  0  0  0
  7  8  1  0  0  0  0
  7  9  1  0  0  0  0
 10  9  1  1  0  0  0
 10 11  1  0  0  0  0
 10 12  1  0  0  0  0
 11 16  1  0  0  0  0
 12 13  1  6  0  0  0
 12 14  1  0  0  0  0
 14 15  1  1  0  0  0
 14 16  1  0  0  0  0
 16 27  1  6  0  0  0
 18 19  2  0  0  0  0
 18 23  1  0  0  0  0
 19 20  1  0  0  0  0
 20 21  2  0  0  0  0
 21 22  1  0  0  0  0
 21 27  1  0  0  0  0
 22 23  2  0  0  0  0
 22 25  1  0  0  0  0
 23 24  1  0  0  0  0
 25 26  2  0  0  0  0
 26 27  1  0  0  0  0
M  END
>  <CHROM.1>
155.94145200,46.08955736,175.83203056,42.83060774,-158.71733729,171.54029026
88.20105008,47.83956717,-30.07309031,-105.18460403,-0.71921526,-0.85653418
-0.16236129

>  <Name>
ligand

>  <RI>
0

>  <Rbt.Current_Directory>
/home/itssahil/PROJECTS/Mol_Feturizer/Test_systems_manuscript/rnas/4l81

>  <Rbt.Executable>
rbdock ($Id: //depot/dev/client3/rdock/2013.1/src/exe/rbdock.cxx#4 $)

>  <Rbt.Library>
libRbt.so (2013.1, Build901 2013/11/27)

>  <Rbt.Parameter_File>
/export/apps/rDock/src/rDock_2013.1_src/data/scripts/dock_solv.prm

>  <Rbt.Receptor>
prm/pocket_docking_5.prm

>  <SCORE>
-9.97453

>  <SCORE.INTER>
-9.79128

>  <SCORE.INTER.CONST>
1

>  <SCORE.INTER.POLAR>
0

>  <SCORE.INTER.ROT>
7

>  <SCORE.INTER.SOLV>
12.2788

>  <SCORE.INTER.VDW>
-18.8871

>  <SCORE.INTER.norm>
-0.36264

>  <SCORE.INTRA>
-0.183252

>  <SCORE.INTRA.DIHEDRAL>
-1.87914

>  <SCORE.INTRA.DIHEDRAL.0>
8.34559

>  <SCORE.INTRA.POLAR>
0

>  <SCORE.INTRA.POLAR.0>
0

>  <SCORE.INTRA.REPUL>
0

>  <SCORE.INTRA.REPUL.0>
0

>  <SCORE.INTRA.SOLV>
-0.182632

>  <SCORE.INTRA.SOLV.lig_0>
-48.829

>  <SCORE.INTRA.VDW>
0.847634

>  <SCORE.INTRA.VDW.0>
-1.77092

>  <SCORE.INTRA.norm>
-0.00678712

>  <SCORE.RESTR>
0

>  <SCORE.RESTR.CAVITY>
0

>  <SCORE.RESTR.norm>
0

>  <SCORE.SYSTEM>
0

>  <SCORE.SYSTEM.CONST>
0

>  <SCORE.SYSTEM.DIHEDRAL>
0

>  <SCORE.SYSTEM.SOLV>
0

>  <SCORE.SYSTEM.norm>
0

>  <SCORE.heavy>
27

>  <SCORE.norm>
-0.369427

>  <RMSD>
6.931

$$$$
ligand
 OpenBabel02271912153D
libRbt.so/2013.1/901 2013/11/27
 27 29  0  0  0  0  0  0  0  0999 V2000
   51.8311  -32.1074 -100.5511 N   0  0  0  0  0  0  0  0  0  0  0  0
   51.0316  -32.5794 -101.6872 C   0  0  2  0  0  0  0  0  0  0  0  0
   51.8342  -33.5836 -102.4873 C   0  0  0  0  0  0  0  0  0  0  0  0
   52.2525  -33.2914 -103.5974 O   0  0  0  0  0  0  0  0  0  0  0  0
   50.6295  -31.4194 -102.6081 C   0  0  0  0  0  0  0  0  0  0  0  0
   49.5706  -31.8635 -103.6073 C   0  0  0  0  0  0  0  0  0  0  0  0
   47.8976  -32.0166 -102.8717 S   0  0  2  0  0  0  0  0  0  0  0  0
   46.8539  -32.5584 -104.2634 C   0  0  0  0  0  0  0  0  0  0  0  0
   47.5274  -30.2643 -102.9069 C   0  0  0  0  0  0  0  0  0  0  0  0
   46.3854  -29.8682 -102.0092 C   0  0  1  0  0  0  0  0  0  0  0  0
   46.3275  -28.4321 -101.9765 O   0  0  0  0  0  0  0  0  0  0  0  0
   45.2035  -30.3184 -102.7695 C   0  0  1  0  0  0  0  0  0  0  0  0
   44.7757  -31.5892 -102.2820 O   0  0  0  0  0  0  0  0  0  0  0  0
   44.1858  -29.2728 -102.4333 C   0  0  1  0  0  0  0  0  0  0  0  0
   43.4861  -29.6248 -101.2217 O   0  0  0  0  0  0  0  0  0  0  0  0
   44.9817  -27.9505 -102.2190 C   0  0  2  0  0  0  0  0  0  0  0  0
   52.0974  -34.6771 -102.0181 O   0  0  0  0  0  0  0  0  0  0  0  0
   47.5085  -24.0163 -104.7361 N   0  0  0  0  0  0  0  0  0  0  0  0
   47.8189  -24.5648 -103.5357 C   0  0  0  0  0  0  0  0  0  0  0  0
   47.1152  -25.5958 -103.0231 N   0  0  0  0  0  0  0  0  0  0  0  0
   46.0213  -26.0574 -103.6506 C   0  0  0  0  0  0  0  0  0  0  0  0
   45.6300  -25.4751 -104.9117 C   0  0  0  0  0  0  0  0  0  0  0  0
   46.4343  -24.4241 -105.4445 C   0  0  0  0  0  0  0  0  0  0  0  0
   46.1233  -23.8294 -106.6504 N   0  0  0  0  0  0  0  0  0  0  0  0
   44.5201  -26.1051 -105.3143 N   0  0  0  0  0  0  0  0  0  0  0  0
   44.1961  -26.9979 -104.4270 C   0  0  0  0  0  0  0  0  0  0  0  0
   45.0890  -27.0208 -103.3811 N   0  0  0  0  0  0  0  0  0  0  0  0
  2  1  1  1  0  0  0
  2  3  1  0  0  0  0
  2  5  1  0  0  0  0
  3  4  1  0  0  0  0
  3 17  1  0  0  0  0
  5  6  1  0  0  0  0
  7  6  1  6  0  0  0
  7  8  1  0  0  0  0
  7  9  1  0  0  0  0
 10  9  1  6  0  0  0
 10 11  1  0  0  0  0
 10 12  1  0  0  0  0
 11 16  1  0  0  0  0
 12 13  1  1  0  0  0
 12 14  1  0  0  0  0
 14 15  1  1  0  0  0
 14 16  1  0  0  0  0
 16 27  1  6  0  0  0
 18 19  2  0  0  0  0
 18 23  1  0  0  0  0
 19 20  1  0  0  0  0
 20 21  2  0  0  0  0
 21 22  1  0  0  0  0
 21 27  1  0  0  0  0
 22 23  2  0  0  0  0
 22 25  1  0  0  0  0
 23 24  1  0  0  0  0
 25 26  2  0  0  0  0
 26 27  1  0  0  0  0
M  END
>  <CHROM.1>
-109.52336497,-168.09630326,76.15138490,-179.76379147,-162.59006303,171.42180239
-43.08058253,47.36886767,-29.35675519,-103.15464378,-0.97391235,0.14222735
-0.35047499

>  <Name>
ligand

>  <RI>
0

>  <Rbt.Current_Directory>
/home/itssahil/PROJECTS/Mol_Feturizer/Test_systems_manuscript/rnas/4l81

>  <Rbt.Executable>
rbdock ($Id: //depot/dev/client3/rdock/2013.1/src/exe/rbdock.cxx#4 $)

>  <Rbt.Library>
libRbt.so (2013.1, Build901 2013/11/27)

>  <Rbt.Parameter_File>
/export/apps/rDock/src/rDock_2013.1_src/data/scripts/dock_solv.prm

>  <Rbt.Receptor>
prm/pocket_docking_6.prm

>  <SCORE>
-13.0011

>  <SCORE.INTER>
-12.8366

>  <SCORE.INTER.CONST>
1

>  <SCORE.INTER.POLAR>
0

>  <SCORE.INTER.ROT>
7

>  <SCORE.INTER.SOLV>
16.196

>  <SCORE.INTER.VDW>
-22.2231

>  <SCORE.INTER.norm>
-0.47543

>  <SCORE.INTRA>
-0.169783

>  <SCORE.INTRA.DIHEDRAL>
-1.51056

>  <SCORE.INTRA.DIHEDRAL.0>
8.34559

>  <SCORE.INTRA.POLAR>
0

>  <SCORE.INTRA.POLAR.0>
0

>  <SCORE.INTRA.REPUL>
0

>  <SCORE.INTRA.REPUL.0>
0

>  <SCORE.INTRA.SOLV>
-0.876794

>  <SCORE.INTRA.SOLV.lig_0>
-48.829

>  <SCORE.INTRA.VDW>
1.02389

>  <SCORE.INTRA.VDW.0>
-1.77092

>  <SCORE.INTRA.norm>
-0.00628825

>  <SCORE.RESTR>
0.00531498

>  <SCORE.RESTR.CAVITY>
0.00531498

>  <SCORE.RESTR.norm>
0.000196851

>  <SCORE.SYSTEM>
0

>  <SCORE.SYSTEM.CONST>
0

>  <SCORE.SYSTEM.DIHEDRAL>
0

>  <SCORE.SYSTEM.SOLV>
0

>  <SCORE.SYSTEM.norm>
0

>  <SCORE.heavy>
27

>  <SCORE.norm>
-0.481522

>  <RMSD>
6.933

$$$$
ligand
 OpenBabel02271912153D
libRbt.so/2013.1/901 2013/11/27
 27 29  0  0  0  0  0  0  0  0999 V2000
   50.0118  -30.3699 -103.0200 N   0  0  0  0  0  0  0  0  0  0  0  0
   50.5170  -30.2519 -101.6476 C   0  0  2  0  0  0  0  0  0  0  0  0
   50.7812  -31.6330 -101.0860 C   0  0  0  0  0  0  0  0  0  0  0  0
   50.9507  -31.7862  -99.8857 O   0  0  0  0  0  0  0  0  0  0  0  0
   49.5094  -29.5322 -100.7409 C   0  0  0  0  0  0  0  0  0  0  0  0
   48.1483  -30.2114 -100.7982 C   0  0  0  0  0  0  0  0  0  0  0  0
   46.8613  -29.3405  -99.8244 S   0  0  2  0  0  0  0  0  0  0  0  0
   45.3633  -30.3462 -100.0777 C   0  0  0  0  0  0  0  0  0  0  0  0
   46.5523  -28.0628 -101.0413 C   0  0  0  0  0  0  0  0  0  0  0  0
   45.4269  -28.3868 -101.9875 C   0  0  1  0  0  0  0  0  0  0  0  0
   44.8868  -27.1457 -102.4723 O   0  0  0  0  0  0  0  0  0  0  0  0
   46.1290  -29.0115 -103.1253 C   0  0  1  0  0  0  0  0  0  0  0  0
   46.0631  -30.4318 -103.0075 O   0  0  0  0  0  0  0  0  0  0  0  0
   45.3140  -28.5573 -104.2964 C   0  0  1  0  0  0  0  0  0  0  0  0
   44.2190  -29.4673 -104.5290 O   0  0  0  0  0  0  0  0  0  0  0  0
   44.7611  -27.1509 -103.9167 C   0  0  2  0  0  0  0  0  0  0  0  0
   50.7940  -32.6053 -101.8204 O   0  0  0  0  0  0  0  0  0  0  0  0
   48.8242  -23.7788 -103.3524 N   0  0  0  0  0  0  0  0  0  0  0  0
   48.4842  -24.8086 -102.5388 C   0  0  0  0  0  0  0  0  0  0  0  0
   47.4450  -25.6222 -102.8200 N   0  0  0  0  0  0  0  0  0  0  0  0
   46.6536  -25.3814 -103.8779 C   0  0  0  0  0  0  0  0  0  0  0  0
   46.9542  -24.2705 -104.7486 C   0  0  0  0  0  0  0  0  0  0  0  0
   48.0949  -23.4691 -104.4453 C   0  0  0  0  0  0  0  0  0  0  0  0
   48.4456  -22.3975 -105.2411 N   0  0  0  0  0  0  0  0  0  0  0  0
   46.0209  -24.2515 -105.7073 N   0  0  0  0  0  0  0  0  0  0  0  0
   45.1856  -25.2261 -105.5026 C   0  0  0  0  0  0  0  0  0  0  0  0
   45.5281  -25.9629 -104.3928 N   0  0  0  0  0  0  0  0  0  0  0  0
  2  1  1  6  0  0  0
  2  3  1  0  0  0  0
  2  5  1  0  0  0  0
  3  4  1  0  0  0  0
  3 17  1  0  0  0  0
  5  6  1  0  0  0  0
  7  6  1  6  0  0  0
  7  8  1  0  0  0  0
  7  9  1  0  0  0  0
 10  9  1  1  0  0  0
 10 11  1  0  0  0  0
 10 12  1  0  0  0  0
 11 16  1  0  0  0  0
 12 13  1  1  0  0  0
 12 14  1  0  0  0  0
 14 15  1  1  0  0  0
 14 16  1  0  0  0  0
 16 27  1  6  0  0  0
 18 19  2  0  0  0  0
 18 23  1  0  0  0  0
 19 20  1  0  0  0  0
 20 21  2  0  0  0  0
 21 22  1  0  0  0  0
 21 27  1  0  0  0  0
 22 23  2  0  0  0  0
 22 25  1  0  0  0  0
 23 24  1  0  0  0  0
 25 26  2  0  0  0  0
 26 27  1  0  0  0  0
M  END
>  <CHROM.1>
-165.47416869,54.25006504,-176.19328441,179.61600072,93.07327330,154.44949698
32.68879974,47.30544278,-27.95112405,-102.62409141,-1.23468594,-0.17652775
-0.45270607

>  <Name>
ligand

>  <RI>
0

>  <Rbt.Current_Directory>
/home/itssahil/PROJECTS/Mol_Feturizer/Test_systems_manuscript/rnas/4l81

>  <Rbt.Executable>
rbdock ($Id: //depot/dev/client3/rdock/2013.1/src/exe/rbdock.cxx#4 $)

>  <Rbt.Library>
libRbt.so (2013.1, Build901 2013/11/27)

>  <Rbt.Parameter_File>
/export/apps/rDock/src/rDock_2013.1_src/data/scripts/dock_solv.prm

>  <Rbt.Receptor>
prm/pocket_docking_7.prm

>  <SCORE>
-14.3369

>  <SCORE.INTER>
-18.3513

>  <SCORE.INTER.CONST>
1

>  <SCORE.INTER.POLAR>
0

>  <SCORE.INTER.ROT>
7

>  <SCORE.INTER.SOLV>
7.46758

>  <SCORE.INTER.VDW>
-22.99

>  <SCORE.INTER.norm>
-0.679677

>  <SCORE.INTRA>
4.01443

>  <SCORE.INTRA.DIHEDRAL>
0.645522

>  <SCORE.INTRA.DIHEDRAL.0>
8.34559

>  <SCORE.INTRA.POLAR>
0

>  <SCORE.INTRA.POLAR.0>
0

>  <SCORE.INTRA.REPUL>
0

>  <SCORE.INTRA.REPUL.0>
0

>  <SCORE.INTRA.SOLV>
0.743446

>  <SCORE.INTRA.SOLV.lig_0>
-48.829

>  <SCORE.INTRA.VDW>
3.31995

>  <SCORE.INTRA.VDW.0>
-1.77092

>  <SCORE.INTRA.norm>
0.148683

>  <SCORE.RESTR>
0

>  <SCORE.RESTR.CAVITY>
0

>  <SCORE.RESTR.norm>
0

>  <SCORE.SYSTEM>
0

>  <SCORE.SYSTEM.CONST>
0

>  <SCORE.SYSTEM.DIHEDRAL>
0

>  <SCORE.SYSTEM.SOLV>
0

>  <SCORE.SYSTEM.norm>
0

>  <SCORE.heavy>
27

>  <SCORE.norm>
-0.530995

>  <RMSD>
6.943

$$$$
ligand
 OpenBabel02271912153D
libRbt.so/2013.1/901 2013/11/27
 27 29  0  0  0  0  0  0  0  0999 V2000
   51.7852  -34.7348 -105.2437 N   0  0  0  0  0  0  0  0  0  0  0  0
   51.2487  -33.6250 -104.4479 C   0  0  2  0  0  0  0  0  0  0  0  0
   51.9185  -33.6068 -103.0901 C   0  0  0  0  0  0  0  0  0  0  0  0
   52.2899  -32.5500 -102.6022 O   0  0  0  0  0  0  0  0  0  0  0  0
   49.7326  -33.7600 -104.2512 C   0  0  0  0  0  0  0  0  0  0  0  0
   49.1847  -32.5894 -103.4473 C   0  0  0  0  0  0  0  0  0  0  0  0
   47.3620  -32.6351 -103.2492 S   0  0  2  0  0  0  0  0  0  0  0  0
   46.7308  -32.4426 -104.9474 C   0  0  0  0  0  0  0  0  0  0  0  0
   47.2013  -30.9394 -102.6946 C   0  0  0  0  0  0  0  0  0  0  0  0
   45.9061  -30.6554 -101.9815 C   0  0  1  0  0  0  0  0  0  0  0  0
   45.8811  -29.2560 -101.6527 O   0  0  0  0  0  0  0  0  0  0  0  0
   44.9006  -30.8548 -103.0430 C   0  0  1  0  0  0  0  0  0  0  0  0
   44.3452  -32.1647 -102.9369 O   0  0  0  0  0  0  0  0  0  0  0  0
   43.8631  -29.8305 -102.7016 C   0  0  1  0  0  0  0  0  0  0  0  0
   42.9133  -30.3725 -101.7606 O   0  0  0  0  0  0  0  0  0  0  0  0
   44.6306  -28.6403 -102.0519 C   0  0  2  0  0  0  0  0  0  0  0  0
   52.0624  -34.6395 -102.4595 O   0  0  0  0  0  0  0  0  0  0  0  0
   48.1439  -24.9536 -103.5563 N   0  0  0  0  0  0  0  0  0  0  0  0
   48.2657  -25.8494 -102.5461 C   0  0  0  0  0  0  0  0  0  0  0  0
   47.3100  -26.7678 -102.2926 N   0  0  0  0  0  0  0  0  0  0  0  0
   46.1583  -26.7661 -102.9834 C   0  0  0  0  0  0  0  0  0  0  0  0
   45.9688  -25.8030 -104.0412 C   0  0  0  0  0  0  0  0  0  0  0  0
   47.0276  -24.8860 -104.3121 C   0  0  0  0  0  0  0  0  0  0  0  0
   46.9169  -23.9453 -105.3159 N   0  0  0  0  0  0  0  0  0  0  0  0
   44.7519  -26.0119 -104.5572 N   0  0  0  0  0  0  0  0  0  0  0  0
   44.1849  -26.9914 -103.9180 C   0  0  0  0  0  0  0  0  0  0  0  0
   45.0067  -27.5022 -102.9406 N   0  0  0  0  0  0  0  0  0  0  0  0
  2  1  1  6  0  0  0
  2  3  1  0  0  0  0
  2  5  1  0  0  0  0
  3  4  1  0  0  0  0
  3 17  1  0  0  0  0
  5  6  1  0  0  0  0
  7  6  1  6  0  0  0
  7  8  1  0  0  0  0
  7  9  1  0  0  0  0
 10  9  1  6  0  0  0
 10 11  1  0  0  0  0
 10 12  1  0  0  0  0
 11 16  1  0  0  0  0
 12 13  1  1  0  0  0
 12 14  1  0  0  0  0
 14 15  1  1  0  0  0
 14 16  1  0  0  0  0
 16 27  1  6  0  0  0
 18 19  2  0  0  0  0
 18 23  1  0  0  0  0
 19 20  1  0  0  0  0
 20 21  2  0  0  0  0
 21 22  1  0  0  0  0
 21 27  1  0  0  0  0
 22 23  2  0  0  0  0
 22 25  1  0  0  0  0
 23 24  1  0  0  0  0
 25 26  2  0  0  0  0
 26 27  1  0  0  0  0
M  END
>  <CHROM.1>
136.57985190,-178.91986260,176.87391336,-64.64473303,-161.04838967,-177.21774467
-26.20238574,47.27256522,-29.98841666,-103.27352200,-0.95779936,0.17021157
-0.09916310

>  <Name>
ligand

>  <RI>
0

>  <Rbt.Current_Directory>
/home/itssahil/PROJECTS/Mol_Feturizer/Test_systems_manuscript/rnas/4l81

>  <Rbt.Executable>
rbdock ($Id: //depot/dev/client3/rdock/2013.1/src/exe/rbdock.cxx#4 $)

>  <Rbt.Library>
libRbt.so (2013.1, Build901 2013/11/27)

>  <Rbt.Parameter_File>
/export/apps/rDock/src/rDock_2013.1_src/data/scripts/dock_solv.prm

>  <Rbt.Receptor>
prm/pocket_docking_5.prm

>  <SCORE>
-17.1136

>  <SCORE.INTER>
-15.7932

>  <SCORE.INTER.CONST>
1

>  <SCORE.INTER.POLAR>
0

>  <SCORE.INTER.ROT>
7

>  <SCORE.INTER.SOLV>
13.9813

>  <SCORE.INTER.VDW>
-23.4559

>  <SCORE.INTER.norm>
-0.584934

>  <SCORE.INTRA>
-1.32033

>  <SCORE.INTRA.DIHEDRAL>
-3.18599

>  <SCORE.INTRA.DIHEDRAL.0>
8.34559

>  <SCORE.INTRA.POLAR>
0

>  <SCORE.INTRA.POLAR.0>
0

>  <SCORE.INTRA.REPUL>
0

>  <SCORE.INTRA.REPUL.0>
0

>  <SCORE.INTRA.SOLV>
-0.946439

>  <SCORE.INTRA.SOLV.lig_0>
-48.829

>  <SCORE.INTRA.VDW>
0.745884

>  <SCORE.INTRA.VDW.0>
-1.77092

>  <SCORE.INTRA.norm>
-0.0489011

>  <SCORE.RESTR>
0

>  <SCORE.RESTR.CAVITY>
0

>  <SCORE.RESTR.norm>
0

>  <SCORE.SYSTEM>
0

>  <SCORE.SYSTEM.CONST>
0

>  <SCORE.SYSTEM.DIHEDRAL>
0

>  <SCORE.SYSTEM.SOLV>
0

>  <SCORE.SYSTEM.norm>
0

>  <SCORE.heavy>
27

>  <SCORE.norm>
-0.633835

>  <RMSD>
6.997

$$$$
ligand
 OpenBabel02271912153D
libRbt.so/2013.1/901 2013/11/27
 27 29  0  0  0  0  0  0  0  0999 V2000
   47.4772  -31.3710 -105.7116 N   0  0  0  0  0  0  0  0  0  0  0  0
   47.9492  -32.0299 -104.4886 C   0  0  2  0  0  0  0  0  0  0  0  0
   46.7890  -32.7277 -103.8105 C   0  0  0  0  0  0  0  0  0  0  0  0
   46.9926  -33.6685 -103.0581 O   0  0  0  0  0  0  0  0  0  0  0  0
   48.5607  -31.0187 -103.5092 C   0  0  0  0  0  0  0  0  0  0  0  0
   49.8907  -30.4950 -104.0322 C   0  0  0  0  0  0  0  0  0  0  0  0
   50.7287  -29.3521 -102.8681 S   0  0  2  0  0  0  0  0  0  0  0  0
   50.4794  -30.1256 -101.2374 C   0  0  0  0  0  0  0  0  0  0  0  0
   49.4027  -28.1490 -102.8153 C   0  0  0  0  0  0  0  0  0  0  0  0
   49.8736  -26.7231 -102.9253 C   0  0  1  0  0  0  0  0  0  0  0  0
   50.5492  -26.5776 -104.1859 O   0  0  0  0  0  0  0  0  0  0  0  0
   48.6088  -25.9713 -103.0381 C   0  0  1  0  0  0  0  0  0  0  0  0
   48.2425  -25.4552 -101.7594 O   0  0  0  0  0  0  0  0  0  0  0  0
   48.9815  -24.8479 -103.9552 C   0  0  1  0  0  0  0  0  0  0  0  0
   49.5206  -23.7424 -103.2013 O   0  0  0  0  0  0  0  0  0  0  0  0
   50.0718  -25.4170 -104.9120 C   0  0  2  0  0  0  0  0  0  0  0  0
   45.6479  -32.3365 -103.9833 O   0  0  0  0  0  0  0  0  0  0  0  0
   48.2461  -24.4937 -109.8122 N   0  0  0  0  0  0  0  0  0  0  0  0
   48.5071  -23.5843 -108.8413 C   0  0  0  0  0  0  0  0  0  0  0  0
   49.0117  -23.9491 -107.6441 N   0  0  0  0  0  0  0  0  0  0  0  0
   49.1900  -25.2455 -107.3424 C   0  0  0  0  0  0  0  0  0  0  0  0
   48.8861  -26.2508 -108.3321 C   0  0  0  0  0  0  0  0  0  0  0  0
   48.4070  -25.8177 -109.6042 C   0  0  0  0  0  0  0  0  0  0  0  0
   48.1063  -26.7251 -110.5997 N   0  0  0  0  0  0  0  0  0  0  0  0
   49.1437  -27.4429 -107.7814 N   0  0  0  0  0  0  0  0  0  0  0  0
   49.5615  -27.2639 -106.5637 C   0  0  0  0  0  0  0  0  0  0  0  0
   49.6184  -25.9289 -106.2381 N   0  0  0  0  0  0  0  0  0  0  0  0
  2  1  1  6  0  0  0
  2  3  1  0  0  0  0
  2  5  1  0  0  0  0
  3  4  1  0  0  0  0
  3 17  1  0  0  0  0
  5  6  1  0  0  0  0
  7  6  1  6  0  0  0
  7  8  1  0  0  0  0
  7  9  1  0  0  0  0
 10  9  1  6  0  0  0
 10 11  1  0  0  0  0
 10 12  1  0  0  0  0
 11 16  1  0  0  0  0
 12 13  1  1  0  0  0
 12 14  1  0  0  0  0
 14 15  1  1  0  0  0
 14 16  1  0  0  0  0
 16 27  1  6  0  0  0
 18 19  2  0  0  0  0
 18 23  1  0  0  0  0
 19 20  1  0  0  0  0
 20 21  2  0  0  0  0
 21 22  1  0  0  0  0
 21 27  1  0  0  0  0
 22 23  2  0  0  0  0
 22 25  1  0  0  0  0
 23 24  1  0  0  0  0
 25 26  2  0  0  0  0
 26 27  1  0  0  0  0
M  END
>  <CHROM.1>
156.10318723,-70.58936019,-176.70010821,41.40890967,-135.24085180,60.48560597
-173.69414355,48.91211642,-27.79321851,-105.04670597,1.80280304,1.18924046
2.31912027

>  <Name>
ligand

>  <RI>
0

>  <Rbt.Current_Directory>
/home/itssahil/PROJECTS/Mol_Feturizer/Test_systems_manuscript/rnas/4l81

>  <Rbt.Executable>
rbdock ($Id: //depot/dev/client3/rdock/2013.1/src/exe/rbdock.cxx#4 $)

>  <Rbt.Library>
libRbt.so (2013.1, Build901 2013/11/27)

>  <Rbt.Parameter_File>
/export/apps/rDock/src/rDock_2013.1_src/data/scripts/dock_solv.prm

>  <Rbt.Receptor>
prm/pocket_docking_7.prm

>  <SCORE>
-10.9032

>  <SCORE.INTER>
-11.0728

>  <SCORE.INTER.CONST>
1

>  <SCORE.INTER.POLAR>
0

>  <SCORE.INTER.ROT>
7

>  <SCORE.INTER.SOLV>
13.3059

>  <SCORE.INTER.VDW>
-20.0838

>  <SCORE.INTER.norm>
-0.410104

>  <SCORE.INTRA>
0.165862

>  <SCORE.INTRA.DIHEDRAL>
-0.174394

>  <SCORE.INTRA.DIHEDRAL.0>
8.34559

>  <SCORE.INTRA.POLAR>
0

>  <SCORE.INTRA.POLAR.0>
0

>  <SCORE.INTRA.REPUL>
0

>  <SCORE.INTRA.REPUL.0>
0

>  <SCORE.INTRA.SOLV>
-0.725126

>  <SCORE.INTRA.SOLV.lig_0>
-48.829

>  <SCORE.INTRA.VDW>
0.615623

>  <SCORE.INTRA.VDW.0>
-1.77092

>  <SCORE.INTRA.norm>
0.00614305

>  <SCORE.RESTR>
0.00375546

>  <SCORE.RESTR.CAVITY>
0.00375546

>  <SCORE.RESTR.norm>
0.000139091

>  <SCORE.SYSTEM>
0

>  <SCORE.SYSTEM.CONST>
0

>  <SCORE.SYSTEM.DIHEDRAL>
0

>  <SCORE.SYSTEM.SOLV>
0

>  <SCORE.SYSTEM.norm>
0

>  <SCORE.heavy>
27

>  <SCORE.norm>
-0.403822

>  <RMSD>
7.079

$$$$
ligand
 OpenBabel02271912153D
libRbt.so/2013.1/901 2013/11/27
 27 29  0  0  0  0  0  0  0  0999 V2000
   47.8239  -25.9936 -111.8135 N   0  0  0  0  0  0  0  0  0  0  0  0
   48.3628  -25.3552 -110.6073 C   0  0  2  0  0  0  0  0  0  0  0  0
   47.9081  -26.1222 -109.3836 C   0  0  0  0  0  0  0  0  0  0  0  0
   48.7157  -26.4444 -108.5252 O   0  0  0  0  0  0  0  0  0  0  0  0
   47.8886  -23.9006 -110.4855 C   0  0  0  0  0  0  0  0  0  0  0  0
   48.5266  -23.2224 -109.2814 C   0  0  0  0  0  0  0  0  0  0  0  0
   47.5967  -23.4861 -107.7228 S   0  0  2  0  0  0  0  0  0  0  0  0
   46.2487  -22.2630 -107.8034 C   0  0  0  0  0  0  0  0  0  0  0  0
   48.7374  -22.5804 -106.6802 C   0  0  0  0  0  0  0  0  0  0  0  0
   48.1386  -22.1322 -105.3735 C   0  0  1  0  0  0  0  0  0  0  0  0
   47.7107  -23.3042 -104.6592 O   0  0  0  0  0  0  0  0  0  0  0  0
   49.3075  -21.6011 -104.6460 C   0  0  1  0  0  0  0  0  0  0  0  0
   49.3555  -20.1822 -104.7871 O   0  0  0  0  0  0  0  0  0  0  0  0
   48.9965  -21.9635 -103.2268 C   0  0  1  0  0  0  0  0  0  0  0  0
   48.1985  -20.9326 -102.6089 O   0  0  0  0  0  0  0  0  0  0  0  0
   48.1863  -23.2930 -103.2896 C   0  0  2  0  0  0  0  0  0  0  0  0
   46.7305  -26.3948 -109.2288 O   0  0  0  0  0  0  0  0  0  0  0  0
   48.2299  -28.5525 -102.5591 N   0  0  0  0  0  0  0  0  0  0  0  0
   47.1503  -27.7355 -102.6286 C   0  0  0  0  0  0  0  0  0  0  0  0
   47.2752  -26.4122 -102.8613 N   0  0  0  0  0  0  0  0  0  0  0  0
   48.4888  -25.8431 -102.9444 C   0  0  0  0  0  0  0  0  0  0  0  0
   49.6669  -26.6692 -102.8349 C   0  0  0  0  0  0  0  0  0  0  0  0
   49.4884  -28.0718 -102.6444 C   0  0  0  0  0  0  0  0  0  0  0  0
   50.5714  -28.9210 -102.5414 N   0  0  0  0  0  0  0  0  0  0  0  0
   50.7300  -25.8640 -102.9451 N   0  0  0  0  0  0  0  0  0  0  0  0
   50.3187  -24.6408 -103.1003 C   0  0  0  0  0  0  0  0  0  0  0  0
   48.9455  -24.5656 -103.1155 N   0  0  0  0  0  0  0  0  0  0  0  0
  2  1  1  6  0  0  0
  2  3  1  0  0  0  0
  2  5  1  0  0  0  0
  3  4  1  0  0  0  0
  3 17  1  0  0  0  0
  5  6  1  0  0  0  0
  7  6  1  6  0  0  0
  7  8  1  0  0  0  0
  7  9  1  0  0  0  0
 10  9  1  6  0  0  0
 10 11  1  0  0  0  0
 10 12  1  0  0  0  0
 11 16  1  0  0  0  0
 12 13  1  1  0  0  0
 12 14  1  0  0  0  0
 14 15  1  6  0  0  0
 14 16  1  0  0  0  0
 16 27  1  6  0  0  0
 18 19  2  0  0  0  0
 18 23  1  0  0  0  0
 19 20  1  0  0  0  0
 20 21  2  0  0  0  0
 21 22  1  0  0  0  0
 21 27  1  0  0  0  0
 22 23  2  0  0  0  0
 22 25  1  0  0  0  0
 23 24  1  0  0  0  0
 25 26  2  0  0  0  0
 26 27  1  0  0  0  0
M  END
>  <CHROM.1>
131.29367678,-176.27739304,-86.47057879,-80.87753881,160.09712020,59.96939412
-76.52553316,48.42431210,-24.55662806,-105.66319984,-3.10632016,-1.39090667
0.22512922

>  <Name>
ligand

>  <RI>
0

>  <Rbt.Current_Directory>
/home/itssahil/PROJECTS/Mol_Feturizer/Test_systems_manuscript/rnas/4l81

>  <Rbt.Executable>
rbdock ($Id: //depot/dev/client3/rdock/2013.1/src/exe/rbdock.cxx#4 $)

>  <Rbt.Library>
libRbt.so (2013.1, Build901 2013/11/27)

>  <Rbt.Parameter_File>
/export/apps/rDock/src/rDock_2013.1_src/data/scripts/dock_solv.prm

>  <Rbt.Receptor>
prm/pocket_docking_8.prm

>  <SCORE>
-9.75066

>  <SCORE.INTER>
-7.625

>  <SCORE.INTER.CONST>
1

>  <SCORE.INTER.POLAR>
0

>  <SCORE.INTER.ROT>
7

>  <SCORE.INTER.SOLV>
13.443

>  <SCORE.INTER.VDW>
-17.831

>  <SCORE.INTER.norm>
-0.282407

>  <SCORE.INTRA>
-2.12566

>  <SCORE.INTRA.DIHEDRAL>
-1.99497

>  <SCORE.INTRA.DIHEDRAL.0>
8.34559

>  <SCORE.INTRA.POLAR>
0

>  <SCORE.INTRA.POLAR.0>
0

>  <SCORE.INTRA.REPUL>
0

>  <SCORE.INTRA.REPUL.0>
0

>  <SCORE.INTRA.SOLV>
-1.1886

>  <SCORE.INTRA.SOLV.lig_0>
-48.829

>  <SCORE.INTRA.VDW>
-0.533878

>  <SCORE.INTRA.VDW.0>
-1.77092

>  <SCORE.INTRA.norm>
-0.0787282

>  <SCORE.RESTR>
0

>  <SCORE.RESTR.CAVITY>
0

>  <SCORE.RESTR.norm>
0

>  <SCORE.SYSTEM>
0

>  <SCORE.SYSTEM.CONST>
0

>  <SCORE.SYSTEM.DIHEDRAL>
0

>  <SCORE.SYSTEM.SOLV>
0

>  <SCORE.SYSTEM.norm>
0

>  <SCORE.heavy>
27

>  <SCORE.norm>
-0.361136

>  <RMSD>
7.089

$$$$
ligand
 OpenBabel02271912153D
libRbt.so/2013.1/901 2013/11/27
 27 29  0  0  0  0  0  0  0  0999 V2000
   51.9561  -32.6755 -102.2660 N   0  0  0  0  0  0  0  0  0  0  0  0
   50.5404  -32.7734 -102.6388 C   0  0  2  0  0  0  0  0  0  0  0  0
   50.4280  -33.1617 -104.0980 C   0  0  0  0  0  0  0  0  0  0  0  0
   51.0410  -32.5357 -104.9495 O   0  0  0  0  0  0  0  0  0  0  0  0
   49.8121  -31.4399 -102.4230 C   0  0  0  0  0  0  0  0  0  0  0  0
   48.3462  -31.5538 -102.8168 C   0  0  0  0  0  0  0  0  0  0  0  0
   47.4538  -29.9525 -102.7629 S   0  0  2  0  0  0  0  0  0  0  0  0
   45.8332  -30.3277 -103.5060 C   0  0  0  0  0  0  0  0  0  0  0  0
   48.2653  -29.2488 -104.1964 C   0  0  0  0  0  0  0  0  0  0  0  0
   49.4937  -28.4445 -103.8633 C   0  0  1  0  0  0  0  0  0  0  0  0
   50.1441  -28.1003 -105.0984 O   0  0  0  0  0  0  0  0  0  0  0  0
   48.9263  -27.1931 -103.3251 C   0  0  1  0  0  0  0  0  0  0  0  0
   48.9178  -27.2450 -101.8994 O   0  0  0  0  0  0  0  0  0  0  0  0
   49.9092  -26.1652 -103.7934 C   0  0  1  0  0  0  0  0  0  0  0  0
   50.9877  -26.0329 -102.8443 O   0  0  0  0  0  0  0  0  0  0  0  0
   50.4627  -26.6869 -105.1534 C   0  0  2  0  0  0  0  0  0  0  0  0
   49.7530  -34.1201 -104.4309 O   0  0  0  0  0  0  0  0  0  0  0  0
   47.8308  -27.6041 -109.6733 N   0  0  0  0  0  0  0  0  0  0  0  0
   48.2860  -28.5174 -108.7808 C   0  0  0  0  0  0  0  0  0  0  0  0
   48.9080  -28.1479 -107.6417 N   0  0  0  0  0  0  0  0  0  0  0  0
   49.1765  -26.8551 -107.3964 C   0  0  0  0  0  0  0  0  0  0  0  0
   48.7463  -25.8514 -108.3399 C   0  0  0  0  0  0  0  0  0  0  0  0
   48.0431  -26.2818 -109.5042 C   0  0  0  0  0  0  0  0  0  0  0  0
   47.5947  -25.3745 -110.4426 N   0  0  0  0  0  0  0  0  0  0  0  0
   49.1390  -24.6636 -107.8650 N   0  0  0  0  0  0  0  0  0  0  0  0
   49.7671  -24.8448 -106.7416 C   0  0  0  0  0  0  0  0  0  0  0  0
   49.8157  -26.1754 -106.3967 N   0  0  0  0  0  0  0  0  0  0  0  0
  2  1  1  6  0  0  0
  2  3  1  0  0  0  0
  2  5  1  0  0  0  0
  3  4  1  0  0  0  0
  3 17  1  0  0  0  0
  5  6  1  0  0  0  0
  7  6  1  6  0  0  0
  7  8  1  0  0  0  0
  7  9  1  0  0  0  0
 10  9  1  6  0  0  0
 10 11  1  0  0  0  0
 10 12  1  0  0  0  0
 11 16  1  0  0  0  0
 12 13  1  1  0  0  0
 12 14  1  0  0  0  0
 14 15  1  1  0  0  0
 14 16  1  0  0  0  0
 16 27  1  6  0  0  0
 18 19  2  0  0  0  0
 18 23  1  0  0  0  0
 19 20  1  0  0  0  0
 20 21  2  0  0  0  0
 21 22  1  0  0  0  0
 21 27  1  0  0  0  0
 22 23  2  0  0  0  0
 22 25  1  0  0  0  0
 23 24  1  0  0  0  0
 25 26  2  0  0  0  0
 26 27  1  0  0  0  0
M  END
>  <CHROM.1>
-51.33731421,179.84529016,-173.60926626,171.80598334,-92.27156577,172.09450479
-6.97339509,49.17272663,-28.72050922,-105.08418940,0.83438848,1.39538752
-3.12616233

>  <Name>
ligand

>  <RI>
0

>  <Rbt.Current_Directory>
/home/itssahil/PROJECTS/Mol_Feturizer/Test_systems_manuscript/rnas/4l81

>  <Rbt.Executable>
rbdock ($Id: //depot/dev/client3/rdock/2013.1/src/exe/rbdock.cxx#4 $)

>  <Rbt.Library>
libRbt.so (2013.1, Build901 2013/11/27)

>  <Rbt.Parameter_File>
/export/apps/rDock/src/rDock_2013.1_src/data/scripts/dock_solv.prm

>  <Rbt.Receptor>
prm/pocket_docking_6.prm

>  <SCORE>
-12.3528

>  <SCORE.INTER>
-9.52051

>  <SCORE.INTER.CONST>
1

>  <SCORE.INTER.POLAR>
0

>  <SCORE.INTER.ROT>
7

>  <SCORE.INTER.SOLV>
12.7585

>  <SCORE.INTER.VDW>
-18.8665

>  <SCORE.INTER.norm>
-0.352612

>  <SCORE.INTRA>
-2.83225

>  <SCORE.INTRA.DIHEDRAL>
-3.07846

>  <SCORE.INTRA.DIHEDRAL.0>
8.34559

>  <SCORE.INTRA.POLAR>
0

>  <SCORE.INTRA.POLAR.0>
0

>  <SCORE.INTRA.REPUL>
0

>  <SCORE.INTRA.REPUL.0>
0

>  <SCORE.INTRA.SOLV>
-1.03751

>  <SCORE.INTRA.SOLV.lig_0>
-48.829

>  <SCORE.INTRA.VDW>
-0.774269

>  <SCORE.INTRA.VDW.0>
-1.77092

>  <SCORE.INTRA.norm>
-0.104898

>  <SCORE.RESTR>
0

>  <SCORE.RESTR.CAVITY>
0

>  <SCORE.RESTR.norm>
0

>  <SCORE.SYSTEM>
0

>  <SCORE.SYSTEM.CONST>
0

>  <SCORE.SYSTEM.DIHEDRAL>
0

>  <SCORE.SYSTEM.SOLV>
0

>  <SCORE.SYSTEM.norm>
0

>  <SCORE.heavy>
27

>  <SCORE.norm>
-0.45751

>  <RMSD>
7.107

$$$$
ligand
 OpenBabel02271912153D
libRbt.so/2013.1/901 2013/11/27
 27 29  0  0  0  0  0  0  0  0999 V2000
   49.0549  -32.6244 -104.7754 N   0  0  0  0  0  0  0  0  0  0  0  0
   48.5625  -31.5298 -103.9316 C   0  0  2  0  0  0  0  0  0  0  0  0
   47.7469  -32.0995 -102.7901 C   0  0  0  0  0  0  0  0  0  0  0  0
   47.8836  -31.6605 -101.6582 O   0  0  0  0  0  0  0  0  0  0  0  0
   47.6844  -30.5585 -104.7321 C   0  0  0  0  0  0  0  0  0  0  0  0
   47.8954  -29.1259 -104.2631 C   0  0  0  0  0  0  0  0  0  0  0  0
   47.4106  -28.8558 -102.5152 S   0  0  2  0  0  0  0  0  0  0  0  0
   45.6345  -29.2607 -102.4846 C   0  0  0  0  0  0  0  0  0  0  0  0
   47.2913  -27.0727 -102.6378 C   0  0  0  0  0  0  0  0  0  0  0  0
   48.6165  -26.3674 -102.5229 C   0  0  1  0  0  0  0  0  0  0  0  0
   49.4712  -26.8614 -103.5681 O   0  0  0  0  0  0  0  0  0  0  0  0
   48.2764  -24.9769 -102.8813 C   0  0  1  0  0  0  0  0  0  0  0  0
   48.0843  -24.2094 -101.6941 O   0  0  0  0  0  0  0  0  0  0  0  0
   49.5102  -24.5161 -103.5938 C   0  0  1  0  0  0  0  0  0  0  0  0
   50.4683  -23.9925 -102.6509 O   0  0  0  0  0  0  0  0  0  0  0  0
   50.0963  -25.7762 -104.2986 C   0  0  2  0  0  0  0  0  0  0  0  0
   46.9254  -32.9756 -102.9962 O   0  0  0  0  0  0  0  0  0  0  0  0
   48.4639  -23.8351 -108.9639 N   0  0  0  0  0  0  0  0  0  0  0  0
   48.6330  -23.1603 -107.8004 C   0  0  0  0  0  0  0  0  0  0  0  0
   49.0971  -23.7678 -106.6884 N   0  0  0  0  0  0  0  0  0  0  0  0
   49.3244  -25.0913 -106.6754 C   0  0  0  0  0  0  0  0  0  0  0  0
   49.1182  -25.8568 -107.8812 C   0  0  0  0  0  0  0  0  0  0  0  0
   48.6798  -25.1648 -109.0492 C   0  0  0  0  0  0  0  0  0  0  0  0
   48.4722  -25.8335 -110.2385 N   0  0  0  0  0  0  0  0  0  0  0  0
   49.4076  -27.1323 -107.5980 N   0  0  0  0  0  0  0  0  0  0  0  0
   49.7574  -27.2184 -106.3492 C   0  0  0  0  0  0  0  0  0  0  0  0
   49.7327  -25.9907 -105.7297 N   0  0  0  0  0  0  0  0  0  0  0  0
  2  1  1  6  0  0  0
  2  3  1  0  0  0  0
  2  5  1  0  0  0  0
  3  4  1  0  0  0  0
  3 17  1  0  0  0  0
  5  6  1  0  0  0  0
  7  6  1  6  0  0  0
  7  8  1  0  0  0  0
  7  9  1  0  0  0  0
 10  9  1  6  0  0  0
 10 11  1  0  0  0  0
 10 12  1  0  0  0  0
 11 16  1  0  0  0  0
 12 13  1  1  0  0  0
 12 14  1  0  0  0  0
 14 15  1  1  0  0  0
 14 16  1  0  0  0  0
 16 27  1  6  0  0  0
 18 19  2  0  0  0  0
 18 23  1  0  0  0  0
 19 20  1  0  0  0  0
 20 21  2  0  0  0  0
 21 22  1  0  0  0  0
 21 27  1  0  0  0  0
 22 23  2  0  0  0  0
 22 25  1  0  0  0  0
 23 24  1  0  0  0  0
 25 26  2  0  0  0  0
 26 27  1  0  0  0  0
M  END
>  <CHROM.1>
136.96201187,-143.90190209,-62.72306301,-60.82467302,-81.74029006,58.49009586
136.81306134,48.49015125,-27.37186833,-104.63590127,3.04153916,1.37922473
1.10692222

>  <Name>
ligand

>  <RI>
0

>  <Rbt.Current_Directory>
/home/itssahil/PROJECTS/Mol_Feturizer/Test_systems_manuscript/rnas/4l81

>  <Rbt.Executable>
rbdock ($Id: //depot/dev/client3/rdock/2013.1/src/exe/rbdock.cxx#4 $)

>  <Rbt.Library>
libRbt.so (2013.1, Build901 2013/11/27)

>  <Rbt.Parameter_File>
/export/apps/rDock/src/rDock_2013.1_src/data/scripts/dock_solv.prm

>  <Rbt.Receptor>
prm/pocket_docking_7.prm

>  <SCORE>
-8.71353

>  <SCORE.INTER>
-6.47151

>  <SCORE.INTER.CONST>
1

>  <SCORE.INTER.POLAR>
0

>  <SCORE.INTER.ROT>
7

>  <SCORE.INTER.SOLV>
11.3968

>  <SCORE.INTER.VDW>
-16.3799

>  <SCORE.INTER.norm>
-0.239686

>  <SCORE.INTRA>
-2.24203

>  <SCORE.INTRA.DIHEDRAL>
-0.433899

>  <SCORE.INTRA.DIHEDRAL.0>
8.34559

>  <SCORE.INTRA.POLAR>
0

>  <SCORE.INTRA.POLAR.0>
0

>  <SCORE.INTRA.REPUL>
0

>  <SCORE.INTRA.REPUL.0>
0

>  <SCORE.INTRA.SOLV>
-1.02302

>  <SCORE.INTRA.SOLV.lig_0>
-48.829

>  <SCORE.INTRA.VDW>
-1.51357

>  <SCORE.INTRA.VDW.0>
-1.77092

>  <SCORE.INTRA.norm>
-0.083038

>  <SCORE.RESTR>
0

>  <SCORE.RESTR.CAVITY>
0

>  <SCORE.RESTR.norm>
0

>  <SCORE.SYSTEM>
0

>  <SCORE.SYSTEM.CONST>
0

>  <SCORE.SYSTEM.DIHEDRAL>
0

>  <SCORE.SYSTEM.SOLV>
0

>  <SCORE.SYSTEM.norm>
0

>  <SCORE.heavy>
27

>  <SCORE.norm>
-0.322723

>  <RMSD>
7.129

$$$$
ligand
 OpenBabel02271912153D
libRbt.so/2013.1/901 2013/11/27
 27 29  0  0  0  0  0  0  0  0999 V2000
   49.7683  -33.4616 -105.7055 N   0  0  0  0  0  0  0  0  0  0  0  0
   49.4650  -33.4184 -104.2706 C   0  0  2  0  0  0  0  0  0  0  0  0
   47.9882  -33.1474 -104.0743 C   0  0  0  0  0  0  0  0  0  0  0  0
   47.3180  -32.7008 -104.9930 O   0  0  0  0  0  0  0  0  0  0  0  0
   50.2692  -32.3198 -103.5622 C   0  0  0  0  0  0  0  0  0  0  0  0
   50.0022  -30.9609 -104.1937 C   0  0  0  0  0  0  0  0  0  0  0  0
   50.7513  -29.5689 -103.2638 S   0  0  2  0  0  0  0  0  0  0  0  0
   49.7679  -29.4842 -101.7324 C   0  0  0  0  0  0  0  0  0  0  0  0
   49.9354  -28.2742 -104.1949 C   0  0  0  0  0  0  0  0  0  0  0  0
   50.3033  -26.8838 -103.7495 C   0  0  1  0  0  0  0  0  0  0  0  0
   50.8193  -26.1771 -104.8902 O   0  0  0  0  0  0  0  0  0  0  0  0
   48.9907  -26.2833 -103.4427 C   0  0  1  0  0  0  0  0  0  0  0  0
   48.7434  -26.3631 -102.0399 O   0  0  0  0  0  0  0  0  0  0  0  0
   49.1867  -24.8548 -103.8468 C   0  0  1  0  0  0  0  0  0  0  0  0
   49.7410  -24.0953 -102.7526 O   0  0  0  0  0  0  0  0  0  0  0  0
   50.1921  -24.8782 -105.0370 C   0  0  2  0  0  0  0  0  0  0  0  0
   47.4503  -33.4031 -103.0112 O   0  0  0  0  0  0  0  0  0  0  0  0
   48.4963  -27.4826 -109.3428 N   0  0  0  0  0  0  0  0  0  0  0  0
   49.0252  -28.0100 -108.2114 C   0  0  0  0  0  0  0  0  0  0  0  0
   49.3805  -27.2349 -107.1655 N   0  0  0  0  0  0  0  0  0  0  0  0
   49.3025  -25.8967 -107.2473 C   0  0  0  0  0  0  0  0  0  0  0  0
   48.7836  -25.2900 -108.4494 C   0  0  0  0  0  0  0  0  0  0  0  0
   48.3679  -26.1493 -109.5098 C   0  0  0  0  0  0  0  0  0  0  0  0
   47.8533  -25.6363 -110.6831 N   0  0  0  0  0  0  0  0  0  0  0  0
   48.8182  -23.9639 -108.2736 N   0  0  0  0  0  0  0  0  0  0  0  0
   49.3103  -23.7066 -107.0984 C   0  0  0  0  0  0  0  0  0  0  0  0
   49.6210  -24.8592 -106.4153 N   0  0  0  0  0  0  0  0  0  0  0  0
  2  1  1  6  0  0  0
  2  3  1  0  0  0  0
  2  5  1  0  0  0  0
  3  4  1  0  0  0  0
  3 17  1  0  0  0  0
  5  6  1  0  0  0  0
  7  6  1  6  0  0  0
  7  8  1  0  0  0  0
  7  9  1  0  0  0  0
 10  9  1  6  0  0  0
 10 11  1  0  0  0  0
 10 12  1  0  0  0  0
 11 16  1  0  0  0  0
 12 13  1  1  0  0  0
 12 14  1  0  0  0  0
 14 15  1  1  0  0  0
 14 16  1  0  0  0  0
 16 27  1  6  0  0  0
 18 19  2  0  0  0  0
 18 23  1  0  0  0  0
 19 20  1  0  0  0  0
 20 21  2  0  0  0  0
 21 22  1  0  0  0  0
 21 27  1  0  0  0  0
 22 23  2  0  0  0  0
 22 25  1  0  0  0  0
 23 24  1  0  0  0  0
 25 26  2  0  0  0  0
 26 27  1  0  0  0  0
M  END
>  <CHROM.1>
-17.03995984,57.11044503,172.31388694,-69.79060196,-179.14739816,123.48171386
20.68883965,49.31539402,-28.07614269,-105.24698007,1.57785311,1.32718862
2.68639403

>  <Name>
ligand

>  <RI>
0

>  <Rbt.Current_Directory>
/home/itssahil/PROJECTS/Mol_Feturizer/Test_systems_manuscript/rnas/4l81

>  <Rbt.Executable>
rbdock ($Id: //depot/dev/client3/rdock/2013.1/src/exe/rbdock.cxx#4 $)

>  <Rbt.Library>
libRbt.so (2013.1, Build901 2013/11/27)

>  <Rbt.Parameter_File>
/export/apps/rDock/src/rDock_2013.1_src/data/scripts/dock_solv.prm

>  <Rbt.Receptor>
prm/pocket_docking_7.prm

>  <SCORE>
-15.2883

>  <SCORE.INTER>
-14.4697

>  <SCORE.INTER.CONST>
1

>  <SCORE.INTER.POLAR>
0

>  <SCORE.INTER.ROT>
7

>  <SCORE.INTER.SOLV>
10.9711

>  <SCORE.INTER.VDW>
-21.5702

>  <SCORE.INTER.norm>
-0.535914

>  <SCORE.INTRA>
-0.818649

>  <SCORE.INTRA.DIHEDRAL>
0.374594

>  <SCORE.INTRA.DIHEDRAL.0>
8.34559

>  <SCORE.INTRA.POLAR>
0

>  <SCORE.INTRA.POLAR.0>
0

>  <SCORE.INTRA.REPUL>
0

>  <SCORE.INTRA.REPUL.0>
0

>  <SCORE.INTRA.SOLV>
-0.397944

>  <SCORE.INTRA.SOLV.lig_0>
-48.829

>  <SCORE.INTRA.VDW>
-0.806974

>  <SCORE.INTRA.VDW.0>
-1.77092

>  <SCORE.INTRA.norm>
-0.0303203

>  <SCORE.RESTR>
0

>  <SCORE.RESTR.CAVITY>
0

>  <SCORE.RESTR.norm>
0

>  <SCORE.SYSTEM>
0

>  <SCORE.SYSTEM.CONST>
0

>  <SCORE.SYSTEM.DIHEDRAL>
0

>  <SCORE.SYSTEM.SOLV>
0

>  <SCORE.SYSTEM.norm>
0

>  <SCORE.heavy>
27

>  <SCORE.norm>
-0.566234

>  <RMSD>
7.218

$$$$
ligand
 OpenBabel02271912153D
libRbt.so/2013.1/901 2013/11/27
 27 29  0  0  0  0  0  0  0  0999 V2000
   50.3209  -34.5817 -105.2340 N   0  0  0  0  0  0  0  0  0  0  0  0
   49.6721  -33.2659 -105.2569 C   0  0  2  0  0  0  0  0  0  0  0  0
   49.5746  -32.7755 -106.6861 C   0  0  0  0  0  0  0  0  0  0  0  0
   48.6407  -32.0668 -107.0301 O   0  0  0  0  0  0  0  0  0  0  0  0
   50.4612  -32.2392 -104.4330 C   0  0  0  0  0  0  0  0  0  0  0  0
   49.7267  -30.9070 -104.3814 C   0  0  0  0  0  0  0  0  0  0  0  0
   50.6789  -29.5857 -103.5383 S   0  0  2  0  0  0  0  0  0  0  0  0
   50.4457  -29.9390 -101.7662 C   0  0  0  0  0  0  0  0  0  0  0  0
   49.4332  -28.3141 -103.7386 C   0  0  0  0  0  0  0  0  0  0  0  0
   49.9215  -26.9297 -103.4043 C   0  0  1  0  0  0  0  0  0  0  0  0
   50.5741  -26.3985 -104.5700 O   0  0  0  0  0  0  0  0  0  0  0  0
   48.6653  -26.1720 -103.2451 C   0  0  1  0  0  0  0  0  0  0  0  0
   48.3315  -26.0831 -101.8609 O   0  0  0  0  0  0  0  0  0  0  0  0
   49.0353  -24.8192 -103.7697 C   0  0  1  0  0  0  0  0  0  0  0  0
   49.6045  -24.0117 -102.7183 O   0  0  0  0  0  0  0  0  0  0  0  0
   50.0986  -25.0648 -104.8820 C   0  0  2  0  0  0  0  0  0  0  0  0
   50.4420  -33.0555 -107.4948 O   0  0  0  0  0  0  0  0  0  0  0  0
   48.4623  -27.9179 -109.0509 N   0  0  0  0  0  0  0  0  0  0  0  0
   48.8822  -28.3779 -107.8468 C   0  0  0  0  0  0  0  0  0  0  0  0
   49.2342  -27.5393 -106.8499 N   0  0  0  0  0  0  0  0  0  0  0  0
   49.2641  -26.2117 -107.0504 C   0  0  0  0  0  0  0  0  0  0  0  0
   48.8643  -25.6801 -108.3311 C   0  0  0  0  0  0  0  0  0  0  0  0
   48.4466  -26.5993 -109.3390 C   0  0  0  0  0  0  0  0  0  0  0  0
   48.0422  -26.1585 -110.5828 N   0  0  0  0  0  0  0  0  0  0  0  0
   48.9902  -24.3494 -108.2671 N   0  0  0  0  0  0  0  0  0  0  0  0
   49.4312  -24.0233 -107.0887 C   0  0  0  0  0  0  0  0  0  0  0  0
   49.6121  -25.1290 -106.2910 N   0  0  0  0  0  0  0  0  0  0  0  0
  2  1  1  6  0  0  0
  2  3  1  0  0  0  0
  2  5  1  0  0  0  0
  3  4  1  0  0  0  0
  3 17  1  0  0  0  0
  5  6  1  0  0  0  0
  7  6  1  6  0  0  0
  7  8  1  0  0  0  0
  7  9  1  0  0  0  0
 10  9  1  6  0  0  0
 10 11  1  0  0  0  0
 10 12  1  0  0  0  0
 11 16  1  0  0  0  0
 12 13  1  1  0  0  0
 12 14  1  0  0  0  0
 14 15  1  1  0  0  0
 14 16  1  0  0  0  0
 16 27  1  6  0  0  0
 18 19  2  0  0  0  0
 18 23  1  0  0  0  0
 19 20  1  0  0  0  0
 20 21  2  0  0  0  0
 21 22  1  0  0  0  0
 21 27  1  0  0  0  0
 22 23  2  0  0  0  0
 22 25  1  0  0  0  0
 23 24  1  0  0  0  0
 25 26  2  0  0  0  0
 26 27  1  0  0  0  0
M  END
>  <CHROM.1>
148.50494713,-175.89706543,-174.91676733,-78.98535780,-168.63869798,84.32416655
18.85859488,49.51179227,-28.19749625,-105.55178674,0.93256566,1.37752059
-2.60179272

>  <Name>
ligand

>  <RI>
0

>  <Rbt.Current_Directory>
/home/itssahil/PROJECTS/Mol_Feturizer/Test_systems_manuscript/rnas/4l81

>  <Rbt.Executable>
rbdock ($Id: //depot/dev/client3/rdock/2013.1/src/exe/rbdock.cxx#4 $)

>  <Rbt.Library>
libRbt.so (2013.1, Build901 2013/11/27)

>  <Rbt.Parameter_File>
/export/apps/rDock/src/rDock_2013.1_src/data/scripts/dock_solv.prm

>  <Rbt.Receptor>
prm/pocket_docking_8.prm

>  <SCORE>
-13.7373

>  <SCORE.INTER>
-10.7728

>  <SCORE.INTER.CONST>
1

>  <SCORE.INTER.POLAR>
0

>  <SCORE.INTER.ROT>
7

>  <SCORE.INTER.SOLV>
12.9671

>  <SCORE.INTER.VDW>
-19.7709

>  <SCORE.INTER.norm>
-0.398992

>  <SCORE.INTRA>
-2.96451

>  <SCORE.INTRA.DIHEDRAL>
-1.93623

>  <SCORE.INTRA.DIHEDRAL.0>
8.34559

>  <SCORE.INTRA.POLAR>
0

>  <SCORE.INTRA.POLAR.0>
0

>  <SCORE.INTRA.REPUL>
0

>  <SCORE.INTRA.REPUL.0>
0

>  <SCORE.INTRA.SOLV>
-1.32409

>  <SCORE.INTRA.SOLV.lig_0>
-48.829

>  <SCORE.INTRA.VDW>
-1.33436

>  <SCORE.INTRA.VDW.0>
-1.77092

>  <SCORE.INTRA.norm>
-0.109797

>  <SCORE.RESTR>
0

>  <SCORE.RESTR.CAVITY>
0

>  <SCORE.RESTR.norm>
0

>  <SCORE.SYSTEM>
0

>  <SCORE.SYSTEM.CONST>
0

>  <SCORE.SYSTEM.DIHEDRAL>
0

>  <SCORE.SYSTEM.SOLV>
0

>  <SCORE.SYSTEM.norm>
0

>  <SCORE.heavy>
27

>  <SCORE.norm>
-0.508789

>  <RMSD>
7.248

$$$$
ligand
 OpenBabel02271912153D
libRbt.so/2013.1/901 2013/11/27
 27 29  0  0  0  0  0  0  0  0999 V2000
   48.3933  -25.8096 -111.5686 N   0  0  0  0  0  0  0  0  0  0  0  0
   47.5246  -25.2774 -110.5127 C   0  0  2  0  0  0  0  0  0  0  0  0
   47.5978  -23.7650 -110.5127 C   0  0  0  0  0  0  0  0  0  0  0  0
   48.6413  -23.2003 -110.8040 O   0  0  0  0  0  0  0  0  0  0  0  0
   47.9446  -25.7943 -109.1300 C   0  0  0  0  0  0  0  0  0  0  0  0
   47.9157  -27.3156 -109.0891 C   0  0  0  0  0  0  0  0  0  0  0  0
   48.1998  -28.0018 -107.4122 S   0  0  2  0  0  0  0  0  0  0  0  0
   48.0175  -29.8006 -107.6372 C   0  0  0  0  0  0  0  0  0  0  0  0
   46.5628  -27.6284 -106.7880 C   0  0  0  0  0  0  0  0  0  0  0  0
   46.4291  -27.7988 -105.2981 C   0  0  1  0  0  0  0  0  0  0  0  0
   47.3984  -26.9446 -104.6675 O   0  0  0  0  0  0  0  0  0  0  0  0
   45.1058  -27.2074 -105.0212 C   0  0  1  0  0  0  0  0  0  0  0  0
   44.1256  -28.2412 -104.9436 O   0  0  0  0  0  0  0  0  0  0  0  0
   45.3044  -26.5889 -103.6720 C   0  0  1  0  0  0  0  0  0  0  0  0
   45.0413  -27.5551 -102.6334 O   0  0  0  0  0  0  0  0  0  0  0  0
   46.7975  -26.1466 -103.6168 C   0  0  2  0  0  0  0  0  0  0  0  0
   46.6098  -23.0998 -110.2551 O   0  0  0  0  0  0  0  0  0  0  0  0
   46.1984  -21.9728 -106.8446 N   0  0  0  0  0  0  0  0  0  0  0  0
   45.6755  -23.2149 -106.9921 C   0  0  0  0  0  0  0  0  0  0  0  0
   45.8712  -24.1815 -106.0710 N   0  0  0  0  0  0  0  0  0  0  0  0
   46.6705  -23.9676 -105.0133 C   0  0  0  0  0  0  0  0  0  0  0  0
   47.2815  -22.6720 -104.8382 C   0  0  0  0  0  0  0  0  0  0  0  0
   47.0033  -21.6620 -105.8065 C   0  0  0  0  0  0  0  0  0  0  0  0
   47.5465  -20.3982 -105.6950 N   0  0  0  0  0  0  0  0  0  0  0  0
   48.0221  -22.7278 -103.7250 N   0  0  0  0  0  0  0  0  0  0  0  0
   47.9298  -23.9202 -103.2159 C   0  0  0  0  0  0  0  0  0  0  0  0
   47.1037  -24.7277 -103.9623 N   0  0  0  0  0  0  0  0  0  0  0  0
  2  1  1  6  0  0  0
  2  3  1  0  0  0  0
  2  5  1  0  0  0  0
  3  4  1  0  0  0  0
  3 17  1  0  0  0  0
  5  6  1  0  0  0  0
  7  6  1  6  0  0  0
  7  8  1  0  0  0  0
  7  9  1  0  0  0  0
 10  9  1  6  0  0  0
 10 11  1  0  0  0  0
 10 12  1  0  0  0  0
 11 16  1  0  0  0  0
 12 13  1  1  0  0  0
 12 14  1  0  0  0  0
 14 15  1  1  0  0  0
 14 16  1  0  0  0  0
 16 27  1  6  0  0  0
 18 19  2  0  0  0  0
 18 23  1  0  0  0  0
 19 20  1  0  0  0  0
 20 21  2  0  0  0  0
 21 22  1  0  0  0  0
 21 27  1  0  0  0  0
 22 23  2  0  0  0  0
 22 25  1  0  0  0  0
 23 24  1  0  0  0  0
 25 26  2  0  0  0  0
 26 27  1  0  0  0  0
M  END
>  <CHROM.1>
-33.74999400,-57.98697646,-172.72857332,176.83828656,-168.78192914,57.90246982
66.60419529,46.97596488,-25.37307288,-106.58217450,-0.14858479,-1.30932732
-2.92417271

>  <Name>
ligand

>  <RI>
0

>  <Rbt.Current_Directory>
/home/itssahil/PROJECTS/Mol_Feturizer/Test_systems_manuscript/rnas/4l81

>  <Rbt.Executable>
rbdock ($Id: //depot/dev/client3/rdock/2013.1/src/exe/rbdock.cxx#4 $)

>  <Rbt.Library>
libRbt.so (2013.1, Build901 2013/11/27)

>  <Rbt.Parameter_File>
/export/apps/rDock/src/rDock_2013.1_src/data/scripts/dock_solv.prm

>  <Rbt.Receptor>
prm/pocket_docking_7.prm

>  <SCORE>
-14.8909

>  <SCORE.INTER>
-10.7391

>  <SCORE.INTER.CONST>
1

>  <SCORE.INTER.POLAR>
0

>  <SCORE.INTER.ROT>
7

>  <SCORE.INTER.SOLV>
11.6458

>  <SCORE.INTER.VDW>
-19.308

>  <SCORE.INTER.norm>
-0.397743

>  <SCORE.INTRA>
-4.1536

>  <SCORE.INTRA.DIHEDRAL>
-3.69836

>  <SCORE.INTRA.DIHEDRAL.0>
8.34559

>  <SCORE.INTRA.POLAR>
0

>  <SCORE.INTRA.POLAR.0>
0

>  <SCORE.INTRA.REPUL>
0

>  <SCORE.INTRA.REPUL.0>
0

>  <SCORE.INTRA.SOLV>
-0.560685

>  <SCORE.INTRA.SOLV.lig_0>
-48.829

>  <SCORE.INTRA.VDW>
-2.02408

>  <SCORE.INTRA.VDW.0>
-1.77092

>  <SCORE.INTRA.norm>
-0.153837

>  <SCORE.RESTR>
0.00180178

>  <SCORE.RESTR.CAVITY>
0.00180178

>  <SCORE.RESTR.norm>
6.67325e-05

>  <SCORE.SYSTEM>
0

>  <SCORE.SYSTEM.CONST>
0

>  <SCORE.SYSTEM.DIHEDRAL>
0

>  <SCORE.SYSTEM.SOLV>
0

>  <SCORE.SYSTEM.norm>
0

>  <SCORE.heavy>
27

>  <SCORE.norm>
-0.551514

>  <RMSD>
7.308

$$$$
ligand
 OpenBabel02271912153D
libRbt.so/2013.1/901 2013/11/27
 27 29  0  0  0  0  0  0  0  0999 V2000
   47.4916  -29.1770 -100.1629 N   0  0  0  0  0  0  0  0  0  0  0  0
   46.2848  -28.9017 -100.9506 C   0  0  2  0  0  0  0  0  0  0  0  0
   45.0978  -29.5949 -100.3154 C   0  0  0  0  0  0  0  0  0  0  0  0
   45.2658  -30.5778  -99.6094 O   0  0  0  0  0  0  0  0  0  0  0  0
   46.4346  -29.3983 -102.3950 C   0  0  0  0  0  0  0  0  0  0  0  0
   45.3226  -28.8458 -103.2754 C   0  0  0  0  0  0  0  0  0  0  0  0
   45.4724  -27.0451 -103.5889 S   0  0  2  0  0  0  0  0  0  0  0  0
   44.3217  -26.7424 -104.9687 C   0  0  0  0  0  0  0  0  0  0  0  0
   47.0017  -27.1529 -104.5155 C   0  0  0  0  0  0  0  0  0  0  0  0
   46.9954  -28.2254 -105.5723 C   0  0  1  0  0  0  0  0  0  0  0  0
   46.5242  -27.6362 -106.7961 O   0  0  0  0  0  0  0  0  0  0  0  0
   48.4325  -28.4996 -105.7650 C   0  0  1  0  0  0  0  0  0  0  0  0
   48.8078  -29.6463 -105.0036 O   0  0  0  0  0  0  0  0  0  0  0  0
   48.5087  -28.8099 -107.2279 C   0  0  1  0  0  0  0  0  0  0  0  0
   48.2552  -30.2115 -107.4575 O   0  0  0  0  0  0  0  0  0  0  0  0
   47.3988  -27.9535 -107.9080 C   0  0  2  0  0  0  0  0  0  0  0  0
   43.9710  -29.1596 -100.4757 O   0  0  0  0  0  0  0  0  0  0  0  0
   47.3959  -22.6468 -107.7155 N   0  0  0  0  0  0  0  0  0  0  0  0
   46.7771  -23.5060 -106.8689 C   0  0  0  0  0  0  0  0  0  0  0  0
   46.8923  -24.8436 -107.0053 N   0  0  0  0  0  0  0  0  0  0  0  0
   47.5576  -25.3709 -108.0459 C   0  0  0  0  0  0  0  0  0  0  0  0
   48.1977  -24.4926 -108.9953 C   0  0  0  0  0  0  0  0  0  0  0  0
   48.0972  -23.0855 -108.7821 C   0  0  0  0  0  0  0  0  0  0  0  0
   48.6934  -22.1891 -109.6456 N   0  0  0  0  0  0  0  0  0  0  0  0
   48.7777  -25.2631 -109.9230 N   0  0  0  0  0  0  0  0  0  0  0  0
   48.5483  -26.5106 -109.6391 C   0  0  0  0  0  0  0  0  0  0  0  0
   47.8069  -26.6407 -108.4880 N   0  0  0  0  0  0  0  0  0  0  0  0
  2  1  1  1  0  0  0
  2  3  1  0  0  0  0
  2  5  1  0  0  0  0
  3  4  1  0  0  0  0
  3 17  1  0  0  0  0
  5  6  1  0  0  0  0
  7  6  1  6  0  0  0
  7  8  1  0  0  0  0
  7  9  1  0  0  0  0
 10  9  1  1  0  0  0
 10 11  1  0  0  0  0
 10 12  1  0  0  0  0
 11 16  1  0  0  0  0
 12 13  1  1  0  0  0
 12 14  1  0  0  0  0
 14 15  1  1  0  0  0
 14 16  1  0  0  0  0
 16 27  1  1  0  0  0
 18 19  2  0  0  0  0
 18 23  1  0  0  0  0
 19 20  1  0  0  0  0
 20 21  2  0  0  0  0
 21 22  1  0  0  0  0
 21 27  1  0  0  0  0
 22 23  2  0  0  0  0
 22 25  1  0  0  0  0
 23 24  1  0  0  0  0
 25 26  2  0  0  0  0
 26 27  1  0  0  0  0
M  END
>  <CHROM.1>
-24.38728105,-167.56339967,70.28364685,165.87285247,47.14557263,90.80986880
5.85958304,46.94055811,-27.20581559,-105.41228340,2.09324427,-1.02142575
2.58276324

>  <Name>
ligand

>  <RI>
0

>  <Rbt.Current_Directory>
/home/itssahil/PROJECTS/Mol_Feturizer/Test_systems_manuscript/rnas/4l81

>  <Rbt.Executable>
rbdock ($Id: //depot/dev/client3/rdock/2013.1/src/exe/rbdock.cxx#4 $)

>  <Rbt.Library>
libRbt.so (2013.1, Build901 2013/11/27)

>  <Rbt.Parameter_File>
/export/apps/rDock/src/rDock_2013.1_src/data/scripts/dock_solv.prm

>  <Rbt.Receptor>
prm/pocket_docking_7.prm

>  <SCORE>
-8.27049

>  <SCORE.INTER>
-7.27014

>  <SCORE.INTER.CONST>
1

>  <SCORE.INTER.POLAR>
0

>  <SCORE.INTER.ROT>
7

>  <SCORE.INTER.SOLV>
15.2488

>  <SCORE.INTER.VDW>
-18.1964

>  <SCORE.INTER.norm>
-0.269264

>  <SCORE.INTRA>
-1.00035

>  <SCORE.INTRA.DIHEDRAL>
-1.23268

>  <SCORE.INTRA.DIHEDRAL.0>
8.34559

>  <SCORE.INTRA.POLAR>
0

>  <SCORE.INTRA.POLAR.0>
0

>  <SCORE.INTRA.REPUL>
0

>  <SCORE.INTRA.REPUL.0>
0

>  <SCORE.INTRA.SOLV>
-0.784521

>  <SCORE.INTRA.SOLV.lig_0>
-48.829

>  <SCORE.INTRA.VDW>
0.00825192

>  <SCORE.INTRA.VDW.0>
-1.77092

>  <SCORE.INTRA.norm>
-0.03705

>  <SCORE.RESTR>
0

>  <SCORE.RESTR.CAVITY>
0

>  <SCORE.RESTR.norm>
0

>  <SCORE.SYSTEM>
0

>  <SCORE.SYSTEM.CONST>
0

>  <SCORE.SYSTEM.DIHEDRAL>
0

>  <SCORE.SYSTEM.SOLV>
0

>  <SCORE.SYSTEM.norm>
0

>  <SCORE.heavy>
27

>  <SCORE.norm>
-0.306314

>  <RMSD>
7.335

$$$$
ligand
 OpenBabel02271912153D
libRbt.so/2013.1/901 2013/11/27
 27 29  0  0  0  0  0  0  0  0999 V2000
   51.7450  -31.4021 -102.7933 N   0  0  0  0  0  0  0  0  0  0  0  0
   50.5205  -31.9829 -102.2313 C   0  0  2  0  0  0  0  0  0  0  0  0
   49.5915  -32.3889 -103.3561 C   0  0  0  0  0  0  0  0  0  0  0  0
   49.9338  -32.2407 -104.5195 O   0  0  0  0  0  0  0  0  0  0  0  0
   49.7925  -30.9821 -101.3237 C   0  0  0  0  0  0  0  0  0  0  0  0
   49.4255  -29.7211 -102.0932 C   0  0  0  0  0  0  0  0  0  0  0  0
   48.4123  -28.5446 -101.1172 S   0  0  2  0  0  0  0  0  0  0  0  0
   46.7619  -29.3153 -101.0761 C   0  0  0  0  0  0  0  0  0  0  0  0
   48.1485  -27.3844 -102.4564 C   0  0  0  0  0  0  0  0  0  0  0  0
   49.2324  -26.3470 -102.5816 C   0  0  1  0  0  0  0  0  0  0  0  0
   50.0533  -26.7002 -103.7078 O   0  0  0  0  0  0  0  0  0  0  0  0
   48.4814  -25.1384 -102.9726 C   0  0  1  0  0  0  0  0  0  0  0  0
   48.2347  -24.3340 -101.8204 O   0  0  0  0  0  0  0  0  0  0  0  0
   49.4425  -24.4423 -103.8858 C   0  0  1  0  0  0  0  0  0  0  0  0
   50.3292  -23.5931 -103.1282 O   0  0  0  0  0  0  0  0  0  0  0  0
   50.2602  -25.5673 -104.5886 C   0  0  2  0  0  0  0  0  0  0  0  0
   48.5110  -32.8962 -103.1109 O   0  0  0  0  0  0  0  0  0  0  0  0
   48.3381  -24.4042 -109.4002 N   0  0  0  0  0  0  0  0  0  0  0  0
   48.5981  -23.5462 -108.3833 C   0  0  0  0  0  0  0  0  0  0  0  0
   49.1288  -23.9682 -107.2165 N   0  0  0  0  0  0  0  0  0  0  0  0
   49.3358  -25.2759 -106.9917 C   0  0  0  0  0  0  0  0  0  0  0  0
   49.0343  -26.2294 -108.0321 C   0  0  0  0  0  0  0  0  0  0  0  0
   48.5267  -25.7345 -109.2701 C   0  0  0  0  0  0  0  0  0  0  0  0
   48.2265  -26.5898 -110.3107 N   0  0  0  0  0  0  0  0  0  0  0  0
   49.3227  -27.4455 -107.5539 N   0  0  0  0  0  0  0  0  0  0  0  0
   49.7570  -27.3275 -106.3345 C   0  0  0  0  0  0  0  0  0  0  0  0
   49.7947  -26.0121 -105.9346 N   0  0  0  0  0  0  0  0  0  0  0  0
  2  1  1  6  0  0  0
  2  3  1  0  0  0  0
  2  5  1  0  0  0  0
  3  4  1  0  0  0  0
  3 17  1  0  0  0  0
  5  6  1  0  0  0  0
  7  6  1  6  0  0  0
  7  8  1  0  0  0  0
  7  9  1  0  0  0  0
 10  9  1  6  0  0  0
 10 11  1  0  0  0  0
 10 12  1  0  0  0  0
 11 16  1  0  0  0  0
 12 13  1  1  0  0  0
 12 14  1  0  0  0  0
 14 15  1  1  0  0  0
 14 16  1  0  0  0  0
 16 27  1  6  0  0  0
 18 19  2  0  0  0  0
 18 23  1  0  0  0  0
 19 20  1  0  0  0  0
 20 21  2  0  0  0  0
 21 22  1  0  0  0  0
 21 27  1  0  0  0  0
 22 23  2  0  0  0  0
 22 25  1  0  0  0  0
 23 24  1  0  0  0  0
 25 26  2  0  0  0  0
 26 27  1  0  0  0  0
M  END
>  <CHROM.1>
1.80448268,58.88257061,174.51511493,-74.46077130,-87.49846208,104.55464294
154.91438991,49.17882722,-27.49096407,-104.40794885,-1.05037247,1.47895264
-1.25925446

>  <Name>
ligand

>  <RI>
0

>  <Rbt.Current_Directory>
/home/itssahil/PROJECTS/Mol_Feturizer/Test_systems_manuscript/rnas/4l81

>  <Rbt.Executable>
rbdock ($Id: //depot/dev/client3/rdock/2013.1/src/exe/rbdock.cxx#4 $)

>  <Rbt.Library>
libRbt.so (2013.1, Build901 2013/11/27)

>  <Rbt.Parameter_File>
/export/apps/rDock/src/rDock_2013.1_src/data/scripts/dock_solv.prm

>  <Rbt.Receptor>
prm/pocket_docking_7.prm

>  <SCORE>
-10.5989

>  <SCORE.INTER>
-10.4952

>  <SCORE.INTER.CONST>
1

>  <SCORE.INTER.POLAR>
0

>  <SCORE.INTER.ROT>
7

>  <SCORE.INTER.SOLV>
15.9941

>  <SCORE.INTER.VDW>
-20.5948

>  <SCORE.INTER.norm>
-0.388711

>  <SCORE.INTRA>
-0.103695

>  <SCORE.INTRA.DIHEDRAL>
0.471254

>  <SCORE.INTRA.DIHEDRAL.0>
8.34559

>  <SCORE.INTRA.POLAR>
0

>  <SCORE.INTRA.POLAR.0>
0

>  <SCORE.INTRA.REPUL>
0

>  <SCORE.INTRA.REPUL.0>
0

>  <SCORE.INTRA.SOLV>
-0.621807

>  <SCORE.INTRA.SOLV.lig_0>
-48.829

>  <SCORE.INTRA.VDW>
-0.0284185

>  <SCORE.INTRA.VDW.0>
-1.77092

>  <SCORE.INTRA.norm>
-0.00384056

>  <SCORE.RESTR>
0

>  <SCORE.RESTR.CAVITY>
0

>  <SCORE.RESTR.norm>
0

>  <SCORE.SYSTEM>
0

>  <SCORE.SYSTEM.CONST>
0

>  <SCORE.SYSTEM.DIHEDRAL>
0

>  <SCORE.SYSTEM.SOLV>
0

>  <SCORE.SYSTEM.norm>
0

>  <SCORE.heavy>
27

>  <SCORE.norm>
-0.392552

>  <RMSD>
7.347

$$$$
ligand
 OpenBabel02271912153D
libRbt.so/2013.1/901 2013/11/27
 27 29  0  0  0  0  0  0  0  0999 V2000
   48.6170  -28.8274 -100.2450 N   0  0  0  0  0  0  0  0  0  0  0  0
   48.2850  -30.2476 -100.0854 C   0  0  2  0  0  0  0  0  0  0  0  0
   49.3079  -31.0909 -100.8171 C   0  0  0  0  0  0  0  0  0  0  0  0
   50.2870  -31.5199 -100.2255 O   0  0  0  0  0  0  0  0  0  0  0  0
   46.8911  -30.5622 -100.6453 C   0  0  0  0  0  0  0  0  0  0  0  0
   45.8126  -29.8416  -99.8487 C   0  0  0  0  0  0  0  0  0  0  0  0
   44.3246  -29.4380 -100.8419 S   0  0  2  0  0  0  0  0  0  0  0  0
   44.0070  -30.9582 -101.7947 C   0  0  0  0  0  0  0  0  0  0  0  0
   45.1961  -28.4979 -102.0930 C   0  0  0  0  0  0  0  0  0  0  0  0
   44.4754  -28.4325 -103.4133 C   0  0  1  0  0  0  0  0  0  0  0  0
   44.2322  -27.0480 -103.7151 O   0  0  0  0  0  0  0  0  0  0  0  0
   45.5020  -28.8955 -104.3669 C   0  0  1  0  0  0  0  0  0  0  0  0
   45.3049  -30.2802 -104.6482 O   0  0  0  0  0  0  0  0  0  0  0  0
   45.2027  -28.0786 -105.5855 C   0  0  1  0  0  0  0  0  0  0  0  0
   44.2111  -28.7376 -106.4004 O   0  0  0  0  0  0  0  0  0  0  0  0
   44.6426  -26.7203 -105.0665 C   0  0  2  0  0  0  0  0  0  0  0  0
   49.1465  -31.3756 -101.9909 O   0  0  0  0  0  0  0  0  0  0  0  0
   46.5576  -22.0858 -106.8134 N   0  0  0  0  0  0  0  0  0  0  0  0
   45.5706  -22.8340 -107.3647 C   0  0  0  0  0  0  0  0  0  0  0  0
   45.1461  -23.9808 -106.7940 N   0  0  0  0  0  0  0  0  0  0  0  0
   45.7537  -24.4667 -105.6994 C   0  0  0  0  0  0  0  0  0  0  0  0
   46.8369  -23.7233 -105.1022 C   0  0  0  0  0  0  0  0  0  0  0  0
   47.2170  -22.4881 -105.7065 C   0  0  0  0  0  0  0  0  0  0  0  0
   48.2379  -21.7219 -105.1817 N   0  0  0  0  0  0  0  0  0  0  0  0
   47.2628  -24.4212 -104.0428 N   0  0  0  0  0  0  0  0  0  0  0  0
   46.5584  -25.5090 -103.9431 C   0  0  0  0  0  0  0  0  0  0  0  0
   45.6065  -25.5893 -104.9326 N   0  0  0  0  0  0  0  0  0  0  0  0
  2  1  1  6  0  0  0
  2  3  1  0  0  0  0
  2  5  1  0  0  0  0
  3  4  1  0  0  0  0
  3 17  1  0  0  0  0
  5  6  1  0  0  0  0
  7  6  1  1  0  0  0
  7  8  1  0  0  0  0
  7  9  1  0  0  0  0
 10  9  1  1  0  0  0
 10 11  1  0  0  0  0
 10 12  1  0  0  0  0
 11 16  1  0  0  0  0
 12 13  1  6  0  0  0
 12 14  1  0  0  0  0
 14 15  1  6  0  0  0
 14 16  1  0  0  0  0
 16 27  1  1  0  0  0
 18 19  2  0  0  0  0
 18 23  1  0  0  0  0
 19 20  1  0  0  0  0
 20 21  2  0  0  0  0
 21 22  1  0  0  0  0
 21 27  1  0  0  0  0
 22 23  2  0  0  0  0
 22 25  1  0  0  0  0
 23 24  1  0  0  0  0
 25 26  2  0  0  0  0
 26 27  1  0  0  0  0
M  END
>  <CHROM.1>
93.05811796,-64.80919124,150.71384637,44.06493323,156.12292771,120.80635049
-139.92760952,46.20544752,-27.53736535,-103.43067471,-1.44734147,-0.45027016
-0.57253743

>  <Name>
ligand

>  <RI>
0

>  <Rbt.Current_Directory>
/home/itssahil/PROJECTS/Mol_Feturizer/Test_systems_manuscript/rnas/4l81

>  <Rbt.Executable>
rbdock ($Id: //depot/dev/client3/rdock/2013.1/src/exe/rbdock.cxx#4 $)

>  <Rbt.Library>
libRbt.so (2013.1, Build901 2013/11/27)

>  <Rbt.Parameter_File>
/export/apps/rDock/src/rDock_2013.1_src/data/scripts/dock_solv.prm

>  <Rbt.Receptor>
prm/pocket_docking_6.prm

>  <SCORE>
-15.6804

>  <SCORE.INTER>
-19.2725

>  <SCORE.INTER.CONST>
1

>  <SCORE.INTER.POLAR>
0

>  <SCORE.INTER.ROT>
7

>  <SCORE.INTER.SOLV>
13.9259

>  <SCORE.INTER.VDW>
-25.757

>  <SCORE.INTER.norm>
-0.713798

>  <SCORE.INTRA>
3.59216

>  <SCORE.INTRA.DIHEDRAL>
3.60901

>  <SCORE.INTRA.DIHEDRAL.0>
8.34559

>  <SCORE.INTRA.POLAR>
0

>  <SCORE.INTRA.POLAR.0>
0

>  <SCORE.INTRA.REPUL>
0

>  <SCORE.INTRA.REPUL.0>
0

>  <SCORE.INTRA.SOLV>
0.272909

>  <SCORE.INTRA.SOLV.lig_0>
-48.829

>  <SCORE.INTRA.VDW>
1.6512

>  <SCORE.INTRA.VDW.0>
-1.77092

>  <SCORE.INTRA.norm>
0.133043

>  <SCORE.RESTR>
0

>  <SCORE.RESTR.CAVITY>
0

>  <SCORE.RESTR.norm>
0

>  <SCORE.SYSTEM>
0

>  <SCORE.SYSTEM.CONST>
0

>  <SCORE.SYSTEM.DIHEDRAL>
0

>  <SCORE.SYSTEM.SOLV>
0

>  <SCORE.SYSTEM.norm>
0

>  <SCORE.heavy>
27

>  <SCORE.norm>
-0.580755

>  <RMSD>
7.348

$$$$
ligand
 OpenBabel02271912153D
libRbt.so/2013.1/901 2013/11/27
 27 29  0  0  0  0  0  0  0  0999 V2000
   44.2765  -30.5803 -102.9558 N   0  0  0  0  0  0  0  0  0  0  0  0
   45.2729  -30.8635 -101.9167 C   0  0  2  0  0  0  0  0  0  0  0  0
   44.8861  -30.1506 -100.6380 C   0  0  0  0  0  0  0  0  0  0  0  0
   43.9597  -29.3540 -100.6347 O   0  0  0  0  0  0  0  0  0  0  0  0
   46.6717  -30.3961 -102.3414 C   0  0  0  0  0  0  0  0  0  0  0  0
   46.6752  -28.9044 -102.6444 C   0  0  0  0  0  0  0  0  0  0  0  0
   48.3501  -28.2355 -102.9766 S   0  0  2  0  0  0  0  0  0  0  0  0
   49.2198  -28.4193 -101.3862 C   0  0  0  0  0  0  0  0  0  0  0  0
   47.8820  -26.5115 -102.8444 C   0  0  0  0  0  0  0  0  0  0  0  0
   49.0524  -25.5644 -102.8409 C   0  0  1  0  0  0  0  0  0  0  0  0
   49.8554  -25.8510 -103.9984 O   0  0  0  0  0  0  0  0  0  0  0  0
   48.4131  -24.2573 -103.0871 C   0  0  1  0  0  0  0  0  0  0  0  0
   48.2203  -23.5773 -101.8478 O   0  0  0  0  0  0  0  0  0  0  0  0
   49.4428  -23.5436 -103.9071 C   0  0  1  0  0  0  0  0  0  0  0  0
   50.3884  -22.8705 -103.0503 O   0  0  0  0  0  0  0  0  0  0  0  0
   50.1707  -24.6436 -104.7366 C   0  0  2  0  0  0  0  0  0  0  0  0
   45.4726  -30.3897  -99.5970 O   0  0  0  0  0  0  0  0  0  0  0  0
   48.5192  -22.7517 -109.4154 N   0  0  0  0  0  0  0  0  0  0  0  0
   48.8563  -22.0443 -108.3091 C   0  0  0  0  0  0  0  0  0  0  0  0
   49.3040  -22.6491 -107.1889 N   0  0  0  0  0  0  0  0  0  0  0  0
   49.3463  -23.9887 -107.1042 C   0  0  0  0  0  0  0  0  0  0  0  0
   48.9571  -24.7827 -108.2447 C   0  0  0  0  0  0  0  0  0  0  0  0
   48.5428  -24.1012 -109.4275 C   0  0  0  0  0  0  0  0  0  0  0  0
   48.1668  -24.7985 -110.5576 N   0  0  0  0  0  0  0  0  0  0  0  0
   49.0851  -26.0687 -107.8973 N   0  0  0  0  0  0  0  0  0  0  0  0
   49.5010  -26.1344 -106.6676 C   0  0  0  0  0  0  0  0  0  0  0  0
   49.6875  -24.8833 -106.1278 N   0  0  0  0  0  0  0  0  0  0  0  0
  2  1  1  6  0  0  0
  2  3  1  0  0  0  0
  2  5  1  0  0  0  0
  3  4  1  0  0  0  0
  3 17  1  0  0  0  0
  5  6  1  0  0  0  0
  7  6  1  1  0  0  0
  7  8  1  0  0  0  0
  7  9  1  0  0  0  0
 10  9  1  6  0  0  0
 10 11  1  0  0  0  0
 10 12  1  0  0  0  0
 11 16  1  0  0  0  0
 12 13  1  1  0  0  0
 12 14  1  0  0  0  0
 14 15  1  1  0  0  0
 14 16  1  0  0  0  0
 16 27  1  6  0  0  0
 18 19  2  0  0  0  0
 18 23  1  0  0  0  0
 19 20  1  0  0  0  0
 20 21  2  0  0  0  0
 21 22  1  0  0  0  0
 21 27  1  0  0  0  0
 22 23  2  0  0  0  0
 22 25  1  0  0  0  0
 23 24  1  0  0  0  0
 25 26  2  0  0  0  0
 26 27  1  0  0  0  0
M  END
>  <CHROM.1>
-8.09731540,58.24496314,173.53737169,-65.69140837,170.76921188,53.29689295
157.13416412,48.06995645,-26.30279568,-104.32981431,2.24924903,0.97152585
1.74267548

>  <Name>
ligand

>  <RI>
0

>  <Rbt.Current_Directory>
/home/itssahil/PROJECTS/Mol_Feturizer/Test_systems_manuscript/rnas/4l81

>  <Rbt.Executable>
rbdock ($Id: //depot/dev/client3/rdock/2013.1/src/exe/rbdock.cxx#4 $)

>  <Rbt.Library>
libRbt.so (2013.1, Build901 2013/11/27)

>  <Rbt.Parameter_File>
/export/apps/rDock/src/rDock_2013.1_src/data/scripts/dock_solv.prm

>  <Rbt.Receptor>
prm/pocket_docking_7.prm

>  <SCORE>
-13.7386

>  <SCORE.INTER>
-11.384

>  <SCORE.INTER.CONST>
1

>  <SCORE.INTER.POLAR>
0

>  <SCORE.INTER.ROT>
7

>  <SCORE.INTER.SOLV>
11.0238

>  <SCORE.INTER.VDW>
-19.5306

>  <SCORE.INTER.norm>
-0.42163

>  <SCORE.INTRA>
-2.35456

>  <SCORE.INTRA.DIHEDRAL>
-4.68983

>  <SCORE.INTRA.DIHEDRAL.0>
8.34559

>  <SCORE.INTRA.POLAR>
0

>  <SCORE.INTRA.POLAR.0>
0

>  <SCORE.INTRA.REPUL>
0

>  <SCORE.INTRA.REPUL.0>
0

>  <SCORE.INTRA.SOLV>
-0.589303

>  <SCORE.INTRA.SOLV.lig_0>
-48.829

>  <SCORE.INTRA.VDW>
0.285004

>  <SCORE.INTRA.VDW.0>
-1.77092

>  <SCORE.INTRA.norm>
-0.0872059

>  <SCORE.RESTR>
0

>  <SCORE.RESTR.CAVITY>
0

>  <SCORE.RESTR.norm>
0

>  <SCORE.SYSTEM>
0

>  <SCORE.SYSTEM.CONST>
0

>  <SCORE.SYSTEM.DIHEDRAL>
0

>  <SCORE.SYSTEM.SOLV>
0

>  <SCORE.SYSTEM.norm>
0

>  <SCORE.heavy>
27

>  <SCORE.norm>
-0.508836

>  <RMSD>
7.482

$$$$
ligand
 OpenBabel02271912153D
libRbt.so/2013.1/901 2013/11/27
 27 29  0  0  0  0  0  0  0  0999 V2000
   43.8630  -29.9613 -102.9817 N   0  0  0  0  0  0  0  0  0  0  0  0
   44.9586  -30.7780 -102.4475 C   0  0  2  0  0  0  0  0  0  0  0  0
   45.1548  -30.4624 -100.9797 C   0  0  0  0  0  0  0  0  0  0  0  0
   46.1893  -30.7842 -100.4149 O   0  0  0  0  0  0  0  0  0  0  0  0
   46.2725  -30.5071 -103.1929 C   0  0  0  0  0  0  0  0  0  0  0  0
   46.2658  -31.1735 -104.5614 C   0  0  0  0  0  0  0  0  0  0  0  0
   45.1956  -30.3175 -105.7801 S   0  0  2  0  0  0  0  0  0  0  0  0
   45.2830  -31.3754 -107.2609 C   0  0  0  0  0  0  0  0  0  0  0  0
   46.4074  -29.0825 -106.2438 C   0  0  0  0  0  0  0  0  0  0  0  0
   46.5681  -27.9808 -105.2302 C   0  0  1  0  0  0  0  0  0  0  0  0
   47.6138  -27.1077 -105.6895 O   0  0  0  0  0  0  0  0  0  0  0  0
   45.3051  -27.2294 -105.3646 C   0  0  1  0  0  0  0  0  0  0  0  0
   44.3905  -27.6444 -104.3513 O   0  0  0  0  0  0  0  0  0  0  0  0
   45.7404  -25.8188 -105.1138 C   0  0  1  0  0  0  0  0  0  0  0  0
   45.7119  -25.5285 -103.7009 O   0  0  0  0  0  0  0  0  0  0  0  0
   47.2019  -25.7183 -105.6448 C   0  0  2  0  0  0  0  0  0  0  0  0
   44.2984  -29.8570 -100.3592 O   0  0  0  0  0  0  0  0  0  0  0  0
   48.5627  -26.5291 -110.7132 N   0  0  0  0  0  0  0  0  0  0  0  0
   48.5897  -27.4245 -109.6957 C   0  0  0  0  0  0  0  0  0  0  0  0
   48.1748  -27.0999 -108.4533 N   0  0  0  0  0  0  0  0  0  0  0  0
   47.8017  -25.8430 -108.1625 C   0  0  0  0  0  0  0  0  0  0  0  0
   47.7968  -24.8467 -109.2064 C   0  0  0  0  0  0  0  0  0  0  0  0
   48.1902  -25.2464 -110.5182 C   0  0  0  0  0  0  0  0  0  0  0  0
   48.1993  -24.3471 -111.5650 N   0  0  0  0  0  0  0  0  0  0  0  0
   47.3951  -23.6949 -108.6561 N   0  0  0  0  0  0  0  0  0  0  0  0
   47.1661  -23.8885 -107.3914 C   0  0  0  0  0  0  0  0  0  0  0  0
   47.3921  -25.1961 -107.0295 N   0  0  0  0  0  0  0  0  0  0  0  0
  2  1  1  6  0  0  0
  2  3  1  0  0  0  0
  2  5  1  0  0  0  0
  3  4  1  0  0  0  0
  3 17  1  0  0  0  0
  5  6  1  0  0  0  0
  7  6  1  1  0  0  0
  7  8  1  0  0  0  0
  7  9  1  0  0  0  0
 10  9  1  6  0  0  0
 10 11  1  0  0  0  0
 10 12  1  0  0  0  0
 11 16  1  0  0  0  0
 12 13  1  1  0  0  0
 12 14  1  0  0  0  0
 14 15  1  1  0  0  0
 14 16  1  0  0  0  0
 16 27  1  6  0  0  0
 18 19  2  0  0  0  0
 18 23  1  0  0  0  0
 19 20  1  0  0  0  0
 20 21  2  0  0  0  0
 21 22  1  0  0  0  0
 21 27  1  0  0  0  0
 22 23  2  0  0  0  0
 22 25  1  0  0  0  0
 23 24  1  0  0  0  0
 25 26  2  0  0  0  0
 26 27  1  0  0  0  0
M  END
>  <CHROM.1>
-163.03790564,-75.60064778,74.09701928,-176.17109713,-76.80940519,176.88354483
2.86762449,46.39904677,-27.80118097,-105.83235055,2.92431344,-1.24703997
-2.74699441

>  <Name>
ligand

>  <RI>
0

>  <Rbt.Current_Directory>
/home/itssahil/PROJECTS/Mol_Feturizer/Test_systems_manuscript/rnas/4l81

>  <Rbt.Executable>
rbdock ($Id: //depot/dev/client3/rdock/2013.1/src/exe/rbdock.cxx#4 $)

>  <Rbt.Library>
libRbt.so (2013.1, Build901 2013/11/27)

>  <Rbt.Parameter_File>
/export/apps/rDock/src/rDock_2013.1_src/data/scripts/dock_solv.prm

>  <Rbt.Receptor>
prm/pocket_docking_8.prm

>  <SCORE>
-10.2094

>  <SCORE.INTER>
-9.47664

>  <SCORE.INTER.CONST>
1

>  <SCORE.INTER.POLAR>
0

>  <SCORE.INTER.ROT>
7

>  <SCORE.INTER.SOLV>
11.7966

>  <SCORE.INTER.VDW>
-18.5166

>  <SCORE.INTER.norm>
-0.350987

>  <SCORE.INTRA>
-0.732722

>  <SCORE.INTRA.DIHEDRAL>
-2.59498

>  <SCORE.INTRA.DIHEDRAL.0>
8.34559

>  <SCORE.INTRA.POLAR>
0

>  <SCORE.INTRA.POLAR.0>
0

>  <SCORE.INTRA.REPUL>
0.0101709

>  <SCORE.INTRA.REPUL.0>
0

>  <SCORE.INTRA.SOLV>
3.17376

>  <SCORE.INTRA.SOLV.lig_0>
-48.829

>  <SCORE.INTRA.VDW>
-1.07297

>  <SCORE.INTRA.VDW.0>
-1.77092

>  <SCORE.INTRA.norm>
-0.0271379

>  <SCORE.RESTR>
0

>  <SCORE.RESTR.CAVITY>
0

>  <SCORE.RESTR.norm>
0

>  <SCORE.SYSTEM>
0

>  <SCORE.SYSTEM.CONST>
0

>  <SCORE.SYSTEM.DIHEDRAL>
0

>  <SCORE.SYSTEM.SOLV>
0

>  <SCORE.SYSTEM.norm>
0

>  <SCORE.heavy>
27

>  <SCORE.norm>
-0.378124

>  <RMSD>
7.505

$$$$
ligand
 OpenBabel02271912153D
libRbt.so/2013.1/901 2013/11/27
 27 29  0  0  0  0  0  0  0  0999 V2000
   50.3762  -34.4811 -105.0398 N   0  0  0  0  0  0  0  0  0  0  0  0
   49.6210  -33.3307 -105.5485 C   0  0  2  0  0  0  0  0  0  0  0  0
   49.5951  -33.3725 -107.0619 C   0  0  0  0  0  0  0  0  0  0  0  0
   48.5976  -33.0139 -107.6695 O   0  0  0  0  0  0  0  0  0  0  0  0
   50.2517  -32.0054 -105.0998 C   0  0  0  0  0  0  0  0  0  0  0  0
   50.1556  -31.8443 -103.5893 C   0  0  0  0  0  0  0  0  0  0  0  0
   50.9478  -30.3100 -102.9714 S   0  0  2  0  0  0  0  0  0  0  0  0
   50.5766  -30.3118 -101.1876 C   0  0  0  0  0  0  0  0  0  0  0  0
   49.6525  -29.2050 -103.5279 C   0  0  0  0  0  0  0  0  0  0  0  0
   49.9619  -27.7483 -103.3059 C   0  0  1  0  0  0  0  0  0  0  0  0
   50.5751  -27.2401 -104.5028 O   0  0  0  0  0  0  0  0  0  0  0  0
   48.6199  -27.1391 -103.2310 C   0  0  1  0  0  0  0  0  0  0  0  0
   48.2430  -26.9770 -101.8646 O   0  0  0  0  0  0  0  0  0  0  0  0
   48.8376  -25.7996 -103.8636 C   0  0  1  0  0  0  0  0  0  0  0  0
   49.2786  -24.8441 -102.8767 O   0  0  0  0  0  0  0  0  0  0  0  0
   49.9505  -26.0050 -104.9348 C   0  0  2  0  0  0  0  0  0  0  0  0
   50.5782  -33.7318 -107.6859 O   0  0  0  0  0  0  0  0  0  0  0  0
   48.3059  -24.1195 -109.6186 N   0  0  0  0  0  0  0  0  0  0  0  0
   48.5814  -23.4151 -108.4935 C   0  0  0  0  0  0  0  0  0  0  0  0
   49.0353  -24.0155 -107.3734 N   0  0  0  0  0  0  0  0  0  0  0  0
   49.1453  -25.3524 -107.3096 C   0  0  0  0  0  0  0  0  0  0  0  0
   48.8231  -26.1454 -108.4714 C   0  0  0  0  0  0  0  0  0  0  0  0
   48.4000  -25.4656 -109.6522 C   0  0  0  0  0  0  0  0  0  0  0  0
   48.0856  -26.1616 -110.8018 N   0  0  0  0  0  0  0  0  0  0  0  0
   49.0102  -27.4289 -108.1423 N   0  0  0  0  0  0  0  0  0  0  0  0
   49.4018  -27.4945 -106.9046 C   0  0  0  0  0  0  0  0  0  0  0  0
   49.5110  -26.2450 -106.3403 N   0  0  0  0  0  0  0  0  0  0  0  0
  2  1  1  6  0  0  0
  2  3  1  0  0  0  0
  2  5  1  0  0  0  0
  3  4  1  0  0  0  0
  3 17  1  0  0  0  0
  5  6  1  0  0  0  0
  7  6  1  6  0  0  0
  7  8  1  0  0  0  0
  7  9  1  0  0  0  0
 10  9  1  6  0  0  0
 10 11  1  0  0  0  0
 10 12  1  0  0  0  0
 11 16  1  0  0  0  0
 12 13  1  1  0  0  0
 12 14  1  0  0  0  0
 14 15  1  1  0  0  0
 14 16  1  0  0  0  0
 16 27  1  6  0  0  0
 18 19  2  0  0  0  0
 18 23  1  0  0  0  0
 19 20  1  0  0  0  0
 20 21  2  0  0  0  0
 21 22  1  0  0  0  0
 21 27  1  0  0  0  0
 22 23  2  0  0  0  0
 22 25  1  0  0  0  0
 23 24  1  0  0  0  0
 25 26  2  0  0  0  0
 26 27  1  0  0  0  0
M  END
>  <CHROM.1>
143.49923592,-65.70926507,177.78107464,175.82148757,-175.37113548,92.94932151
-163.70970748,49.50015933,-28.43595891,-105.60473313,0.47135496,1.37700478
-2.42615161

>  <Name>
ligand

>  <RI>
0

>  <Rbt.Current_Directory>
/home/itssahil/PROJECTS/Mol_Feturizer/Test_systems_manuscript/rnas/4l81

>  <Rbt.Executable>
rbdock ($Id: //depot/dev/client3/rdock/2013.1/src/exe/rbdock.cxx#4 $)

>  <Rbt.Library>
libRbt.so (2013.1, Build901 2013/11/27)

>  <Rbt.Parameter_File>
/export/apps/rDock/src/rDock_2013.1_src/data/scripts/dock_solv.prm

>  <Rbt.Receptor>
prm/pocket_docking_8.prm

>  <SCORE>
-10.6829

>  <SCORE.INTER>
-9.06494

>  <SCORE.INTER.CONST>
1

>  <SCORE.INTER.POLAR>
0

>  <SCORE.INTER.ROT>
7

>  <SCORE.INTER.SOLV>
12.7453

>  <SCORE.INTER.VDW>
-18.5584

>  <SCORE.INTER.norm>
-0.335739

>  <SCORE.INTRA>
-1.61799

>  <SCORE.INTRA.DIHEDRAL>
-1.55857

>  <SCORE.INTRA.DIHEDRAL.0>
8.34559

>  <SCORE.INTRA.POLAR>
0

>  <SCORE.INTRA.POLAR.0>
0

>  <SCORE.INTRA.REPUL>
0

>  <SCORE.INTRA.REPUL.0>
0

>  <SCORE.INTRA.SOLV>
-0.681064

>  <SCORE.INTRA.SOLV.lig_0>
-48.829

>  <SCORE.INTRA.VDW>
-0.498172

>  <SCORE.INTRA.VDW.0>
-1.77092

>  <SCORE.INTRA.norm>
-0.0599255

>  <SCORE.RESTR>
0

>  <SCORE.RESTR.CAVITY>
0

>  <SCORE.RESTR.norm>
0

>  <SCORE.SYSTEM>
0

>  <SCORE.SYSTEM.CONST>
0

>  <SCORE.SYSTEM.DIHEDRAL>
0

>  <SCORE.SYSTEM.SOLV>
0

>  <SCORE.SYSTEM.norm>
0

>  <SCORE.heavy>
27

>  <SCORE.norm>
-0.395664

>  <RMSD>
7.515

$$$$
ligand
 OpenBabel02271912153D
libRbt.so/2013.1/901 2013/11/27
 27 29  0  0  0  0  0  0  0  0999 V2000
   47.9745  -23.3823 -109.0077 N   0  0  0  0  0  0  0  0  0  0  0  0
   48.3790  -24.3731 -110.0113 C   0  0  2  0  0  0  0  0  0  0  0  0
   48.4981  -23.7027 -111.3638 C   0  0  0  0  0  0  0  0  0  0  0  0
   47.5641  -23.0559 -111.8133 O   0  0  0  0  0  0  0  0  0  0  0  0
   47.3588  -25.5153 -110.1121 C   0  0  0  0  0  0  0  0  0  0  0  0
   47.1981  -26.2174 -108.7711 C   0  0  0  0  0  0  0  0  0  0  0  0
   48.7291  -27.0503 -108.2002 S   0  0  2  0  0  0  0  0  0  0  0  0
   48.3647  -28.8242 -108.4003 C   0  0  0  0  0  0  0  0  0  0  0  0
   48.3786  -26.8859 -106.4512 C   0  0  0  0  0  0  0  0  0  0  0  0
   49.5726  -27.1339 -105.5681 C   0  0  1  0  0  0  0  0  0  0  0  0
   50.4592  -26.0096 -105.6988 O   0  0  0  0  0  0  0  0  0  0  0  0
   48.9952  -27.0572 -104.2123 C   0  0  1  0  0  0  0  0  0  0  0  0
   48.7216  -28.3728 -103.7330 O   0  0  0  0  0  0  0  0  0  0  0  0
   50.1096  -26.4462 -103.4207 C   0  0  1  0  0  0  0  0  0  0  0  0
   51.0014  -27.4713 -102.9355 O   0  0  0  0  0  0  0  0  0  0  0  0
   50.8701  -25.5055 -104.4030 C   0  0  2  0  0  0  0  0  0  0  0  0
   49.5356  -23.7750 -111.9987 O   0  0  0  0  0  0  0  0  0  0  0  0
   48.2498  -21.4522 -102.1887 N   0  0  0  0  0  0  0  0  0  0  0  0
   48.2501  -22.7501 -101.7972 C   0  0  0  0  0  0  0  0  0  0  0  0
   48.9981  -23.6810 -102.4256 N   0  0  0  0  0  0  0  0  0  0  0  0
   49.7040  -23.3652 -103.5235 C   0  0  0  0  0  0  0  0  0  0  0  0
   49.6999  -22.0031 -104.0002 C   0  0  0  0  0  0  0  0  0  0  0  0
   48.9394  -21.0395 -103.2733 C   0  0  0  0  0  0  0  0  0  0  0  0
   48.8992  -19.7177 -103.6680 N   0  0  0  0  0  0  0  0  0  0  0  0
   50.4676  -21.9618 -105.0955 N   0  0  0  0  0  0  0  0  0  0  0  0
   50.9264  -23.1542 -105.3346 C   0  0  0  0  0  0  0  0  0  0  0  0
   50.4958  -24.0612 -104.3946 N   0  0  0  0  0  0  0  0  0  0  0  0
  2  1  1  1  0  0  0
  2  3  1  0  0  0  0
  2  5  1  0  0  0  0
  3  4  1  0  0  0  0
  3 17  1  0  0  0  0
  5  6  1  0  0  0  0
  7  6  1  6  0  0  0
  7  8  1  0  0  0  0
  7  9  1  0  0  0  0
 10  9  1  6  0  0  0
 10 11  1  0  0  0  0
 10 12  1  0  0  0  0
 11 16  1  0  0  0  0
 12 13  1  1  0  0  0
 12 14  1  0  0  0  0
 14 15  1  6  0  0  0
 14 16  1  0  0  0  0
 16 27  1  1  0  0  0
 18 19  2  0  0  0  0
 18 23  1  0  0  0  0
 19 20  1  0  0  0  0
 20 21  2  0  0  0  0
 21 22  1  0  0  0  0
 21 27  1  0  0  0  0
 22 23  2  0  0  0  0
 22 25  1  0  0  0  0
 23 24  1  0  0  0  0
 25 26  2  0  0  0  0
 26 27  1  0  0  0  0
M  END
>  <CHROM.1>
-53.51904821,-58.89108284,-63.86741376,-108.18089565,-164.90710440,72.56055245
123.59076847,49.09937621,-24.78546947,-106.17323163,2.68856981,1.38331944
-2.90756627

>  <Name>
ligand

>  <RI>
0

>  <Rbt.Current_Directory>
/home/itssahil/PROJECTS/Mol_Feturizer/Test_systems_manuscript/rnas/4l81

>  <Rbt.Executable>
rbdock ($Id: //depot/dev/client3/rdock/2013.1/src/exe/rbdock.cxx#4 $)

>  <Rbt.Library>
libRbt.so (2013.1, Build901 2013/11/27)

>  <Rbt.Parameter_File>
/export/apps/rDock/src/rDock_2013.1_src/data/scripts/dock_solv.prm

>  <Rbt.Receptor>
prm/pocket_docking_8.prm

>  <SCORE>
-15.3292

>  <SCORE.INTER>
-14.4285

>  <SCORE.INTER.CONST>
1

>  <SCORE.INTER.POLAR>
0

>  <SCORE.INTER.ROT>
7

>  <SCORE.INTER.SOLV>
8.88028

>  <SCORE.INTER.VDW>
-20.8458

>  <SCORE.INTER.norm>
-0.53439

>  <SCORE.INTRA>
-0.92423

>  <SCORE.INTRA.DIHEDRAL>
-0.0614356

>  <SCORE.INTRA.DIHEDRAL.0>
8.34559

>  <SCORE.INTRA.POLAR>
0

>  <SCORE.INTRA.POLAR.0>
0

>  <SCORE.INTRA.REPUL>
0

>  <SCORE.INTRA.REPUL.0>
0

>  <SCORE.INTRA.SOLV>
0.210082

>  <SCORE.INTRA.SOLV.lig_0>
-48.829

>  <SCORE.INTRA.VDW>
-0.998553

>  <SCORE.INTRA.VDW.0>
-1.77092

>  <SCORE.INTRA.norm>
-0.0342307

>  <SCORE.RESTR>
0.0235539

>  <SCORE.RESTR.CAVITY>
0.0235539

>  <SCORE.RESTR.norm>
0.000872368

>  <SCORE.SYSTEM>
0

>  <SCORE.SYSTEM.CONST>
0

>  <SCORE.SYSTEM.DIHEDRAL>
0

>  <SCORE.SYSTEM.SOLV>
0

>  <SCORE.SYSTEM.norm>
0

>  <SCORE.heavy>
27

>  <SCORE.norm>
-0.567748

>  <RMSD>
7.564

$$$$
ligand
 OpenBabel02271912153D
libRbt.so/2013.1/901 2013/11/27
 27 29  0  0  0  0  0  0  0  0999 V2000
   48.6979  -20.6099 -105.1676 N   0  0  0  0  0  0  0  0  0  0  0  0
   48.2645  -21.7962 -104.4209 C   0  0  2  0  0  0  0  0  0  0  0  0
   49.4532  -22.4080 -103.7101 C   0  0  0  0  0  0  0  0  0  0  0  0
   50.5583  -22.3866 -104.2308 O   0  0  0  0  0  0  0  0  0  0  0  0
   47.6482  -22.8486 -105.3525 C   0  0  0  0  0  0  0  0  0  0  0  0
   46.3430  -22.3438 -105.9513 C   0  0  0  0  0  0  0  0  0  0  0  0
   46.5598  -21.5249 -107.5779 S   0  0  2  0  0  0  0  0  0  0  0  0
   44.9437  -20.7461 -107.8963 C   0  0  0  0  0  0  0  0  0  0  0  0
   46.3532  -23.0125 -108.5543 C   0  0  0  0  0  0  0  0  0  0  0  0
   47.6151  -23.4692 -109.2369 C   0  0  1  0  0  0  0  0  0  0  0  0
   48.5435  -23.8801 -108.2189 O   0  0  0  0  0  0  0  0  0  0  0  0
   47.1825  -24.6977 -109.9306 C   0  0  1  0  0  0  0  0  0  0  0  0
   46.8879  -24.3995 -111.2943 O   0  0  0  0  0  0  0  0  0  0  0  0
   48.4027  -25.5617 -109.8483 C   0  0  1  0  0  0  0  0  0  0  0  0
   49.2820  -25.2955 -110.9607 O   0  0  0  0  0  0  0  0  0  0  0  0
   49.1099  -25.1820 -108.5128 C   0  0  2  0  0  0  0  0  0  0  0  0
   49.3244  -22.8960 -102.6009 O   0  0  0  0  0  0  0  0  0  0  0  0
   45.6351  -27.8622 -105.5227 N   0  0  0  0  0  0  0  0  0  0  0  0
   45.3789  -27.1326 -106.6362 C   0  0  0  0  0  0  0  0  0  0  0  0
   46.3653  -26.5303 -107.3328 N   0  0  0  0  0  0  0  0  0  0  0  0
   47.6331  -26.5617 -106.8912 C   0  0  0  0  0  0  0  0  0  0  0  0
   47.9452  -27.2929 -105.6868 C   0  0  0  0  0  0  0  0  0  0  0  0
   46.8806  -27.9610 -105.0119 C   0  0  0  0  0  0  0  0  0  0  0  0
   47.1102  -28.6862 -103.8603 N   0  0  0  0  0  0  0  0  0  0  0  0
   49.2590  -27.1609 -105.4695 N   0  0  0  0  0  0  0  0  0  0  0  0
   49.7700  -26.4217 -106.4087 C   0  0  0  0  0  0  0  0  0  0  0  0
   48.8172  -26.0282 -107.3192 N   0  0  0  0  0  0  0  0  0  0  0  0
  2  1  1  6  0  0  0
  2  3  1  0  0  0  0
  2  5  1  0  0  0  0
  3  4  1  0  0  0  0
  3 17  1  0  0  0  0
  5  6  1  0  0  0  0
  7  6  1  1  0  0  0
  7  8  1  0  0  0  0
  7  9  1  0  0  0  0
 10  9  1  1  0  0  0
 10 11  1  0  0  0  0
 10 12  1  0  0  0  0
 11 16  1  0  0  0  0
 12 13  1  6  0  0  0
 12 14  1  0  0  0  0
 14 15  1  6  0  0  0
 14 16  1  0  0  0  0
 16 27  1  1  0  0  0
 18 19  2  0  0  0  0
 18 23  1  0  0  0  0
 19 20  1  0  0  0  0
 20 21  2  0  0  0  0
 21 22  1  0  0  0  0
 21 27  1  0  0  0  0
 22 23  2  0  0  0  0
 22 25  1  0  0  0  0
 23 24  1  0  0  0  0
 25 26  2  0  0  0  0
 26 27  1  0  0  0  0
M  END
>  <CHROM.1>
-35.17091384,-66.68100121,92.94036763,-169.26446547,-110.96044522,66.56329747
72.27353344,47.73540189,-24.39776137,-106.86874226,-1.33130008,1.34476194
3.07466607

>  <Name>
ligand

>  <RI>
0

>  <Rbt.Current_Directory>
/home/itssahil/PROJECTS/Mol_Feturizer/Test_systems_manuscript/rnas/4l81

>  <Rbt.Executable>
rbdock ($Id: //depot/dev/client3/rdock/2013.1/src/exe/rbdock.cxx#4 $)

>  <Rbt.Library>
libRbt.so (2013.1, Build901 2013/11/27)

>  <Rbt.Parameter_File>
/export/apps/rDock/src/rDock_2013.1_src/data/scripts/dock_solv.prm

>  <Rbt.Receptor>
prm/pocket_docking_8.prm

>  <SCORE>
-8.40631

>  <SCORE.INTER>
-7.39027

>  <SCORE.INTER.CONST>
1

>  <SCORE.INTER.POLAR>
0

>  <SCORE.INTER.ROT>
7

>  <SCORE.INTER.SOLV>
5.80335

>  <SCORE.INTER.VDW>
-15.128

>  <SCORE.INTER.norm>
-0.273714

>  <SCORE.INTRA>
-1.01604

>  <SCORE.INTRA.DIHEDRAL>
3.25546

>  <SCORE.INTRA.DIHEDRAL.0>
8.34559

>  <SCORE.INTRA.POLAR>
0

>  <SCORE.INTRA.POLAR.0>
0

>  <SCORE.INTRA.REPUL>
0

>  <SCORE.INTRA.REPUL.0>
0

>  <SCORE.INTRA.SOLV>
0.557539

>  <SCORE.INTRA.SOLV.lig_0>
-48.829

>  <SCORE.INTRA.VDW>
-2.92254

>  <SCORE.INTRA.VDW.0>
-1.77092

>  <SCORE.INTRA.norm>
-0.0376312

>  <SCORE.RESTR>
0

>  <SCORE.RESTR.CAVITY>
0

>  <SCORE.RESTR.norm>
0

>  <SCORE.SYSTEM>
0

>  <SCORE.SYSTEM.CONST>
0

>  <SCORE.SYSTEM.DIHEDRAL>
0

>  <SCORE.SYSTEM.SOLV>
0

>  <SCORE.SYSTEM.norm>
0

>  <SCORE.heavy>
27

>  <SCORE.norm>
-0.311345

>  <RMSD>
7.594

$$$$
ligand
 OpenBabel02271912153D
libRbt.so/2013.1/901 2013/11/27
 27 29  0  0  0  0  0  0  0  0999 V2000
   48.9370  -23.0082 -111.4730 N   0  0  0  0  0  0  0  0  0  0  0  0
   49.0982  -24.1215 -110.5311 C   0  0  2  0  0  0  0  0  0  0  0  0
   48.6288  -25.4057 -111.1817 C   0  0  0  0  0  0  0  0  0  0  0  0
   49.3230  -26.4098 -111.1306 O   0  0  0  0  0  0  0  0  0  0  0  0
   48.2879  -23.8903 -109.2484 C   0  0  0  0  0  0  0  0  0  0  0  0
   48.8902  -24.6601 -108.0815 C   0  0  0  0  0  0  0  0  0  0  0  0
   48.6342  -26.4723 -108.1983 S   0  0  2  0  0  0  0  0  0  0  0  0
   46.9440  -26.6354 -108.8588 C   0  0  0  0  0  0  0  0  0  0  0  0
   48.2817  -26.7141 -106.4588 C   0  0  0  0  0  0  0  0  0  0  0  0
   49.5068  -26.9725 -105.6226 C   0  0  1  0  0  0  0  0  0  0  0  0
   50.3871  -25.8454 -105.7695 O   0  0  0  0  0  0  0  0  0  0  0  0
   48.9783  -26.9153 -104.2460 C   0  0  1  0  0  0  0  0  0  0  0  0
   48.7233  -28.2377 -103.7753 O   0  0  0  0  0  0  0  0  0  0  0  0
   50.1199  -26.3136 -103.4865 C   0  0  1  0  0  0  0  0  0  0  0  0
   51.0294  -27.3440 -103.0478 O   0  0  0  0  0  0  0  0  0  0  0  0
   50.8438  -25.3585 -104.4824 C   0  0  2  0  0  0  0  0  0  0  0  0
   47.5426  -25.4574 -111.7314 O   0  0  0  0  0  0  0  0  0  0  0  0
   48.2427  -21.3535 -102.1602 N   0  0  0  0  0  0  0  0  0  0  0  0
   48.2476  -22.6592 -101.7954 C   0  0  0  0  0  0  0  0  0  0  0  0
   48.9900  -23.5764 -102.4500 N   0  0  0  0  0  0  0  0  0  0  0  0
   49.6851  -23.2376 -103.5480 C   0  0  0  0  0  0  0  0  0  0  0  0
   49.6755  -21.8660 -103.9966 C   0  0  0  0  0  0  0  0  0  0  0  0
   48.9215  -20.9181 -103.2427 C   0  0  0  0  0  0  0  0  0  0  0  0
   48.8767  -19.5885 -103.6098 N   0  0  0  0  0  0  0  0  0  0  0  0
   50.4325  -21.8016 -105.0982 N   0  0  0  0  0  0  0  0  0  0  0  0
   50.8896  -22.9885 -105.3661 C   0  0  0  0  0  0  0  0  0  0  0  0
   50.4688  -23.9149 -104.4408 N   0  0  0  0  0  0  0  0  0  0  0  0
  2  1  1  6  0  0  0
  2  3  1  0  0  0  0
  2  5  1  0  0  0  0
  3  4  1  0  0  0  0
  3 17  1  0  0  0  0
  5  6  1  0  0  0  0
  7  6  1  1  0  0  0
  7  8  1  0  0  0  0
  7  9  1  0  0  0  0
 10  9  1  6  0  0  0
 10 11  1  0  0  0  0
 10 12  1  0  0  0  0
 11 16  1  0  0  0  0
 12 13  1  1  0  0  0
 12 14  1  0  0  0  0
 14 15  1  6  0  0  0
 14 16  1  0  0  0  0
 16 27  1  1  0  0  0
 18 19  2  0  0  0  0
 18 23  1  0  0  0  0
 19 20  1  0  0  0  0
 20 21  2  0  0  0  0
 21 22  1  0  0  0  0
 21 27  1  0  0  0  0
 22 23  2  0  0  0  0
 22 25  1  0  0  0  0
 23 24  1  0  0  0  0
 25 26  2  0  0  0  0
 26 27  1  0  0  0  0
M  END
>  <CHROM.1>
131.98657687,-155.14948357,-71.73156550,-38.75603585,-88.79181399,58.97763731
122.04108740,49.16880663,-24.69056390,-106.21359917,2.53757897,1.41569007
-2.84973560

>  <Name>
ligand

>  <RI>
0

>  <Rbt.Current_Directory>
/home/itssahil/PROJECTS/Mol_Feturizer/Test_systems_manuscript/rnas/4l81

>  <Rbt.Executable>
rbdock ($Id: //depot/dev/client3/rdock/2013.1/src/exe/rbdock.cxx#4 $)

>  <Rbt.Library>
libRbt.so (2013.1, Build901 2013/11/27)

>  <Rbt.Parameter_File>
/export/apps/rDock/src/rDock_2013.1_src/data/scripts/dock_solv.prm

>  <Rbt.Receptor>
prm/pocket_docking_8.prm

>  <SCORE>
-12.7987

>  <SCORE.INTER>
-12.0291

>  <SCORE.INTER.CONST>
1

>  <SCORE.INTER.POLAR>
0

>  <SCORE.INTER.ROT>
7

>  <SCORE.INTER.SOLV>
11.2229

>  <SCORE.INTER.VDW>
-20.027

>  <SCORE.INTER.norm>
-0.445522

>  <SCORE.INTRA>
-0.769565

>  <SCORE.INTRA.DIHEDRAL>
0.980545

>  <SCORE.INTRA.DIHEDRAL.0>
8.34559

>  <SCORE.INTRA.POLAR>
0

>  <SCORE.INTRA.POLAR.0>
0

>  <SCORE.INTRA.REPUL>
0

>  <SCORE.INTRA.REPUL.0>
0

>  <SCORE.INTRA.SOLV>
-1.09677

>  <SCORE.INTRA.SOLV.lig_0>
-48.829

>  <SCORE.INTRA.VDW>
-0.711452

>  <SCORE.INTRA.VDW.0>
-1.77092

>  <SCORE.INTRA.norm>
-0.0285024

>  <SCORE.RESTR>
0

>  <SCORE.RESTR.CAVITY>
0

>  <SCORE.RESTR.norm>
0

>  <SCORE.SYSTEM>
0

>  <SCORE.SYSTEM.CONST>
0

>  <SCORE.SYSTEM.DIHEDRAL>
0

>  <SCORE.SYSTEM.SOLV>
0

>  <SCORE.SYSTEM.norm>
0

>  <SCORE.heavy>
27

>  <SCORE.norm>
-0.474024

>  <RMSD>
7.663

$$$$
ligand
 OpenBabel02271912153D
libRbt.so/2013.1/901 2013/11/27
 27 29  0  0  0  0  0  0  0  0999 V2000
   51.0845  -37.3565 -106.2753 N   0  0  0  0  0  0  0  0  0  0  0  0
   51.6813  -36.0577 -105.9443 C   0  0  2  0  0  0  0  0  0  0  0  0
   53.1384  -36.2494 -105.5799 C   0  0  0  0  0  0  0  0  0  0  0  0
   53.4477  -36.9681 -104.6415 O   0  0  0  0  0  0  0  0  0  0  0  0
   50.9580  -35.3947 -104.7643 C   0  0  0  0  0  0  0  0  0  0  0  0
   51.3670  -33.9347 -104.6299 C   0  0  0  0  0  0  0  0  0  0  0  0
   50.5090  -33.0636 -103.2629 S   0  0  2  0  0  0  0  0  0  0  0  0
   48.7600  -33.0608 -103.7734 C   0  0  0  0  0  0  0  0  0  0  0  0
   50.9603  -31.4133 -103.7934 C   0  0  0  0  0  0  0  0  0  0  0  0
   50.8256  -30.3720 -102.7143 C   0  0  1  0  0  0  0  0  0  0  0  0
   51.3020  -29.1233 -103.2440 O   0  0  0  0  0  0  0  0  0  0  0  0
   49.3627  -30.2373 -102.5741 C   0  0  1  0  0  0  0  0  0  0  0  0
   48.9118  -31.0280 -101.4755 O   0  0  0  0  0  0  0  0  0  0  0  0
   49.2013  -28.7827 -102.2572 C   0  0  1  0  0  0  0  0  0  0  0  0
   49.3138  -28.5632 -100.8358 O   0  0  0  0  0  0  0  0  0  0  0  0
   50.3592  -28.0495 -102.9987 C   0  0  2  0  0  0  0  0  0  0  0  0
   54.0141  -35.7162 -106.2384 O   0  0  0  0  0  0  0  0  0  0  0  0
   48.1578  -28.5013 -107.8099 N   0  0  0  0  0  0  0  0  0  0  0  0
   48.2066  -29.4378 -106.8309 C   0  0  0  0  0  0  0  0  0  0  0  0
   48.7634  -29.1799 -105.6290 N   0  0  0  0  0  0  0  0  0  0  0  0
   49.3707  -28.0056 -105.3935 C   0  0  0  0  0  0  0  0  0  0  0  0
   49.3788  -26.9939 -106.4226 C   0  0  0  0  0  0  0  0  0  0  0  0
   48.7303  -27.2883 -107.6588 C   0  0  0  0  0  0  0  0  0  0  0  0
   48.6919  -26.3629 -108.6820 N   0  0  0  0  0  0  0  0  0  0  0  0
   50.0441  -25.9385 -105.9387 N   0  0  0  0  0  0  0  0  0  0  0  0
   50.4451  -26.2091 -104.7324 C   0  0  0  0  0  0  0  0  0  0  0  0
   50.0533  -27.4671 -104.3379 N   0  0  0  0  0  0  0  0  0  0  0  0
  2  1  1  1  0  0  0
  2  3  1  0  0  0  0
  2  5  1  0  0  0  0
  3  4  1  0  0  0  0
  3 17  1  0  0  0  0
  5  6  1  0  0  0  0
  7  6  1  6  0  0  0
  7  8  1  0  0  0  0
  7  9  1  0  0  0  0
 10  9  1  6  0  0  0
 10 11  1  0  0  0  0
 10 12  1  0  0  0  0
 11 16  1  0  0  0  0
 12 13  1  1  0  0  0
 12 14  1  0  0  0  0
 14 15  1  1  0  0  0
 14 16  1  0  0  0  0
 16 27  1  6  0  0  0
 18 19  2  0  0  0  0
 18 23  1  0  0  0  0
 19 20  1  0  0  0  0
 20 21  2  0  0  0  0
 21 22  1  0  0  0  0
 21 27  1  0  0  0  0
 22 23  2  0  0  0  0
 22 25  1  0  0  0  0
 23 24  1  0  0  0  0
 25 26  2  0  0  0  0
 26 27  1  0  0  0  0
M  END
>  <CHROM.1>
-59.59884358,-167.19391237,178.55741247,-65.01258631,-161.66598764,176.16440351
68.45584705,50.30879510,-30.97407567,-104.62490197,-0.06719939,1.25294652
-1.53256705

>  <Name>
ligand

>  <RI>
0

>  <Rbt.Current_Directory>
/home/itssahil/PROJECTS/Mol_Feturizer/Test_systems_manuscript/rnas/4l81

>  <Rbt.Executable>
rbdock ($Id: //depot/dev/client3/rdock/2013.1/src/exe/rbdock.cxx#4 $)

>  <Rbt.Library>
libRbt.so (2013.1, Build901 2013/11/27)

>  <Rbt.Parameter_File>
/export/apps/rDock/src/rDock_2013.1_src/data/scripts/dock_solv.prm

>  <Rbt.Receptor>
prm/pocket_docking_8.prm

>  <SCORE>
-12.2568

>  <SCORE.INTER>
-9.86196

>  <SCORE.INTER.CONST>
1

>  <SCORE.INTER.POLAR>
0

>  <SCORE.INTER.ROT>
7

>  <SCORE.INTER.SOLV>
10.9435

>  <SCORE.INTER.VDW>
-18.4891

>  <SCORE.INTER.norm>
-0.365258

>  <SCORE.INTRA>
-2.39481

>  <SCORE.INTRA.DIHEDRAL>
-2.6136

>  <SCORE.INTRA.DIHEDRAL.0>
8.34559

>  <SCORE.INTRA.POLAR>
0

>  <SCORE.INTRA.POLAR.0>
0

>  <SCORE.INTRA.REPUL>
0

>  <SCORE.INTRA.REPUL.0>
0

>  <SCORE.INTRA.SOLV>
-0.94178

>  <SCORE.INTRA.SOLV.lig_0>
-48.829

>  <SCORE.INTRA.VDW>
-0.617126

>  <SCORE.INTRA.VDW.0>
-1.77092

>  <SCORE.INTRA.norm>
-0.0886968

>  <SCORE.RESTR>
0

>  <SCORE.RESTR.CAVITY>
0

>  <SCORE.RESTR.norm>
0

>  <SCORE.SYSTEM>
0

>  <SCORE.SYSTEM.CONST>
0

>  <SCORE.SYSTEM.DIHEDRAL>
0

>  <SCORE.SYSTEM.SOLV>
0

>  <SCORE.SYSTEM.norm>
0

>  <SCORE.heavy>
27

>  <SCORE.norm>
-0.453955

>  <RMSD>
7.664

$$$$
ligand
 OpenBabel02271912153D
libRbt.so/2013.1/901 2013/11/27
 27 29  0  0  0  0  0  0  0  0999 V2000
   47.6595  -29.3775 -101.2055 N   0  0  0  0  0  0  0  0  0  0  0  0
   46.4409  -28.5833 -101.0129 C   0  0  2  0  0  0  0  0  0  0  0  0
   45.2923  -29.5004 -100.6493 C   0  0  0  0  0  0  0  0  0  0  0  0
   45.5065  -30.6672 -100.3569 O   0  0  0  0  0  0  0  0  0  0  0  0
   46.0726  -27.8075 -102.2848 C   0  0  0  0  0  0  0  0  0  0  0  0
   45.7936  -28.7604 -103.4385 C   0  0  0  0  0  0  0  0  0  0  0  0
   45.2622  -27.9070 -104.9723 S   0  0  2  0  0  0  0  0  0  0  0  0
   44.5131  -29.2313 -105.9746 C   0  0  0  0  0  0  0  0  0  0  0  0
   46.8869  -27.8679 -105.7255 C   0  0  0  0  0  0  0  0  0  0  0  0
   46.8578  -27.6861 -107.2198 C   0  0  1  0  0  0  0  0  0  0  0  0
   46.6511  -26.2893 -107.4904 O   0  0  0  0  0  0  0  0  0  0  0  0
   48.2484  -27.9878 -107.6108 C   0  0  1  0  0  0  0  0  0  0  0  0
   48.3374  -29.3390 -108.0599 O   0  0  0  0  0  0  0  0  0  0  0  0
   48.4715  -27.0519 -108.7582 C   0  0  1  0  0  0  0  0  0  0  0  0
   48.0388  -27.6596 -109.9930 O   0  0  0  0  0  0  0  0  0  0  0  0
   47.6078  -25.7900 -108.4588 C   0  0  2  0  0  0  0  0  0  0  0  0
   44.1510  -29.0749 -100.6130 O   0  0  0  0  0  0  0  0  0  0  0  0
   51.2660  -23.9312 -105.0882 N   0  0  0  0  0  0  0  0  0  0  0  0
   50.9704  -25.2267 -105.3568 C   0  0  0  0  0  0  0  0  0  0  0  0
   50.0399  -25.5674 -106.2729 N   0  0  0  0  0  0  0  0  0  0  0  0
   49.3085  -24.6247 -106.8892 C   0  0  0  0  0  0  0  0  0  0  0  0
   49.5613  -23.2330 -106.6030 C   0  0  0  0  0  0  0  0  0  0  0  0
   50.5920  -22.9160 -105.6689 C   0  0  0  0  0  0  0  0  0  0  0  0
   50.8927  -21.6058 -105.3563 N   0  0  0  0  0  0  0  0  0  0  0  0
   48.7036  -22.5132 -107.3358 N   0  0  0  0  0  0  0  0  0  0  0  0
   47.9557  -23.3220 -108.0257 C   0  0  0  0  0  0  0  0  0  0  0  0
   48.2868  -24.6374 -107.7980 N   0  0  0  0  0  0  0  0  0  0  0  0
  2  1  1  6  0  0  0
  2  3  1  0  0  0  0
  2  5  1  0  0  0  0
  3  4  1  0  0  0  0
  3 17  1  0  0  0  0
  5  6  1  0  0  0  0
  7  6  1  1  0  0  0
  7  8  1  0  0  0  0
  7  9  1  0  0  0  0
 10  9  1  1  0  0  0
 10 11  1  0  0  0  0
 10 12  1  0  0  0  0
 11 16  1  0  0  0  0
 12 13  1  6  0  0  0
 12 14  1  0  0  0  0
 14 15  1  6  0  0  0
 14 16  1  0  0  0  0
 16 27  1  1  0  0  0
 18 19  2  0  0  0  0
 18 23  1  0  0  0  0
 19 20  1  0  0  0  0
 20 21  2  0  0  0  0
 21 22  1  0  0  0  0
 21 27  1  0  0  0  0
 22 23  2  0  0  0  0
 22 25  1  0  0  0  0
 23 24  1  0  0  0  0
 25 26  2  0  0  0  0
 26 27  1  0  0  0  0
M  END
>  <CHROM.1>
11.32353474,61.47578996,177.04574430,-162.92232747,159.28003676,79.85185120
80.55312317,47.56560087,-26.76204395,-105.44641081,-2.46154570,-0.92035407
-1.59636513

>  <Name>
ligand

>  <RI>
0

>  <Rbt.Current_Directory>
/home/itssahil/PROJECTS/Mol_Feturizer/Test_systems_manuscript/rnas/4l81

>  <Rbt.Executable>
rbdock ($Id: //depot/dev/client3/rdock/2013.1/src/exe/rbdock.cxx#4 $)

>  <Rbt.Library>
libRbt.so (2013.1, Build901 2013/11/27)

>  <Rbt.Parameter_File>
/export/apps/rDock/src/rDock_2013.1_src/data/scripts/dock_solv.prm

>  <Rbt.Receptor>
prm/pocket_docking_6.prm

>  <SCORE>
-12.0922

>  <SCORE.INTER>
-11.1509

>  <SCORE.INTER.CONST>
1

>  <SCORE.INTER.POLAR>
0

>  <SCORE.INTER.ROT>
7

>  <SCORE.INTER.SOLV>
11.2774

>  <SCORE.INTER.VDW>
-19.4598

>  <SCORE.INTER.norm>
-0.412997

>  <SCORE.INTRA>
-0.94127

>  <SCORE.INTRA.DIHEDRAL>
-1.55116

>  <SCORE.INTRA.DIHEDRAL.0>
8.34559

>  <SCORE.INTRA.POLAR>
0

>  <SCORE.INTRA.POLAR.0>
0

>  <SCORE.INTRA.REPUL>
0

>  <SCORE.INTRA.REPUL.0>
0

>  <SCORE.INTRA.SOLV>
-0.59757

>  <SCORE.INTRA.SOLV.lig_0>
-48.829

>  <SCORE.INTRA.VDW>
0.133097

>  <SCORE.INTRA.VDW.0>
-1.77092

>  <SCORE.INTRA.norm>
-0.0348618

>  <SCORE.RESTR>
0

>  <SCORE.RESTR.CAVITY>
0

>  <SCORE.RESTR.norm>
0

>  <SCORE.SYSTEM>
0

>  <SCORE.SYSTEM.CONST>
0

>  <SCORE.SYSTEM.DIHEDRAL>
0

>  <SCORE.SYSTEM.SOLV>
0

>  <SCORE.SYSTEM.norm>
0

>  <SCORE.heavy>
27

>  <SCORE.norm>
-0.447859

>  <RMSD>
7.673

$$$$
ligand
 OpenBabel02271912153D
libRbt.so/2013.1/901 2013/11/27
 27 29  0  0  0  0  0  0  0  0999 V2000
   50.7582  -33.9542 -106.2852 N   0  0  0  0  0  0  0  0  0  0  0  0
   51.2119  -33.9885 -104.8903 C   0  0  2  0  0  0  0  0  0  0  0  0
   51.2530  -35.4230 -104.4075 C   0  0  0  0  0  0  0  0  0  0  0  0
   52.0147  -35.7474 -103.5090 O   0  0  0  0  0  0  0  0  0  0  0  0
   50.2754  -33.1847 -103.9781 C   0  0  0  0  0  0  0  0  0  0  0  0
   50.2535  -31.7175 -104.3826 C   0  0  0  0  0  0  0  0  0  0  0  0
   48.9732  -30.7416 -103.5040 S   0  0  2  0  0  0  0  0  0  0  0  0
   47.4008  -31.4488 -104.0932 C   0  0  0  0  0  0  0  0  0  0  0  0
   49.0639  -29.3161 -104.5849 C   0  0  0  0  0  0  0  0  0  0  0  0
   50.0227  -28.2564 -104.1109 C   0  0  1  0  0  0  0  0  0  0  0  0
   50.6160  -27.6476 -105.2704 O   0  0  0  0  0  0  0  0  0  0  0  0
   49.1237  -27.2460 -103.5204 C   0  0  1  0  0  0  0  0  0  0  0  0
   49.0641  -27.4256 -102.1063 O   0  0  0  0  0  0  0  0  0  0  0  0
   49.8238  -25.9625 -103.8437 C   0  0  1  0  0  0  0  0  0  0  0  0
   50.7857  -25.6431 -102.8169 O   0  0  0  0  0  0  0  0  0  0  0  0
   50.5560  -26.2008 -105.1983 C   0  0  2  0  0  0  0  0  0  0  0  0
   50.5049  -36.2568 -104.8870 O   0  0  0  0  0  0  0  0  0  0  0  0
   47.9601  -27.4013 -109.6726 N   0  0  0  0  0  0  0  0  0  0  0  0
   48.4995  -28.2601 -108.7728 C   0  0  0  0  0  0  0  0  0  0  0  0
   49.1011  -27.8231 -107.6467 N   0  0  0  0  0  0  0  0  0  0  0  0
   49.2637  -26.5089 -107.4230 C   0  0  0  0  0  0  0  0  0  0  0  0
   48.7412  -25.5588 -108.3753 C   0  0  0  0  0  0  0  0  0  0  0  0
   48.0635  -26.0636 -109.5248 C   0  0  0  0  0  0  0  0  0  0  0  0
   47.5309  -25.2109 -110.4702 N   0  0  0  0  0  0  0  0  0  0  0  0
   49.0389  -24.3354 -107.9220 N   0  0  0  0  0  0  0  0  0  0  0  0
   49.6921  -24.4469 -106.8039 C   0  0  0  0  0  0  0  0  0  0  0  0
   49.8551  -25.7635 -106.4408 N   0  0  0  0  0  0  0  0  0  0  0  0
  2  1  1  6  0  0  0
  2  3  1  0  0  0  0
  2  5  1  0  0  0  0
  3  4  1  0  0  0  0
  3 17  1  0  0  0  0
  5  6  1  0  0  0  0
  7  6  1  6  0  0  0
  7  8  1  0  0  0  0
  7  9  1  0  0  0  0
 10  9  1  6  0  0  0
 10 11  1  0  0  0  0
 10 12  1  0  0  0  0
 11 16  1  0  0  0  0
 12 13  1  1  0  0  0
 12 14  1  0  0  0  0
 14 15  1  1  0  0  0
 14 16  1  0  0  0  0
 16 27  1  6  0  0  0
 18 19  2  0  0  0  0
 18 23  1  0  0  0  0
 19 20  1  0  0  0  0
 20 21  2  0  0  0  0
 21 22  1  0  0  0  0
 21 27  1  0  0  0  0
 22 23  2  0  0  0  0
 22 25  1  0  0  0  0
 23 24  1  0  0  0  0
 25 26  2  0  0  0  0
 26 27  1  0  0  0  0
M  END
>  <CHROM.1>
153.68113190,-61.96351470,171.41419749,-65.39504573,-92.57826199,145.84665646
5.37613685,49.60334368,-29.12218023,-105.52357886,0.72091080,1.33596383,-2.66195075

>  <Name>
ligand

>  <RI>
0

>  <Rbt.Current_Directory>
/home/itssahil/PROJECTS/Mol_Feturizer/Test_systems_manuscript/rnas/4l81

>  <Rbt.Executable>
rbdock ($Id: //depot/dev/client3/rdock/2013.1/src/exe/rbdock.cxx#4 $)

>  <Rbt.Library>
libRbt.so (2013.1, Build901 2013/11/27)

>  <Rbt.Parameter_File>
/export/apps/rDock/src/rDock_2013.1_src/data/scripts/dock_solv.prm

>  <Rbt.Receptor>
prm/pocket_docking_7.prm

>  <SCORE>
-13.1905

>  <SCORE.INTER>
-11.899

>  <SCORE.INTER.CONST>
1

>  <SCORE.INTER.POLAR>
0

>  <SCORE.INTER.ROT>
7

>  <SCORE.INTER.SOLV>
10.583

>  <SCORE.INTER.VDW>
-19.727

>  <SCORE.INTER.norm>
-0.440705

>  <SCORE.INTRA>
-1.29223

>  <SCORE.INTRA.DIHEDRAL>
-0.160281

>  <SCORE.INTRA.DIHEDRAL.0>
8.34559

>  <SCORE.INTRA.POLAR>
0

>  <SCORE.INTRA.POLAR.0>
0

>  <SCORE.INTRA.REPUL>
0

>  <SCORE.INTRA.REPUL.0>
0

>  <SCORE.INTRA.SOLV>
-0.496316

>  <SCORE.INTRA.SOLV.lig_0>
-48.829

>  <SCORE.INTRA.VDW>
-0.963936

>  <SCORE.INTRA.VDW.0>
-1.77092

>  <SCORE.INTRA.norm>
-0.0478605

>  <SCORE.RESTR>
0.000769766

>  <SCORE.RESTR.CAVITY>
0.000769766

>  <SCORE.RESTR.norm>
2.85098e-05

>  <SCORE.SYSTEM>
0

>  <SCORE.SYSTEM.CONST>
0

>  <SCORE.SYSTEM.DIHEDRAL>
0

>  <SCORE.SYSTEM.SOLV>
0

>  <SCORE.SYSTEM.norm>
0

>  <SCORE.heavy>
27

>  <SCORE.norm>
-0.488537

>  <RMSD>
7.750

$$$$
ligand
 OpenBabel02271912153D
libRbt.so/2013.1/901 2013/11/27
 27 29  0  0  0  0  0  0  0  0999 V2000
   50.0126  -30.7074 -100.5434 N   0  0  0  0  0  0  0  0  0  0  0  0
   49.2323  -29.4659 -100.5939 C   0  0  2  0  0  0  0  0  0  0  0  0
   47.7946  -29.7572 -100.2184 C   0  0  0  0  0  0  0  0  0  0  0  0
   47.2713  -30.8075 -100.5586 O   0  0  0  0  0  0  0  0  0  0  0  0
   49.2621  -28.8437 -101.9965 C   0  0  0  0  0  0  0  0  0  0  0  0
   48.6292  -27.4594 -101.9881 C   0  0  0  0  0  0  0  0  0  0  0  0
   48.7047  -26.6172 -103.6155 S   0  0  2  0  0  0  0  0  0  0  0  0
   47.8176  -25.0497 -103.3403 C   0  0  0  0  0  0  0  0  0  0  0  0
   47.3809  -27.5624 -104.3659 C   0  0  0  0  0  0  0  0  0  0  0  0
   47.4088  -27.5545 -105.8712 C   0  0  1  0  0  0  0  0  0  0  0  0
   47.4800  -26.1854 -106.3041 O   0  0  0  0  0  0  0  0  0  0  0  0
   48.7202  -28.1591 -106.1748 C   0  0  1  0  0  0  0  0  0  0  0  0
   48.5527  -29.5457 -106.4661 O   0  0  0  0  0  0  0  0  0  0  0  0
   49.1365  -27.4237 -107.4110 C   0  0  1  0  0  0  0  0  0  0  0  0
   48.6120  -28.0782 -108.5849 O   0  0  0  0  0  0  0  0  0  0  0  0
   48.5289  -25.9943 -107.2867 C   0  0  2  0  0  0  0  0  0  0  0  0
   47.1595  -28.9630  -99.5469 O   0  0  0  0  0  0  0  0  0  0  0  0
   50.1374  -20.9336 -107.2574 N   0  0  0  0  0  0  0  0  0  0  0  0
   49.2140  -21.5038 -108.0698 C   0  0  0  0  0  0  0  0  0  0  0  0
   48.8631  -22.8009 -107.9453 N   0  0  0  0  0  0  0  0  0  0  0  0
   49.4873  -23.5974 -107.0624 C   0  0  0  0  0  0  0  0  0  0  0  0
   50.5064  -23.0417 -106.2049 C   0  0  0  0  0  0  0  0  0  0  0  0
   50.8072  -21.6529 -106.3321 C   0  0  0  0  0  0  0  0  0  0  0  0
   51.7636  -21.0547 -105.5371 N   0  0  0  0  0  0  0  0  0  0  0  0
   50.9648  -24.0355 -105.4349 N   0  0  0  0  0  0  0  0  0  0  0  0
   50.3376  -25.1316 -105.7426 C   0  0  0  0  0  0  0  0  0  0  0  0
   49.4085  -24.9227 -106.7350 N   0  0  0  0  0  0  0  0  0  0  0  0
  2  1  1  6  0  0  0
  2  3  1  0  0  0  0
  2  5  1  0  0  0  0
  3  4  1  0  0  0  0
  3 17  1  0  0  0  0
  5  6  1  0  0  0  0
  7  6  1  1  0  0  0
  7  8  1  0  0  0  0
  7  9  1  0  0  0  0
 10  9  1  1  0  0  0
 10 11  1  0  0  0  0
 10 12  1  0  0  0  0
 11 16  1  0  0  0  0
 12 13  1  6  0  0  0
 12 14  1  0  0  0  0
 14 15  1  6  0  0  0
 14 16  1  0  0  0  0
 16 27  1  1  0  0  0
 18 19  2  0  0  0  0
 18 23  1  0  0  0  0
 19 20  1  0  0  0  0
 20 21  2  0  0  0  0
 21 22  1  0  0  0  0
 21 27  1  0  0  0  0
 22 23  2  0  0  0  0
 22 25  1  0  0  0  0
 23 24  1  0  0  0  0
 25 26  2  0  0  0  0
 26 27  1  0  0  0  0
M  END
>  <CHROM.1>
-36.16066649,-171.53116424,177.09910635,177.27514866,-159.01206386,-51.99230402
-102.36713890,48.94364447,-26.30574621,-104.75193723,-2.17404634,-1.23631715
-1.29190060

>  <Name>
ligand

>  <RI>
0

>  <Rbt.Current_Directory>
/home/itssahil/PROJECTS/Mol_Feturizer/Test_systems_manuscript/rnas/4l81

>  <Rbt.Executable>
rbdock ($Id: //depot/dev/client3/rdock/2013.1/src/exe/rbdock.cxx#4 $)

>  <Rbt.Library>
libRbt.so (2013.1, Build901 2013/11/27)

>  <Rbt.Parameter_File>
/export/apps/rDock/src/rDock_2013.1_src/data/scripts/dock_solv.prm

>  <Rbt.Receptor>
prm/pocket_docking_7.prm

>  <SCORE>
-11.5799

>  <SCORE.INTER>
-8.80134

>  <SCORE.INTER.CONST>
1

>  <SCORE.INTER.POLAR>
0

>  <SCORE.INTER.ROT>
7

>  <SCORE.INTER.SOLV>
14.6565

>  <SCORE.INTER.VDW>
-19.0197

>  <SCORE.INTER.norm>
-0.325975

>  <SCORE.INTRA>
-2.77854

>  <SCORE.INTRA.DIHEDRAL>
-2.29819

>  <SCORE.INTRA.DIHEDRAL.0>
8.34559

>  <SCORE.INTRA.POLAR>
0

>  <SCORE.INTRA.POLAR.0>
0

>  <SCORE.INTRA.REPUL>
0

>  <SCORE.INTRA.REPUL.0>
0

>  <SCORE.INTRA.SOLV>
-0.966767

>  <SCORE.INTRA.SOLV.lig_0>
-48.829

>  <SCORE.INTRA.VDW>
-1.14606

>  <SCORE.INTRA.VDW.0>
-1.77092

>  <SCORE.INTRA.norm>
-0.102909

>  <SCORE.RESTR>
0

>  <SCORE.RESTR.CAVITY>
0

>  <SCORE.RESTR.norm>
0

>  <SCORE.SYSTEM>
0

>  <SCORE.SYSTEM.CONST>
0

>  <SCORE.SYSTEM.DIHEDRAL>
0

>  <SCORE.SYSTEM.SOLV>
0

>  <SCORE.SYSTEM.norm>
0

>  <SCORE.heavy>
27

>  <SCORE.norm>
-0.428884

>  <RMSD>
7.827

$$$$
ligand
 OpenBabel02271912153D
libRbt.so/2013.1/901 2013/11/27
 27 29  0  0  0  0  0  0  0  0999 V2000
   43.5191  -29.8694 -101.8164 N   0  0  0  0  0  0  0  0  0  0  0  0
   44.7735  -29.5462 -102.5055 C   0  0  2  0  0  0  0  0  0  0  0  0
   45.9006  -30.3660 -101.9138 C   0  0  0  0  0  0  0  0  0  0  0  0
   45.9730  -30.5291 -100.7051 O   0  0  0  0  0  0  0  0  0  0  0  0
   45.1187  -28.0571 -102.3689 C   0  0  0  0  0  0  0  0  0  0  0  0
   46.2064  -27.6607 -103.3571 C   0  0  0  0  0  0  0  0  0  0  0  0
   45.5528  -27.1834 -105.0028 S   0  0  2  0  0  0  0  0  0  0  0  0
   44.6768  -28.6743 -105.5767 C   0  0  0  0  0  0  0  0  0  0  0  0
   47.0983  -27.4093 -105.8798 C   0  0  0  0  0  0  0  0  0  0  0  0
   46.9810  -27.2300 -107.3701 C   0  0  1  0  0  0  0  0  0  0  0  0
   46.7861  -25.8299 -107.6321 O   0  0  0  0  0  0  0  0  0  0  0  0
   48.3387  -27.5604 -107.8446 C   0  0  1  0  0  0  0  0  0  0  0  0
   48.3730  -28.9141 -108.2939 O   0  0  0  0  0  0  0  0  0  0  0  0
   48.5096  -26.6316 -109.0066 C   0  0  1  0  0  0  0  0  0  0  0  0
   47.9898  -27.2330 -110.2106 O   0  0  0  0  0  0  0  0  0  0  0  0
   47.6912  -25.3520 -108.6590 C   0  0  2  0  0  0  0  0  0  0  0  0
   46.7241  -30.8963 -102.6388 O   0  0  0  0  0  0  0  0  0  0  0  0
   51.2157  -23.5337 -105.1277 N   0  0  0  0  0  0  0  0  0  0  0  0
   50.8028  -24.8132 -105.3012 C   0  0  0  0  0  0  0  0  0  0  0  0
   49.9264  -25.1512 -106.2701 N   0  0  0  0  0  0  0  0  0  0  0  0
   49.3632  -24.2084 -107.0432 C   0  0  0  0  0  0  0  0  0  0  0  0
   49.7429  -22.8276 -106.8655 C   0  0  0  0  0  0  0  0  0  0  0  0
   50.7143  -22.5214 -105.8665 C   0  0  0  0  0  0  0  0  0  0  0  0
   51.1300  -21.2232 -105.6503 N   0  0  0  0  0  0  0  0  0  0  0  0
   49.0403  -22.1046 -107.7456 N   0  0  0  0  0  0  0  0  0  0  0  0
   48.2720  -22.9006 -108.4279 C   0  0  0  0  0  0  0  0  0  0  0  0
   48.4324  -24.2119 -108.0450 N   0  0  0  0  0  0  0  0  0  0  0  0
  2  1  1  1  0  0  0
  2  3  1  0  0  0  0
  2  5  1  0  0  0  0
  3  4  1  0  0  0  0
  3 17  1  0  0  0  0
  5  6  1  0  0  0  0
  7  6  1  1  0  0  0
  7  8  1  0  0  0  0
  7  9  1  0  0  0  0
 10  9  1  1  0  0  0
 10 11  1  0  0  0  0
 10 12  1  0  0  0  0
 11 16  1  0  0  0  0
 12 13  1  6  0  0  0
 12 14  1  0  0  0  0
 14 15  1  6  0  0  0
 14 16  1  0  0  0  0
 16 27  1  1  0  0  0
 18 19  2  0  0  0  0
 18 23  1  0  0  0  0
 19 20  1  0  0  0  0
 20 21  2  0  0  0  0
 21 22  1  0  0  0  0
 21 27  1  0  0  0  0
 22 23  2  0  0  0  0
 22 25  1  0  0  0  0
 23 24  1  0  0  0  0
 25 26  2  0  0  0  0
 26 27  1  0  0  0  0
M  END
>  <CHROM.1>
-41.39911632,-165.76403957,86.78398922,-59.85830230,174.73736083,71.66373985
68.83633909,47.57477394,-26.53175630,-105.76421717,-2.58232339,-0.95439143
-1.58512063

>  <Name>
ligand

>  <RI>
0

>  <Rbt.Current_Directory>
/home/itssahil/PROJECTS/Mol_Feturizer/Test_systems_manuscript/rnas/4l81

>  <Rbt.Executable>
rbdock ($Id: //depot/dev/client3/rdock/2013.1/src/exe/rbdock.cxx#4 $)

>  <Rbt.Library>
libRbt.so (2013.1, Build901 2013/11/27)

>  <Rbt.Parameter_File>
/export/apps/rDock/src/rDock_2013.1_src/data/scripts/dock_solv.prm

>  <Rbt.Receptor>
prm/pocket_docking_7.prm

>  <SCORE>
-11.8989

>  <SCORE.INTER>
-9.68316

>  <SCORE.INTER.CONST>
1

>  <SCORE.INTER.POLAR>
0

>  <SCORE.INTER.ROT>
7

>  <SCORE.INTER.SOLV>
15.0075

>  <SCORE.INTER.VDW>
-19.7246

>  <SCORE.INTER.norm>
-0.358635

>  <SCORE.INTRA>
-2.21575

>  <SCORE.INTRA.DIHEDRAL>
-1.19794

>  <SCORE.INTRA.DIHEDRAL.0>
8.34559

>  <SCORE.INTRA.POLAR>
0

>  <SCORE.INTRA.POLAR.0>
0

>  <SCORE.INTRA.REPUL>
0

>  <SCORE.INTRA.REPUL.0>
0

>  <SCORE.INTRA.SOLV>
-0.696065

>  <SCORE.INTRA.SOLV.lig_0>
-48.829

>  <SCORE.INTRA.VDW>
-1.26875

>  <SCORE.INTRA.VDW.0>
-1.77092

>  <SCORE.INTRA.norm>
-0.082065

>  <SCORE.RESTR>
0

>  <SCORE.RESTR.CAVITY>
0

>  <SCORE.RESTR.norm>
0

>  <SCORE.SYSTEM>
0

>  <SCORE.SYSTEM.CONST>
0

>  <SCORE.SYSTEM.DIHEDRAL>
0

>  <SCORE.SYSTEM.SOLV>
0

>  <SCORE.SYSTEM.norm>
0

>  <SCORE.heavy>
27

>  <SCORE.norm>
-0.4407

>  <RMSD>
7.917

$$$$
ligand
 OpenBabel02271912153D
libRbt.so/2013.1/901 2013/11/27
 27 29  0  0  0  0  0  0  0  0999 V2000
   47.8362  -30.1388 -101.4995 N   0  0  0  0  0  0  0  0  0  0  0  0
   47.1521  -28.8412 -101.5319 C   0  0  2  0  0  0  0  0  0  0  0  0
   46.0167  -28.8435 -100.5300 C   0  0  0  0  0  0  0  0  0  0  0  0
   46.2041  -28.4517  -99.3880 O   0  0  0  0  0  0  0  0  0  0  0  0
   46.5828  -28.5440 -102.9258 C   0  0  0  0  0  0  0  0  0  0  0  0
   46.1485  -27.0892 -103.0343 C   0  0  0  0  0  0  0  0  0  0  0  0
   45.5475  -26.6341 -104.7061 S   0  0  2  0  0  0  0  0  0  0  0  0
   44.4124  -27.9889 -105.1485 C   0  0  0  0  0  0  0  0  0  0  0  0
   47.0084  -27.1941 -105.5783 C   0  0  0  0  0  0  0  0  0  0  0  0
   46.8982  -27.0868 -107.0761 C   0  0  1  0  0  0  0  0  0  0  0  0
   46.7404  -25.6970 -107.4085 O   0  0  0  0  0  0  0  0  0  0  0  0
   48.2475  -27.4758 -107.5296 C   0  0  1  0  0  0  0  0  0  0  0  0
   48.2471  -28.8507 -107.9104 O   0  0  0  0  0  0  0  0  0  0  0  0
   48.4445  -26.6112 -108.7361 C   0  0  1  0  0  0  0  0  0  0  0  0
   47.9110  -27.2586 -109.9099 O   0  0  0  0  0  0  0  0  0  0  0  0
   47.6592  -25.2949 -108.4554 C   0  0  2  0  0  0  0  0  0  0  0  0
   44.9013  -29.2041 -100.8627 O   0  0  0  0  0  0  0  0  0  0  0  0
   51.3146  -23.4132 -105.0945 N   0  0  0  0  0  0  0  0  0  0  0  0
   50.8869  -24.6935 -105.2200 C   0  0  0  0  0  0  0  0  0  0  0  0
   49.9757  -25.0496 -106.1495 N   0  0  0  0  0  0  0  0  0  0  0  0
   49.3933  -24.1230 -106.9278 C   0  0  0  0  0  0  0  0  0  0  0  0
   49.7888  -22.7410 -106.7997 C   0  0  0  0  0  0  0  0  0  0  0  0
   50.7957  -22.4166 -105.8425 C   0  0  0  0  0  0  0  0  0  0  0  0
   51.2278  -21.1166 -105.6749 N   0  0  0  0  0  0  0  0  0  0  0  0
   49.0619  -22.0358 -107.6744 N   0  0  0  0  0  0  0  0  0  0  0  0
   48.2652  -22.8431 -108.3091 C   0  0  0  0  0  0  0  0  0  0  0  0
   48.4290  -24.1451 -107.8971 N   0  0  0  0  0  0  0  0  0  0  0  0
  2  1  1  6  0  0  0
  2  3  1  0  0  0  0
  2  5  1  0  0  0  0
  3  4  1  0  0  0  0
  3 17  1  0  0  0  0
  5  6  1  0  0  0  0
  7  6  1  1  0  0  0
  7  8  1  0  0  0  0
  7  9  1  0  0  0  0
 10  9  1  1  0  0  0
 10 11  1  0  0  0  0
 10 12  1  0  0  0  0
 11 16  1  0  0  0  0
 12 13  1  6  0  0  0
 12 14  1  0  0  0  0
 14 15  1  6  0  0  0
 14 16  1  0  0  0  0
 16 27  1  1  0  0  0
 18 19  2  0  0  0  0
 18 23  1  0  0  0  0
 19 20  1  0  0  0  0
 20 21  2  0  0  0  0
 21 22  1  0  0  0  0
 21 27  1  0  0  0  0
 22 23  2  0  0  0  0
 22 25  1  0  0  0  0
 23 24  1  0  0  0  0
 25 26  2  0  0  0  0
 26 27  1  0  0  0  0
M  END
>  <CHROM.1>
91.66853468,-167.66482036,176.62270256,46.72572516,175.92450013,62.47240821
71.52905376,47.78140729,-26.18649088,-105.40944448,-2.32203215,-0.91873300
-1.48419674

>  <Name>
ligand

>  <RI>
0

>  <Rbt.Current_Directory>
/home/itssahil/PROJECTS/Mol_Feturizer/Test_systems_manuscript/rnas/4l81

>  <Rbt.Executable>
rbdock ($Id: //depot/dev/client3/rdock/2013.1/src/exe/rbdock.cxx#4 $)

>  <Rbt.Library>
libRbt.so (2013.1, Build901 2013/11/27)

>  <Rbt.Parameter_File>
/export/apps/rDock/src/rDock_2013.1_src/data/scripts/dock_solv.prm

>  <Rbt.Receptor>
prm/pocket_docking_8.prm

>  <SCORE>
-12.7327

>  <SCORE.INTER>
-10.6527

>  <SCORE.INTER.CONST>
1

>  <SCORE.INTER.POLAR>
0

>  <SCORE.INTER.ROT>
7

>  <SCORE.INTER.SOLV>
10.646

>  <SCORE.INTER.VDW>
-18.9171

>  <SCORE.INTER.norm>
-0.394546

>  <SCORE.INTRA>
-2.07996

>  <SCORE.INTRA.DIHEDRAL>
-4.28414

>  <SCORE.INTRA.DIHEDRAL.0>
8.34559

>  <SCORE.INTRA.POLAR>
0

>  <SCORE.INTRA.POLAR.0>
0

>  <SCORE.INTRA.REPUL>
0

>  <SCORE.INTRA.REPUL.0>
0

>  <SCORE.INTRA.SOLV>
-1.31057

>  <SCORE.INTRA.SOLV.lig_0>
-48.829

>  <SCORE.INTRA.VDW>
0.717392

>  <SCORE.INTRA.VDW.0>
-1.77092

>  <SCORE.INTRA.norm>
-0.0770355

>  <SCORE.RESTR>
0

>  <SCORE.RESTR.CAVITY>
0

>  <SCORE.RESTR.norm>
0

>  <SCORE.SYSTEM>
0

>  <SCORE.SYSTEM.CONST>
0

>  <SCORE.SYSTEM.DIHEDRAL>
0

>  <SCORE.SYSTEM.SOLV>
0

>  <SCORE.SYSTEM.norm>
0

>  <SCORE.heavy>
27

>  <SCORE.norm>
-0.471581

>  <RMSD>
7.920

$$$$
ligand
 OpenBabel02271912153D
libRbt.so/2013.1/901 2013/11/27
 27 29  0  0  0  0  0  0  0  0999 V2000
   46.4957  -30.6006 -102.2835 N   0  0  0  0  0  0  0  0  0  0  0  0
   46.0189  -29.3679 -101.6466 C   0  0  2  0  0  0  0  0  0  0  0  0
   44.9244  -29.7021 -100.6551 C   0  0  0  0  0  0  0  0  0  0  0  0
   43.9846  -28.9377 -100.4965 O   0  0  0  0  0  0  0  0  0  0  0  0
   45.4646  -28.3813 -102.6833 C   0  0  0  0  0  0  0  0  0  0  0  0
   46.5553  -27.9422 -103.6500 C   0  0  0  0  0  0  0  0  0  0  0  0
   45.9050  -27.1010 -105.1442 S   0  0  2  0  0  0  0  0  0  0  0  0
   44.8165  -28.3454 -105.9100 C   0  0  0  0  0  0  0  0  0  0  0  0
   47.3702  -27.3553 -106.1428 C   0  0  0  0  0  0  0  0  0  0  0  0
   47.1668  -27.0562 -107.6043 C   0  0  1  0  0  0  0  0  0  0  0  0
   46.9101  -25.6476 -107.7348 O   0  0  0  0  0  0  0  0  0  0  0  0
   48.5076  -27.2926 -108.1737 C   0  0  1  0  0  0  0  0  0  0  0  0
   48.5641  -28.6014 -108.7388 O   0  0  0  0  0  0  0  0  0  0  0  0
   48.5837  -26.2636 -109.2588 C   0  0  1  0  0  0  0  0  0  0  0  0
   48.0207  -26.7815 -110.4820 O   0  0  0  0  0  0  0  0  0  0  0  0
   47.7417  -25.0504 -108.7614 C   0  0  2  0  0  0  0  0  0  0  0  0
   44.9546  -30.7494 -100.0329 O   0  0  0  0  0  0  0  0  0  0  0  0
   51.2069  -23.3849 -105.0986 N   0  0  0  0  0  0  0  0  0  0  0  0
   50.7930  -24.6551 -105.3292 C   0  0  0  0  0  0  0  0  0  0  0  0
   49.9334  -24.9516 -106.3263 N   0  0  0  0  0  0  0  0  0  0  0  0
   49.3876  -23.9773 -107.0722 C   0  0  0  0  0  0  0  0  0  0  0  0
   49.7685  -22.6059 -106.8340 C   0  0  0  0  0  0  0  0  0  0  0  0
   50.7224  -22.3426 -105.8064 C   0  0  0  0  0  0  0  0  0  0  0  0
   51.1384  -21.0556 -105.5322 N   0  0  0  0  0  0  0  0  0  0  0  0
   49.0846  -21.8465 -107.6979 N   0  0  0  0  0  0  0  0  0  0  0  0
   48.3263  -22.6122 -108.4246 C   0  0  0  0  0  0  0  0  0  0  0  0
   48.4753  -23.9380 -108.0901 N   0  0  0  0  0  0  0  0  0  0  0  0
  2  1  1  6  0  0  0
  2  3  1  0  0  0  0
  2  5  1  0  0  0  0
  3  4  1  0  0  0  0
  3 17  1  0  0  0  0
  5  6  1  0  0  0  0
  7  6  1  1  0  0  0
  7  8  1  0  0  0  0
  7  9  1  0  0  0  0
 10  9  1  1  0  0  0
 10 11  1  0  0  0  0
 10 12  1  0  0  0  0
 11 16  1  0  0  0  0
 12 13  1  6  0  0  0
 12 14  1  0  0  0  0
 14 15  1  6  0  0  0
 14 16  1  0  0  0  0
 16 27  1  1  0  0  0
 18 19  2  0  0  0  0
 18 23  1  0  0  0  0
 19 20  1  0  0  0  0
 20 21  2  0  0  0  0
 21 22  1  0  0  0  0
 21 27  1  0  0  0  0
 22 23  2  0  0  0  0
 22 25  1  0  0  0  0
 23 24  1  0  0  0  0
 25 26  2  0  0  0  0
 26 27  1  0  0  0  0
M  END
>  <CHROM.1>
-144.60176722,-62.96483120,165.93443096,-59.41103764,167.71723456,65.73691758
63.47739794,47.64478328,-26.31413651,-105.71361916,2.53478548,0.97429102
1.48752518

>  <Name>
ligand

>  <RI>
0

>  <Rbt.Current_Directory>
/home/itssahil/PROJECTS/Mol_Feturizer/Test_systems_manuscript/rnas/4l81

>  <Rbt.Executable>
rbdock ($Id: //depot/dev/client3/rdock/2013.1/src/exe/rbdock.cxx#4 $)

>  <Rbt.Library>
libRbt.so (2013.1, Build901 2013/11/27)

>  <Rbt.Parameter_File>
/export/apps/rDock/src/rDock_2013.1_src/data/scripts/dock_solv.prm

>  <Rbt.Receptor>
prm/pocket_docking_8.prm

>  <SCORE>
-13.5564

>  <SCORE.INTER>
-11.4672

>  <SCORE.INTER.CONST>
1

>  <SCORE.INTER.POLAR>
0

>  <SCORE.INTER.ROT>
7

>  <SCORE.INTER.SOLV>
10.7151

>  <SCORE.INTER.VDW>
-19.4832

>  <SCORE.INTER.norm>
-0.424712

>  <SCORE.INTRA>
-2.0892

>  <SCORE.INTRA.DIHEDRAL>
-3.77516

>  <SCORE.INTRA.DIHEDRAL.0>
8.34559

>  <SCORE.INTRA.POLAR>
0

>  <SCORE.INTRA.POLAR.0>
0

>  <SCORE.INTRA.REPUL>
0

>  <SCORE.INTRA.REPUL.0>
0

>  <SCORE.INTRA.SOLV>
-0.430649

>  <SCORE.INTRA.SOLV.lig_0>
-48.829

>  <SCORE.INTRA.VDW>
0.0137022

>  <SCORE.INTRA.VDW.0>
-1.77092

>  <SCORE.INTRA.norm>
-0.0773779

>  <SCORE.RESTR>
0

>  <SCORE.RESTR.CAVITY>
0

>  <SCORE.RESTR.norm>
0

>  <SCORE.SYSTEM>
0

>  <SCORE.SYSTEM.CONST>
0

>  <SCORE.SYSTEM.DIHEDRAL>
0

>  <SCORE.SYSTEM.SOLV>
0

>  <SCORE.SYSTEM.norm>
0

>  <SCORE.heavy>
27

>  <SCORE.norm>
-0.50209

>  <RMSD>
8.085

$$$$
ligand
 OpenBabel02271912153D
libRbt.so/2013.1/901 2013/11/27
 27 29  0  0  0  0  0  0  0  0999 V2000
   47.0428  -29.8592 -101.9323 N   0  0  0  0  0  0  0  0  0  0  0  0
   46.3565  -28.6516 -101.4596 C   0  0  2  0  0  0  0  0  0  0  0  0
   45.3186  -29.0325 -100.4250 C   0  0  0  0  0  0  0  0  0  0  0  0
   44.2412  -29.4901 -100.7750 O   0  0  0  0  0  0  0  0  0  0  0  0
   45.6605  -27.9165 -102.6131 C   0  0  0  0  0  0  0  0  0  0  0  0
   46.6651  -27.5155 -103.6840 C   0  0  0  0  0  0  0  0  0  0  0  0
   45.8820  -26.8200 -105.1894 S   0  0  2  0  0  0  0  0  0  0  0  0
   44.8086  -28.1652 -105.7875 C   0  0  0  0  0  0  0  0  0  0  0  0
   47.2919  -27.0863 -106.2619 C   0  0  0  0  0  0  0  0  0  0  0  0
   47.0384  -26.7160 -107.6991 C   0  0  1  0  0  0  0  0  0  0  0  0
   46.8458  -25.2927 -107.7607 O   0  0  0  0  0  0  0  0  0  0  0  0
   48.3390  -26.9914 -108.3395 C   0  0  1  0  0  0  0  0  0  0  0  0
   48.3056  -28.2762 -108.9588 O   0  0  0  0  0  0  0  0  0  0  0  0
   48.4172  -25.9220 -109.3847 C   0  0  1  0  0  0  0  0  0  0  0  0
   47.7753  -26.3602 -110.6001 O   0  0  0  0  0  0  0  0  0  0  0  0
   47.6591  -24.6925 -108.8001 C   0  0  2  0  0  0  0  0  0  0  0  0
   45.5614  -28.9173  -99.2364 O   0  0  0  0  0  0  0  0  0  0  0  0
   51.2729  -23.3359 -105.1534 N   0  0  0  0  0  0  0  0  0  0  0  0
   50.7689  -24.5700 -105.4000 C   0  0  0  0  0  0  0  0  0  0  0  0
   49.8796  -24.7886 -106.3911 N   0  0  0  0  0  0  0  0  0  0  0  0
   49.3947  -23.7659 -107.1138 C   0  0  0  0  0  0  0  0  0  0  0  0
   49.8728  -22.4287 -106.8577 C   0  0  0  0  0  0  0  0  0  0  0  0
   50.8543  -22.2503 -105.8377 C   0  0  0  0  0  0  0  0  0  0  0  0
   51.3620  -21.0002 -105.5474 N   0  0  0  0  0  0  0  0  0  0  0  0
   49.2338  -21.6086 -107.7003 N   0  0  0  0  0  0  0  0  0  0  0  0
   48.4159  -22.3071 -108.4301 C   0  0  0  0  0  0  0  0  0  0  0  0
   48.4759  -23.6456 -108.1196 N   0  0  0  0  0  0  0  0  0  0  0  0
  2  1  1  6  0  0  0
  2  3  1  0  0  0  0
  2  5  1  0  0  0  0
  3  4  1  0  0  0  0
  3 17  1  0  0  0  0
  5  6  1  0  0  0  0
  7  6  1  1  0  0  0
  7  8  1  0  0  0  0
  7  9  1  0  0  0  0
 10  9  1  1  0  0  0
 10 11  1  0  0  0  0
 10 12  1  0  0  0  0
 11 16  1  0  0  0  0
 12 13  1  6  0  0  0
 12 14  1  0  0  0  0
 14 15  1  6  0  0  0
 14 16  1  0  0  0  0
 16 27  1  1  0  0  0
 18 19  2  0  0  0  0
 18 23  1  0  0  0  0
 19 20  1  0  0  0  0
 20 21  2  0  0  0  0
 21 22  1  0  0  0  0
 21 27  1  0  0  0  0
 22 23  2  0  0  0  0
 22 25  1  0  0  0  0
 23 24  1  0  0  0  0
 25 26  2  0  0  0  0
 26 27  1  0  0  0  0
M  END
>  <CHROM.1>
-78.97106728,-59.02049411,172.78782062,-59.84125996,176.13655152,66.28295298
60.79635980,47.71099612,-25.97359852,-105.70884275,-2.35885194,-0.91917645
-1.53340228

>  <Name>
ligand

>  <RI>
0

>  <Rbt.Current_Directory>
/home/itssahil/PROJECTS/Mol_Feturizer/Test_systems_manuscript/rnas/4l81

>  <Rbt.Executable>
rbdock ($Id: //depot/dev/client3/rdock/2013.1/src/exe/rbdock.cxx#4 $)

>  <Rbt.Library>
libRbt.so (2013.1, Build901 2013/11/27)

>  <Rbt.Parameter_File>
/export/apps/rDock/src/rDock_2013.1_src/data/scripts/dock_solv.prm

>  <Rbt.Receptor>
prm/pocket_docking_7.prm

>  <SCORE>
-15.8909

>  <SCORE.INTER>
-12.5592

>  <SCORE.INTER.CONST>
1

>  <SCORE.INTER.POLAR>
0

>  <SCORE.INTER.ROT>
7

>  <SCORE.INTER.SOLV>
10.4888

>  <SCORE.INTER.VDW>
-20.1357

>  <SCORE.INTER.norm>
-0.465155

>  <SCORE.INTRA>
-3.33169

>  <SCORE.INTRA.DIHEDRAL>
-4.48836

>  <SCORE.INTRA.DIHEDRAL.0>
8.34559

>  <SCORE.INTRA.POLAR>
0

>  <SCORE.INTRA.POLAR.0>
0

>  <SCORE.INTRA.REPUL>
0

>  <SCORE.INTRA.REPUL.0>
0

>  <SCORE.INTRA.SOLV>
-0.582967

>  <SCORE.INTRA.SOLV.lig_0>
-48.829

>  <SCORE.INTRA.VDW>
-0.796028

>  <SCORE.INTRA.VDW.0>
-1.77092

>  <SCORE.INTRA.norm>
-0.123396

>  <SCORE.RESTR>
0

>  <SCORE.RESTR.CAVITY>
0

>  <SCORE.RESTR.norm>
0

>  <SCORE.SYSTEM>
0

>  <SCORE.SYSTEM.CONST>
0

>  <SCORE.SYSTEM.DIHEDRAL>
0

>  <SCORE.SYSTEM.SOLV>
0

>  <SCORE.SYSTEM.norm>
0

>  <SCORE.heavy>
27

>  <SCORE.norm>
-0.588551

>  <RMSD>
8.227

$$$$
ligand
 OpenBabel02271912153D
libRbt.so/2013.1/901 2013/11/27
 27 29  0  0  0  0  0  0  0  0999 V2000
   52.0326  -33.4490 -104.0507 N   0  0  0  0  0  0  0  0  0  0  0  0
   51.7003  -32.6123 -102.8921 C   0  0  2  0  0  0  0  0  0  0  0  0
   51.9822  -33.3795 -101.6175 C   0  0  0  0  0  0  0  0  0  0  0  0
   52.3210  -34.5523 -101.6683 O   0  0  0  0  0  0  0  0  0  0  0  0
   50.2221  -32.1998 -102.9061 C   0  0  0  0  0  0  0  0  0  0  0  0
   50.0164  -30.9517 -103.7527 C   0  0  0  0  0  0  0  0  0  0  0  0
   50.7379  -29.4406 -103.0048 S   0  0  2  0  0  0  0  0  0  0  0  0
   49.6479  -29.0885 -101.5880 C   0  0  0  0  0  0  0  0  0  0  0  0
   50.0328  -28.3006 -104.1931 C   0  0  0  0  0  0  0  0  0  0  0  0
   50.3348  -26.8552 -103.8990 C   0  0  1  0  0  0  0  0  0  0  0  0
   50.8073  -26.2472 -105.1131 O   0  0  0  0  0  0  0  0  0  0  0  0
   48.9964  -26.2901 -103.6402 C   0  0  1  0  0  0  0  0  0  0  0  0
   48.7633  -26.2350 -102.2338 O   0  0  0  0  0  0  0  0  0  0  0  0
   49.1189  -24.9038 -104.1927 C   0  0  1  0  0  0  0  0  0  0  0  0
   49.6428  -24.0084 -103.1902 O   0  0  0  0  0  0  0  0  0  0  0  0
   50.1158  -25.0025 -105.3863 C   0  0  2  0  0  0  0  0  0  0  0  0
   51.9059  -32.8257 -100.5347 O   0  0  0  0  0  0  0  0  0  0  0  0
   48.2359  -22.8213 -109.8479 N   0  0  0  0  0  0  0  0  0  0  0  0
   48.6703  -22.1827 -108.7338 C   0  0  0  0  0  0  0  0  0  0  0  0
   49.1668  -22.8582 -107.6764 N   0  0  0  0  0  0  0  0  0  0  0  0
   49.1644  -24.2011 -107.6593 C   0  0  0  0  0  0  0  0  0  0  0  0
   48.6727  -24.9227 -108.8082 C   0  0  0  0  0  0  0  0  0  0  0  0
   48.2082  -24.1686 -109.9266 C   0  0  0  0  0  0  0  0  0  0  0  0
   47.7339  -24.7947 -111.0614 N   0  0  0  0  0  0  0  0  0  0  0  0
   48.7749  -26.2282 -108.5325 N   0  0  0  0  0  0  0  0  0  0  0  0
   49.2669  -26.3701 -107.3379 C   0  0  0  0  0  0  0  0  0  0  0  0
   49.5346  -25.1549 -106.7520 N   0  0  0  0  0  0  0  0  0  0  0  0
  2  1  1  6  0  0  0
  2  3  1  0  0  0  0
  2  5  1  0  0  0  0
  3  4  1  0  0  0  0
  3 17  1  0  0  0  0
  5  6  1  0  0  0  0
  7  6  1  6  0  0  0
  7  8  1  0  0  0  0
  7  9  1  0  0  0  0
 10  9  1  6  0  0  0
 10 11  1  0  0  0  0
 10 12  1  0  0  0  0
 11 16  1  0  0  0  0
 12 13  1  1  0  0  0
 12 14  1  0  0  0  0
 14 15  1  1  0  0  0
 14 16  1  0  0  0  0
 16 27  1  6  0  0  0
 18 19  2  0  0  0  0
 18 23  1  0  0  0  0
 19 20  1  0  0  0  0
 20 21  2  0  0  0  0
 21 22  1  0  0  0  0
 21 27  1  0  0  0  0
 22 23  2  0  0  0  0
 22 25  1  0  0  0  0
 23 24  1  0  0  0  0
 25 26  2  0  0  0  0
 26 27  1  0  0  0  0
M  END
>  <CHROM.1>
-5.66299349,-85.34948798,-69.41396280,-71.10691209,177.04171450,131.42772134
-156.91390386,49.92028761,-27.59342798,-104.96312082,-0.18709593,1.31456332
-2.01186010

>  <Name>
ligand

>  <RI>
0

>  <Rbt.Current_Directory>
/home/itssahil/PROJECTS/Mol_Feturizer/Test_systems_manuscript/rnas/4l81

>  <Rbt.Executable>
rbdock ($Id: //depot/dev/client3/rdock/2013.1/src/exe/rbdock.cxx#4 $)

>  <Rbt.Library>
libRbt.so (2013.1, Build901 2013/11/27)

>  <Rbt.Parameter_File>
/export/apps/rDock/src/rDock_2013.1_src/data/scripts/dock_solv.prm

>  <Rbt.Receptor>
prm/pocket_docking_7.prm

>  <SCORE>
-12.2531

>  <SCORE.INTER>
-12.6464

>  <SCORE.INTER.CONST>
1

>  <SCORE.INTER.POLAR>
0

>  <SCORE.INTER.ROT>
7

>  <SCORE.INTER.SOLV>
12.528

>  <SCORE.INTER.VDW>
-20.8736

>  <SCORE.INTER.norm>
-0.468386

>  <SCORE.INTRA>
0.393362

>  <SCORE.INTRA.DIHEDRAL>
2.10196

>  <SCORE.INTRA.DIHEDRAL.0>
8.34559

>  <SCORE.INTRA.POLAR>
0

>  <SCORE.INTRA.POLAR.0>
0

>  <SCORE.INTRA.REPUL>
0

>  <SCORE.INTRA.REPUL.0>
0

>  <SCORE.INTRA.SOLV>
-0.369475

>  <SCORE.INTRA.SOLV.lig_0>
-48.829

>  <SCORE.INTRA.VDW>
-0.472882

>  <SCORE.INTRA.VDW.0>
-1.77092

>  <SCORE.INTRA.norm>
0.014569

>  <SCORE.RESTR>
0

>  <SCORE.RESTR.CAVITY>
0

>  <SCORE.RESTR.norm>
0

>  <SCORE.SYSTEM>
0

>  <SCORE.SYSTEM.CONST>
0

>  <SCORE.SYSTEM.DIHEDRAL>
0

>  <SCORE.SYSTEM.SOLV>
0

>  <SCORE.SYSTEM.norm>
0

>  <SCORE.heavy>
27

>  <SCORE.norm>
-0.453817

>  <RMSD>
8.357

$$$$
ligand
 OpenBabel02271912153D
libRbt.so/2013.1/901 2013/11/27
 27 29  0  0  0  0  0  0  0  0999 V2000
   48.9881  -19.0164 -105.6598 N   0  0  0  0  0  0  0  0  0  0  0  0
   49.2289  -20.4355 -105.9444 C   0  0  2  0  0  0  0  0  0  0  0  0
   50.7166  -20.6759 -106.0916 C   0  0  0  0  0  0  0  0  0  0  0  0
   51.3727  -20.0061 -106.8749 O   0  0  0  0  0  0  0  0  0  0  0  0
   48.5255  -20.8737 -107.2361 C   0  0  0  0  0  0  0  0  0  0  0  0
   47.0170  -20.9262 -107.0399 C   0  0  0  0  0  0  0  0  0  0  0  0
   46.1246  -21.6544 -108.4671 S   0  0  2  0  0  0  0  0  0  0  0  0
   44.4178  -21.8549 -107.8619 C   0  0  0  0  0  0  0  0  0  0  0  0
   46.7133  -23.3266 -108.2099 C   0  0  0  0  0  0  0  0  0  0  0  0
   47.7685  -23.7556 -109.1944 C   0  0  1  0  0  0  0  0  0  0  0  0
   48.5603  -24.7823 -108.5731 O   0  0  0  0  0  0  0  0  0  0  0  0
   46.9777  -24.4170 -110.2502 C   0  0  1  0  0  0  0  0  0  0  0  0
   46.7502  -23.5031 -111.3219 O   0  0  0  0  0  0  0  0  0  0  0  0
   47.8925  -25.5141 -110.6995 C   0  0  1  0  0  0  0  0  0  0  0  0
   48.7836  -25.0349 -111.7279 O   0  0  0  0  0  0  0  0  0  0  0  0
   48.7125  -25.9327 -109.4423 C   0  0  2  0  0  0  0  0  0  0  0  0
   51.2765  -21.5147 -105.4076 O   0  0  0  0  0  0  0  0  0  0  0  0
   45.2655  -28.0002 -105.9722 N   0  0  0  0  0  0  0  0  0  0  0  0
   45.3408  -26.7154 -106.3983 C   0  0  0  0  0  0  0  0  0  0  0  0
   46.2442  -26.3257 -107.3220 N   0  0  0  0  0  0  0  0  0  0  0  0
   47.1632  -27.1874 -107.7872 C   0  0  0  0  0  0  0  0  0  0  0  0
   47.1460  -28.5559 -107.3297 C   0  0  0  0  0  0  0  0  0  0  0  0
   46.1390  -28.9387 -106.3944 C   0  0  0  0  0  0  0  0  0  0  0  0
   46.0588  -30.2333 -105.9229 N   0  0  0  0  0  0  0  0  0  0  0  0
   48.1559  -29.1914 -107.9355 N   0  0  0  0  0  0  0  0  0  0  0  0
   48.7846  -28.3506 -108.7017 C   0  0  0  0  0  0  0  0  0  0  0  0
   48.2139  -27.1000 -108.6580 N   0  0  0  0  0  0  0  0  0  0  0  0
  2  1  1  6  0  0  0
  2  3  1  0  0  0  0
  2  5  1  0  0  0  0
  3  4  1  0  0  0  0
  3 17  1  0  0  0  0
  5  6  1  0  0  0  0
  7  6  1  1  0  0  0
  7  8  1  0  0  0  0
  7  9  1  0  0  0  0
 10  9  1  1  0  0  0
 10 11  1  0  0  0  0
 10 12  1  0  0  0  0
 11 16  1  0  0  0  0
 12 13  1  6  0  0  0
 12 14  1  0  0  0  0
 14 15  1  6  0  0  0
 14 16  1  0  0  0  0
 16 27  1  1  0  0  0
 18 19  2  0  0  0  0
 18 23  1  0  0  0  0
 19 20  1  0  0  0  0
 20 21  2  0  0  0  0
 21 22  1  0  0  0  0
 21 27  1  0  0  0  0
 22 23  2  0  0  0  0
 22 25  1  0  0  0  0
 23 24  1  0  0  0  0
 25 26  2  0  0  0  0
 26 27  1  0  0  0  0
M  END
>  <CHROM.1>
-53.42236868,-70.97187575,-172.32002987,170.71708746,-105.34828454,154.46229488
37.58348674,47.67566807,-24.34280511,-107.92588798,-0.87515230,1.14769512
2.58663411

>  <Name>
ligand

>  <RI>
0

>  <Rbt.Current_Directory>
/home/itssahil/PROJECTS/Mol_Feturizer/Test_systems_manuscript/rnas/4l81

>  <Rbt.Executable>
rbdock ($Id: //depot/dev/client3/rdock/2013.1/src/exe/rbdock.cxx#4 $)

>  <Rbt.Library>
libRbt.so (2013.1, Build901 2013/11/27)

>  <Rbt.Parameter_File>
/export/apps/rDock/src/rDock_2013.1_src/data/scripts/dock_solv.prm

>  <Rbt.Receptor>
prm/pocket_docking_8.prm

>  <SCORE>
-12.7175

>  <SCORE.INTER>
-11.1942

>  <SCORE.INTER.CONST>
1

>  <SCORE.INTER.POLAR>
0

>  <SCORE.INTER.ROT>
7

>  <SCORE.INTER.SOLV>
8.36353

>  <SCORE.INTER.VDW>
-18.5173

>  <SCORE.INTER.norm>
-0.4146

>  <SCORE.INTRA>
-1.52333

>  <SCORE.INTRA.DIHEDRAL>
0.619867

>  <SCORE.INTRA.DIHEDRAL.0>
8.34559

>  <SCORE.INTRA.POLAR>
0

>  <SCORE.INTRA.POLAR.0>
0

>  <SCORE.INTRA.REPUL>
0

>  <SCORE.INTRA.REPUL.0>
0

>  <SCORE.INTRA.SOLV>
-0.524118

>  <SCORE.INTRA.SOLV.lig_0>
-48.829

>  <SCORE.INTRA.VDW>
-1.5712

>  <SCORE.INTRA.VDW.0>
-1.77092

>  <SCORE.INTRA.norm>
-0.0564196

>  <SCORE.RESTR>
0

>  <SCORE.RESTR.CAVITY>
0

>  <SCORE.RESTR.norm>
0

>  <SCORE.SYSTEM>
0

>  <SCORE.SYSTEM.CONST>
0

>  <SCORE.SYSTEM.DIHEDRAL>
0

>  <SCORE.SYSTEM.SOLV>
0

>  <SCORE.SYSTEM.norm>
0

>  <SCORE.heavy>
27

>  <SCORE.norm>
-0.471019

>  <RMSD>
8.357

$$$$
