@<TRIPOS>MOLECULE
4l81_rdock.pdb
 2074 2324 0 0 0
SMALL
GASTEIGER

@<TRIPOS>ATOM
      1  P         66.1930  -27.3610  -96.7670 P.3     1  G1          0.1280
      2  C5'       66.5700  -30.0300  -96.7330 C.3     1  G1          0.1795
      3  O5'       65.6600  -28.9130  -96.6720 O.3     1  G1         -0.3259
      4  C4'       65.8490  -31.3400  -96.4340 C.3     1  G1          0.1772
      5  O4'       65.1460  -31.3020  -95.1580 O.3     1  G1         -0.3307
      6  C3'       64.7920  -31.7640  -97.4330 C.3     1  G1          0.1860
      7  O3'       65.3890  -32.4560  -98.5130 O.3     1  G1         -0.3112
      8  C2'       63.9160  -32.7040  -96.6160 C.3     1  G1          0.2309
      9  O2'       64.4930  -33.9870  -96.5100 O.3     1  G1         -0.2156
     10  C1'       63.8990  -31.9940  -95.2620 C.3     1  G1          0.2408
     11  N1        58.8670  -31.0250  -94.8970 N.ar    1  G1         -0.1709
     12  C2        59.4940  -32.2360  -94.9700 C.ar    1  G1          0.2606
     13  N2        58.6880  -33.2970  -94.9780 N.pl3   1  G1         -0.0859
     14  N3        60.8170  -32.3930  -95.0440 N.ar    1  G1         -0.1918
     15  C4        61.4570  -31.2060  -95.0620 C.ar    1  G1          0.1723
     16  C5        60.9060  -29.9420  -95.0080 C.ar    1  G1          0.1748
     17  C6        59.5120  -29.7980  -94.9170 C.ar    1  G1          0.3023
     18  O6        58.8610  -28.7560  -94.8620 O.2     1  G1         -0.2633
     19  N7        61.8910  -28.9720  -95.0480 N.ar    1  G1         -0.2173
     20  C8        63.0070  -29.6400  -95.1290 C.ar    1  G1          0.1817
     21  N9        62.8280  -31.0010  -95.1510 N.ar    1  G1         -0.2693
     22  OP1       65.3130  -26.7800  -97.8620 O.3     1  G1         -0.1955
     23  OP2       66.0120  -26.5740  -95.4020 O.co2   1  G1         -0.7863
     24  P         64.7690  -32.3080  -99.9810 P.3     2  G2          0.2141
     25  C5'       63.4390  -34.5540  -99.7530 C.3     2  G2          0.1812
     26  O5'       63.4160  -33.1450  -99.8920 O.3     2  G2         -0.3114
     27  C4'       62.0350  -35.0980  -99.7900 C.3     2  G2          0.1773
     28  O4'       61.3290  -34.6700  -98.6050 O.3     2  G2         -0.3307
     29  C3'       61.1600  -34.5950 -100.9210 C.3     2  G2          0.1860
     30  O3'       61.4020  -35.3330 -102.1100 O.3     2  G2         -0.3112
     31  C2'       59.7670  -34.8420 -100.3620 C.3     2  G2          0.2309
     32  O2'       59.3730  -36.1990 -100.3910 O.3     2  G2         -0.2156
     33  C1'       59.9640  -34.4400  -98.9070 C.3     2  G2          0.2408
     34  N1        56.3520  -30.9780  -97.9390 N.ar    2  G2         -0.1709
     35  C2        56.2360  -32.3270  -98.1300 C.ar    2  G2          0.2606
     36  N2        54.9980  -32.8080  -98.0640 N.pl3   2  G2         -0.0859
     37  N3        57.2560  -33.1430  -98.3700 N.ar    2  G2         -0.1918
     38  C4        58.4290  -32.4840  -98.4000 C.ar    2  G2          0.1723
     39  C5        58.6590  -31.1390  -98.2150 C.ar    2  G2          0.1748
     40  C6        57.5450  -30.2750  -97.9750 C.ar    2  G2          0.3023
     41  O6        57.5380  -29.0470  -97.8240 O.2     2  G2         -0.2633
     42  N7        60.0140  -30.8540  -98.3160 N.ar    2  G2         -0.2173
     43  C8        60.5690  -32.0040  -98.5790 C.ar    2  G2          0.1817
     44  N9        59.6670  -33.0360  -98.6420 N.ar    2  G2         -0.2693
     45  OP1       65.7350  -32.9920 -100.8710 O.2     2  G2         -0.5172
     46  OP2       64.4180  -30.8710 -100.2280 O.co2   2  G2         -0.4373
     47  P         61.2310  -34.6170 -103.5410 P.3     3  A3          0.2141
     48  C5'       58.7970  -35.5180 -103.7650 C.3     3  A3          0.1812
     49  O5'       59.6600  -34.4060 -103.6520 O.3     3  A3         -0.3114
     50  C4'       57.3720  -35.0780 -103.6180 C.3     3  A3          0.1773
     51  O4'       57.2140  -34.4850 -102.3090 O.3     3  A3         -0.3307
     52  C3'       56.8890  -33.9570 -104.5190 C.3     3  A3          0.1860
     53  O3'       56.6150  -34.3860 -105.8430 O.3     3  A3         -0.3112
     54  C2'       55.6350  -33.5290 -103.7800 C.3     3  A3          0.2309
     55  O2'       54.5600  -34.4450 -103.8890 O.3     3  A3         -0.2156
     56  C1'       56.1480  -33.5490 -102.3430 C.3     3  A3          0.2408
     57  N1        54.7200  -28.9550 -100.6470 N.ar    3  A3         -0.2040
     58  C2        54.0360  -30.0810 -100.9230 C.ar    3  A3          0.2016
     59  N3        54.4900  -31.2590 -101.3460 N.ar    3  A3         -0.2048
     60  C4        55.8280  -31.2160 -101.4990 C.ar    3  A3          0.1692
     61  C5        56.6630  -30.1340 -101.2610 C.ar    3  A3          0.1518
     62  C6        56.0590  -28.9570 -100.8010 C.ar    3  A3          0.1919
     63  N6        56.7260  -27.8560 -100.5010 N.pl3   3  A3         -0.1054
     64  N7        57.9790  -30.4610 -101.5390 N.ar    3  A3         -0.2193
     65  C8        57.9170  -31.7190 -101.9290 C.ar    3  A3          0.1816
     66  N9        56.6420  -32.2320 -101.9390 N.ar    3  A3         -0.2693
     67  OP1       61.6450  -35.6560 -104.5090 O.2     3  A3         -0.5172
     68  OP2       61.8750  -33.2690 -103.5800 O.co2   3  A3         -0.4373
     69  P         56.8780  -33.3820 -107.0800 P.3     4  U4          0.2141
     70  C5'       54.2950  -32.9260 -107.2970 C.3     4  U4          0.1812
     71  O5'       55.6010  -32.4230 -107.0590 O.3     4  U4         -0.3114
     72  C4'       53.2660  -31.8630 -107.0000 C.3     4  U4          0.1773
     73  O4'       53.4220  -31.4320 -105.6230 O.3     4  U4         -0.3307
     74  C3'       53.4110  -30.5600 -107.7570 C.3     4  U4          0.1860
     75  O3'       52.9110  -30.6110 -109.0690 O.3     4  U4         -0.3112
     76  C2'       52.6380  -29.5920 -106.8770 C.3     4  U4          0.2309
     77  O2'       51.2310  -29.7110 -106.9230 O.3     4  U4         -0.2156
     78  C1'       53.1100  -30.0470 -105.5100 C.3     4  U4          0.2420
     79  N1        54.3200  -29.3220 -105.1070 N.ar    4  U4         -0.2534
     80  C2        54.1670  -28.0410 -104.6050 C.ar    4  U4          0.3546
     81  O2        53.0770  -27.4760 -104.5260 O.2     4  U4         -0.2443
     82  N3        55.3290  -27.4450 -104.1950 N.ar    4  U4         -0.1530
     83  C4        56.5830  -27.9840 -104.2350 C.ar    4  U4          0.2846
     84  O4        57.4990  -27.4040 -103.6710 O.2     4  U4         -0.2650
     85  C5        56.6550  -29.2840 -104.7990 C.ar    4  U4          0.0814
     86  C6        55.5520  -29.8930 -105.2050 C.ar    4  U4          0.0870
     87  OP1       56.8530  -34.2830 -108.2600 O.2     4  U4         -0.5172
     88  OP2       58.0600  -32.4950 -106.8720 O.co2   4  U4         -0.4373
     89  P         53.5870  -29.6870 -110.1900 P.3     5  C5          0.2141
     90  C5'       51.8530  -27.7450 -109.8570 C.3     5  C5          0.1812
     91  O5'       53.1990  -28.1950 -109.7780 O.3     5  C5         -0.3114
     92  C4'       51.7480  -26.2960 -109.4320 C.3     5  C5          0.1773
     93  O4'       52.2220  -26.1500 -108.0710 O.3     5  C5         -0.3307
     94  C3'       52.5830  -25.2830 -110.1950 C.3     5  C5          0.1860
     95  O3'       51.9650  -24.9190 -111.4280 O.3     5  C5         -0.3112
     96  C2'       52.6060  -24.1140 -109.2180 C.3     5  C5          0.2309
     97  O2'       51.3990  -23.3780 -109.1990 O.3     5  C5         -0.2156
     98  C1'       52.7390  -24.8480 -107.8890 C.3     5  C5          0.2420
     99  N1        54.1280  -24.9480 -107.4330 N.ar    5  C5         -0.2535
    100  C2        54.6160  -23.9530 -106.5990 C.ar    5  C5          0.3532
    101  O2        53.8660  -23.0180 -106.2870 O.2     5  C5         -0.2443
    102  N3        55.8840  -24.0250 -106.1470 N.ar    5  C5         -0.1739
    103  C4        56.6570  -25.0450 -106.5030 C.ar    5  C5          0.1759
    104  N4        57.8980  -25.0740 -106.0280 N.pl3   5  C5         -0.1070
    105  C5        56.1900  -26.0780 -107.3610 C.ar    5  C5          0.0566
    106  C6        54.9290  -25.9890 -107.8030 C.ar    5  C5          0.0850
    107  OP1       52.8790  -30.0660 -111.4390 O.2     5  C5         -0.5172
    108  OP2       55.0740  -29.7760 -110.1170 O.co2   5  C5         -0.4373
    109  P         52.8130  -24.9780 -112.8010 P.3     6  A6          0.2141
    110  C5'       50.6250  -25.8260 -113.9550 C.3     6  A6          0.1812
    111  O5'       52.0040  -26.0110 -113.6990 O.3     6  A6         -0.3114
    112  C4'       50.1450  -26.8760 -114.9130 C.3     6  A6          0.1773
    113  O4'       50.5700  -28.1770 -114.4340 O.3     6  A6         -0.3307
    114  C3'       48.6360  -26.9710 -115.0380 C.3     6  A6          0.1860
    115  O3'       48.1600  -26.0410 -116.0050 O.3     6  A6         -0.3112
    116  C2'       48.4300  -28.4220 -115.4540 C.3     6  A6          0.2309
    117  O2'       48.5870  -28.6110 -116.8440 O.3     6  A6         -0.2156
    118  C1'       49.5490  -29.1290 -114.6740 C.3     6  A6          0.2408
    119  N1        46.4240  -32.4130 -112.2410 N.ar    6  A6         -0.2040
    120  C2        46.6400  -32.1700 -113.5410 C.ar    6  A6          0.2016
    121  N3        47.4850  -31.3110 -114.1100 N.ar    6  A6         -0.2048
    122  C4        48.1830  -30.6420 -113.1740 C.ar    6  A6          0.1692
    123  C5        48.0820  -30.7850 -111.8010 C.ar    6  A6          0.1518
    124  C6        47.1390  -31.7170 -111.3250 C.ar    6  A6          0.1919
    125  N6        46.9070  -31.9390 -110.0280 N.pl3   6  A6         -0.1054
    126  N7        48.9640  -29.9330 -111.1520 N.ar    6  A6         -0.2193
    127  C8        49.5600  -29.2940 -112.1280 C.ar    6  A6          0.1816
    128  N9        49.1250  -29.6630 -113.3800 N.ar    6  A6         -0.2693
    129  OP1       54.1470  -25.6010 -112.5710 O.3     6  A6         -0.4373
    130  OP2       52.7350  -23.6310 -113.4310 O.co2   6  A6         -0.5172
    131  P         46.7740  -25.2670 -115.7460 P.3     7  C7          0.2141
    132  C5'       45.6070  -27.3930 -116.7790 C.3     7  C7          0.1812
    133  O5'       45.6940  -26.4460 -115.7110 O.3     7  C7         -0.3114
    134  C4'       44.6900  -28.5410 -116.4120 C.3     7  C7          0.1773
    135  O4'       45.2810  -29.3350 -115.3530 O.3     7  C7         -0.3307
    136  C3'       43.3210  -28.1660 -115.8710 C.3     7  C7          0.1860
    137  O3'       42.4140  -27.8710 -116.9210 O.3     7  C7         -0.3112
    138  C2'       42.9060  -29.4230 -115.1110 C.3     7  C7          0.2309
    139  O2'       42.3290  -30.4180 -115.9250 O.3     7  C7         -0.2156
    140  C1'       44.2470  -29.9150 -114.5650 C.3     7  C7          0.2420
    141  N1        44.4680  -29.5730 -113.1430 N.ar    7  C7         -0.2535
    142  C2        43.9470  -30.4310 -112.1450 C.ar    7  C7          0.3532
    143  O2        43.2960  -31.4430 -112.4840 O.2     7  C7         -0.2443
    144  N3        44.1730  -30.1310 -110.8390 N.ar    7  C7         -0.1739
    145  C4        44.8820  -29.0390 -110.5110 C.ar    7  C7          0.1759
    146  N4        45.1020  -28.7990 -109.2120 N.pl3   7  C7         -0.1070
    147  C5        45.4020  -28.1510 -111.4990 C.ar    7  C7          0.0566
    148  C6        45.1740  -28.4520 -112.7870 C.ar    7  C7          0.0850
    149  OP1       46.5310  -24.4490 -116.9580 O.2     7  C7         -0.5172
    150  OP2       46.8100  -24.5980 -114.4110 O.co2   7  C7         -0.4373
    151  P         41.3550  -26.6730 -116.7430 P.3     8  G8          0.2141
    152  C5'       39.7150  -28.2970 -115.4620 C.3     8  G8          0.1812
    153  O5'       40.4840  -27.0900 -115.4720 O.3     8  G8         -0.3114
    154  C4'       39.2480  -28.6180 -114.0570 C.3     8  G8          0.1773
    155  O4'       40.3970  -28.8500 -113.1980 O.3     8  G8         -0.3307
    156  C3'       38.4670  -27.5200 -113.3560 C.3     8  G8          0.1860
    157  O3'       37.0890  -27.5870 -113.7210 O.3     8  G8         -0.3112
    158  C2'       38.6810  -27.8590 -111.8820 C.3     8  G8          0.2309
    159  O2'       37.8370  -28.9010 -111.4350 O.3     8  G8         -0.2156
    160  C1'       40.1220  -28.3740 -111.8880 C.3     8  G8          0.2408
    161  N1        42.9980  -26.4770 -108.1300 N.ar    8  G8         -0.1709
    162  C2        42.0080  -27.4200 -108.0660 C.ar    8  G8          0.2606
    163  N2        41.7630  -27.9370 -106.8510 N.pl3   8  G8         -0.0859
    164  N3        41.3070  -27.8240 -109.1130 N.ar    8  G8         -0.1918
    165  C4        41.6750  -27.1860 -110.2490 C.ar    8  G8          0.1723
    166  C5        42.6440  -26.2200 -110.4140 C.ar    8  G8          0.1748
    167  C6        43.4020  -25.8070 -109.2780 C.ar    8  G8          0.3023
    168  O6        44.3220  -24.9710 -109.2120 O.2     8  G8         -0.2633
    169  N7        42.7070  -25.8090 -111.7370 N.ar    8  G8         -0.2173
    170  C8        41.8030  -26.5250 -112.3480 C.ar    8  G8          0.1817
    171  N9        41.1480  -27.3960 -111.5140 N.ar    8  G8         -0.2693
    172  OP1       40.4470  -26.7160 -117.9200 O.2     8  G8         -0.5172
    173  OP2       42.1110  -25.4210 -116.4290 O.co2   8  G8         -0.4373
    174  P         36.3710  -26.3130 -114.3980 P.3     9  A9          0.2141
    175  C5'       34.5310  -26.2260 -112.5140 C.3     9  A9          0.1812
    176  O5'       35.6080  -25.5880 -113.1990 O.3     9  A9         -0.3114
    177  C4'       34.5300  -25.8250 -111.0570 C.3     9  A9          0.1773
    178  O4'       35.7890  -26.2330 -110.4700 O.3     9  A9         -0.3307
    179  C3'       34.4540  -24.3300 -110.7960 C.3     9  A9          0.1860
    180  O3'       33.0890  -23.9090 -110.7810 O.3     9  A9         -0.3112
    181  C2'       35.1330  -24.1900 -109.4340 C.3     9  A9          0.2309
    182  O2'       34.2760  -24.4320 -108.3370 O.3     9  A9         -0.2156
    183  C1'       36.1990  -25.2870 -109.5040 C.3     9  A9          0.2408
    184  N1        40.8350  -24.0250 -107.6900 N.ar    9  A9         -0.2040
    185  C2        39.7420  -24.5080 -107.0980 C.ar    9  A9          0.2016
    186  N3        38.5700  -24.8350 -107.6330 N.ar    9  A9         -0.2048
    187  C4        38.5780  -24.6250 -108.9630 C.ar    9  A9          0.1692
    188  C5        39.6340  -24.1500 -109.7150 C.ar    9  A9          0.1518
    189  C6        40.8150  -23.8270 -109.0210 C.ar    9  A9          0.1919
    190  N6        41.9040  -23.3310 -109.6010 N.pl3   9  A9         -0.1054
    191  N7        39.2890  -24.0850 -111.0570 N.ar    9  A9         -0.2193
    192  C8        38.0450  -24.4990 -111.0840 C.ar    9  A9          0.1816
    193  N9        37.5450  -24.8280 -109.8510 N.ar    9  A9         -0.2693
    194  OP1       35.3530  -26.8500 -115.3390 O.2     9  A9         -0.5172
    195  OP2       37.4220  -25.3910 -114.9010 O.co2   9  A9         -0.4373
    196  P         32.6290  -22.6250 -111.6430 P.3    10  G10         0.2141
    197  C5'       32.9510  -20.0240 -111.2060 C.3    10  G10         0.1812
    198  O5'       33.0980  -21.3790 -110.7560 O.3    10  G10        -0.3114
    199  C4'       32.0900  -19.2390 -110.2320 C.3    10  G10         0.1773
    200  O4'       32.2820  -19.7870 -108.9070 O.3    10  G10        -0.3307
    201  C3'       32.3770  -17.7380 -110.0930 C.3    10  G10         0.1860
    202  O3'       31.8250  -16.8290 -111.1040 O.3    10  G10        -0.3112
    203  C2'       32.1500  -17.4070 -108.6070 C.3    10  G10         0.2309
    204  O2'       31.0780  -16.5640 -108.2560 O.3    10  G10        -0.2156
    205  C1'       31.9990  -18.7870 -107.9570 C.3    10  G10         0.2408
    206  N1        31.7180  -19.8200 -103.0220 N.ar   10  G10        -0.1709
    207  C2        30.7230  -19.7480 -103.9640 C.ar   10  G10         0.2606
    208  N2        29.4840  -19.9450 -103.5240 N.pl3  10  G10        -0.0859
    209  N3        30.9330  -19.4970 -105.2460 N.ar   10  G10        -0.1918
    210  C4        32.2420  -19.3160 -105.5170 C.ar   10  G10         0.1723
    211  C5        33.3160  -19.3660 -104.6550 C.ar   10  G10         0.1748
    212  C6        33.0750  -19.6350 -103.2770 C.ar   10  G10         0.3023
    213  O6        33.8920  -19.7080 -102.3500 O.2    10  G10        -0.2633
    214  N7        34.5050  -19.1280 -105.3360 N.ar   10  G10        -0.2173
    215  C8        34.1350  -18.9310 -106.5730 C.ar   10  G10         0.1817
    216  N9        32.7730  -19.0120 -106.7430 N.ar   10  G10        -0.2693
    217  OP1       31.1420  -22.6890 -111.6190 O.3    10  G10        -0.4373
    218  OP2       33.3550  -22.6020 -112.9520 O.co2  10  G10        -0.5172
    219  P         30.2070  -16.6630 -111.3580 P.3    11  G11         0.2141
    220  C5'       29.1850  -15.2330 -109.3660 C.3    11  G11         0.1812
    221  O5'       29.4620  -16.5130 -109.9480 O.3    11  G11        -0.3114
    222  C4'       28.1410  -15.3660 -108.2730 C.3    11  G11         0.1773
    223  O4'       28.3870  -16.5530 -107.4570 O.3    11  G11        -0.3307
    224  C3'       28.1420  -14.2550 -107.2380 C.3    11  G11         0.1860
    225  O3'       27.5710  -13.0340 -107.6780 O.3    11  G11        -0.3112
    226  C2'       27.3990  -14.9000 -106.0700 C.3    11  G11         0.2309
    227  O2'       25.9890  -14.9450 -106.1960 O.3    11  G11        -0.2156
    228  C1'       27.9960  -16.3050 -106.0990 C.3    11  G11         0.2408
    229  N1        29.7700  -16.7950 -101.3360 N.ar   11  G11        -0.1709
    230  C2        28.4730  -16.7910 -101.7750 C.ar   11  G11         0.2606
    231  N2        27.5350  -16.9140 -100.8220 N.pl3  11  G11        -0.0859
    232  N3        28.1220  -16.6720 -103.0500 N.ar   11  G11        -0.1918
    233  C4        29.1980  -16.5450 -103.8580 C.ar   11  G11         0.1723
    234  C5        30.5330  -16.5310 -103.5090 C.ar   11  G11         0.1748
    235  C6        30.8870  -16.6700 -102.1490 C.ar   11  G11         0.3023
    236  O6        32.0130  -16.6900 -101.6510 O.2    11  G11        -0.2633
    237  N7        31.3350  -16.3710 -104.6300 N.ar   11  G11        -0.2173
    238  C8        30.4950  -16.2940 -105.6250 C.ar   11  G11         0.1817
    239  N9        29.1790  -16.3850 -105.2350 N.ar   11  G11        -0.2693
    240  OP1       29.7040  -17.9180 -111.9890 O.3    11  G11        -0.4373
    241  OP2       30.0500  -15.3750 -112.0820 O.co2  11  G11        -0.5172
    242  P         28.0560  -11.6560 -106.9990 P.3    12  G12         0.2141
    243  C5'       26.2120  -12.0470 -105.1590 C.3    12  G12         0.1812
    244  O5'       27.5800  -11.7940 -105.4800 O.3    12  G12        -0.3114
    245  C4'       26.0140  -12.0410 -103.6610 C.3    12  G12         0.1773
    246  O4'       26.5640  -13.2490 -103.0620 O.3    12  G12        -0.3307
    247  C3'       26.7190  -10.9170 -102.9250 C.3    12  G12         0.1860
    248  O3'       26.0280   -9.6770 -103.0570 O.3    12  G12        -0.3112
    249  C2'       26.8010  -11.4700 -101.5020 C.3    12  G12         0.2309
    250  O2'       25.6140  -11.3370 -100.7370 O.3    12  G12        -0.2156
    251  C1'       27.1250  -12.9440 -101.7840 C.3    12  G12         0.2408
    252  N1        31.4070  -13.7170  -99.1270 N.ar   12  G12        -0.1709
    253  C2        30.1090  -13.6280  -98.6760 C.ar   12  G12         0.2606
    254  N2        29.9280  -13.7040  -97.3450 N.pl3  12  G12        -0.0859
    255  N3        29.0620  -13.4670  -99.4710 N.ar   12  G12        -0.1918
    256  C4        29.4220  -13.3880 -100.7700 C.ar   12  G12         0.1723
    257  C5        30.6890  -13.4670 -101.3180 C.ar   12  G12         0.1748
    258  C6        31.7980  -13.6420 -100.4620 C.ar   12  G12         0.3023
    259  O6        32.9940  -13.7210 -100.7640 O.2    12  G12        -0.2633
    260  N7        30.6390  -13.3470 -102.6990 N.ar   12  G12        -0.2173
    261  C8        29.3690  -13.1850 -102.9660 C.ar   12  G12         0.1817
    262  N9        28.5730  -13.1760 -101.8400 N.ar   12  G12        -0.2693
    263  OP1       27.2910  -10.5590 -107.6460 O.2    12  G12        -0.5172
    264  OP2       29.5460  -11.6260 -107.0280 O.co2  12  G12        -0.4373
    265  P         26.7290   -8.3160 -102.5590 P.3    13  G13         0.2141
    266  C5'       27.6170   -7.7420 -100.1730 C.3    13  G13         0.1812
    267  O5'       26.7550   -8.5160 -100.9760 O.3    13  G13        -0.3114
    268  C4'       27.6400   -8.2610  -98.7590 C.3    13  G13         0.1773
    269  O4'       27.9850   -9.6770  -98.7330 O.3    13  G13        -0.3307
    270  C3'       28.7520   -7.6000  -97.9680 C.3    13  G13         0.1860
    271  O3'       28.3990   -6.2990  -97.5460 O.3    13  G13        -0.3112
    272  C2'       29.0740   -8.6350  -96.9040 C.3    13  G13         0.2309
    273  O2'       28.1500   -8.6660  -95.8300 O.3    13  G13        -0.2156
    274  C1'       29.0100   -9.9060  -97.7580 C.3    13  G13         0.2408
    275  N1        34.0300  -10.8210  -97.4240 N.ar   13  G13        -0.1709
    276  C2        33.1140  -10.6390  -96.4170 C.ar   13  G13         0.2606
    277  N2        33.5970  -10.6940  -95.1720 N.pl3  13  G13        -0.0859
    278  N3        31.8230  -10.4150  -96.6190 N.ar   13  G13        -0.1918
    279  C4        31.5180  -10.3750  -97.9350 C.ar   13  G13         0.1723
    280  C5        32.3630  -10.5380  -99.0190 C.ar   13  G13         0.1748
    281  C6        33.7390  -10.7920  -98.7870 C.ar   13  G13         0.3023
    282  O6        34.6400  -10.9830  -99.6200 O.2    13  G13        -0.2633
    283  N7        31.6650  -10.4200 -100.2130 N.ar   13  G13        -0.2173
    284  C8        30.4310  -10.1940  -99.8480 C.ar   13  G13         0.1817
    285  N9        30.2660  -10.1510  -98.4790 N.ar   13  G13        -0.2693
    286  OP1       25.8000   -7.1940 -102.8780 O.3    13  G13        -0.4373
    287  OP2       28.1300   -8.2660 -103.0700 O.co2  13  G13        -0.5172
    288  P         29.1070   -5.0390  -98.2510 P.3    14  G14         0.2141
    289  C5'       30.5180   -4.7220  -96.0740 C.3    14  G14         0.1812
    290  O5'       30.4960   -4.9380  -97.4780 O.3    14  G14        -0.3114
    291  C4'       31.9010   -4.9570  -95.5220 C.3    14  G14         0.1773
    292  O4'       32.2550   -6.3650  -95.6730 O.3    14  G14        -0.3307
    293  C3'       33.0510   -4.2390  -96.2150 C.3    14  G14         0.1860
    294  O3'       33.1690   -2.8530  -95.8970 O.3    14  G14        -0.3112
    295  C2'       34.2280   -5.0720  -95.7290 C.3    14  G14         0.2309
    296  O2'       34.5280   -4.8250  -94.3620 O.3    14  G14        -0.2156
    297  C1'       33.6550   -6.4810  -95.9300 C.3    14  G14         0.2408
    298  N1        36.8260   -8.4460  -99.4240 N.ar   14  G14        -0.1709
    299  C2        37.0250   -8.2740  -98.0720 C.ar   14  G14         0.2606
    300  N2        38.2350   -8.6240  -97.6020 N.pl3  14  G14        -0.0859
    301  N3        36.1060   -7.7880  -97.2430 N.ar   14  G14        -0.1918
    302  C4        34.9570   -7.4720  -97.8870 C.ar   14  G14         0.1723
    303  C5        34.6600   -7.6070  -99.2310 C.ar   14  G14         0.1748
    304  C6        35.6530   -8.1290 -100.1080 C.ar   14  G14         0.3023
    305  O6        35.5820   -8.3060 -101.3330 O.2    14  G14        -0.2633
    306  N7        33.3670   -7.1780  -99.4950 N.ar   14  G14        -0.2173
    307  C8        32.9090   -6.7850  -98.3380 C.ar   14  G14         0.1817
    308  N9        33.8280   -6.9090  -97.3200 N.ar   14  G14        -0.2693
    309  OP1       28.2710   -3.8570  -97.9080 O.3    14  G14        -0.4373
    310  OP2       29.3980   -5.3450  -99.6880 O.co2  14  G14        -0.5172
    311  P         33.3260   -1.7740  -97.0920 P.3    15  A15         0.2141
    312  C5'       34.9770   -1.6110  -99.1440 C.3    15  A15         0.1812
    313  O5'       34.4580   -2.3680  -98.0490 O.3    15  A15        -0.3114
    314  C4'       36.4400   -1.2730  -98.9080 C.3    15  A15         0.1773
    315  O4'       36.5530   -0.5060  -97.6840 O.3    15  A15        -0.3307
    316  C3'       37.3850   -2.4450  -98.6850 C.3    15  A15         0.1860
    317  O3'       37.8430   -2.9680  -99.9240 O.3    15  A15        -0.3112
    318  C2'       38.5310   -1.8280  -97.8880 C.3    15  A15         0.2309
    319  O2'       39.5190   -1.2070  -98.6840 O.3    15  A15        -0.2156
    320  C1'       37.7920   -0.7830  -97.0560 C.3    15  A15         0.2408
    321  N1        39.9380   -1.9180  -92.5530 N.ar   15  A15        -0.2040
    322  C2        40.4540   -1.6520  -93.7650 C.ar   15  A15         0.2016
    323  N3        39.8230   -1.3930  -94.9120 N.ar   15  A15        -0.2048
    324  C4        38.4890   -1.4340  -94.7380 C.ar   15  A15         0.1692
    325  C5        37.8050   -1.7030  -93.5620 C.ar   15  A15         0.1518
    326  C6        38.5880   -1.9460  -92.4130 C.ar   15  A15         0.1919
    327  N6        38.0700   -2.1860  -91.2020 N.pl3  15  A15        -0.1054
    328  N7        36.4290   -1.6660  -93.7720 N.ar   15  A15        -0.2193
    329  C8        36.3160   -1.3650  -95.0430 C.ar   15  A15         0.1816
    330  N9        37.5260   -1.1880  -95.6820 N.ar   15  A15        -0.2693
    331  OP1       33.8800   -0.5520  -96.4560 O.3    15  A15        -0.4373
    332  OP2       32.0400   -1.7070  -97.8500 O.co2  15  A15        -0.5172
    333  P         37.8920   -4.5580 -100.1350 P.3    16  G16         0.2141
    334  C5'       40.4680   -4.7760  -99.6040 C.3    16  G16         0.1812
    335  O5'       39.1150   -5.0280  -99.2180 O.3    16  G16        -0.3114
    336  C4'       41.3910   -4.9680  -98.4210 C.3    16  G16         0.1773
    337  O4'       40.9310   -4.1110  -97.3460 O.3    16  G16        -0.3307
    338  C3'       41.4090   -6.3550  -97.7910 C.3    16  G16         0.1860
    339  O3'       42.3280   -7.2190  -98.4420 O.3    16  G16        -0.3112
    340  C2'       41.8440   -6.0630  -96.3610 C.3    16  G16         0.2309
    341  O2'       43.2310   -5.8230  -96.2180 O.3    16  G16        -0.2156
    342  C1'       41.0940   -4.7670  -96.0990 C.3    16  G16         0.2408
    343  N1        38.4430   -5.2970  -91.8140 N.ar   16  G16        -0.1709
    344  C2        39.8050   -5.3010  -92.0030 C.ar   16  G16         0.2606
    345  N2        40.5450   -5.4210  -90.8840 N.pl3  16  G16        -0.0859
    346  N3        40.3910   -5.2000  -93.1930 N.ar   16  G16        -0.1918
    347  C4        39.4860   -5.1100  -94.1920 C.ar   16  G16         0.1723
    348  C5        38.1090   -5.1150  -94.1140 C.ar   16  G16         0.1748
    349  C6        37.4930   -5.1950  -92.8250 C.ar   16  G16         0.3023
    350  O6        36.2770   -5.1660  -92.5330 O.2    16  G16        -0.2633
    351  N7        37.5430   -5.0230  -95.3820 N.ar   16  G16        -0.2173
    352  C8        38.5660   -4.9420  -96.1860 C.ar   16  G16         0.1817
    353  N9        39.7720   -4.9520  -95.5220 N.ar   16  G16        -0.2693
    354  OP1       38.2160   -4.7980 -101.5770 O.2    16  G16        -0.5172
    355  OP2       36.6230   -5.0970  -99.5570 O.co2  16  G16        -0.4373
    356  P         42.0620   -8.7990  -98.4300 P.3    17  A17         0.2141
    357  C5'       43.6480   -9.2110  -96.3660 C.3    17  A17         0.1812
    358  O5'       42.3250   -9.2180  -96.9090 O.3    17  A17        -0.3114
    359  C4'       43.6040   -9.3910  -94.8660 C.3    17  A17         0.1773
    360  O4'       42.7900   -8.3320  -94.3010 O.3    17  A17        -0.3307
    361  C3'       42.9540  -10.6690  -94.3540 C.3    17  A17         0.1860
    362  O3'       43.8880  -11.7440  -94.2850 O.3    17  A17        -0.3112
    363  C2'       42.5100  -10.2640  -92.9530 C.3    17  A17         0.2309
    364  O2'       43.5370  -10.3160  -91.9820 O.3    17  A17        -0.2156
    365  C1'       42.0650   -8.8200  -93.1830 C.3    17  A17         0.2408
    366  N1        37.3030   -8.6030  -91.2350 N.ar   17  A17        -0.2040
    367  C2        38.5100   -8.6210  -90.6520 C.ar   17  A17         0.2016
    368  N3        39.7160   -8.6610  -91.2170 N.ar   17  A17        -0.2048
    369  C4        39.6100   -8.6800  -92.5620 C.ar   17  A17         0.1692
    370  C5        38.4400   -8.6580  -93.3030 C.ar   17  A17         0.1518
    371  C6        37.2350   -8.6190  -92.5900 C.ar   17  A17         0.1919
    372  N6        36.0350   -8.5940  -93.1790 N.pl3  17  A17        -0.1054
    373  N7        38.7160   -8.6730  -94.6650 N.ar   17  A17        -0.2193
    374  C8        40.0260   -8.7150  -94.7220 C.ar   17  A17         0.1816
    375  N9        40.6340   -8.7330  -93.4840 N.ar   17  A17        -0.2693
    376  OP1       43.1020   -9.4240  -99.2910 O.2    17  A17        -0.5172
    377  OP2       40.6180   -8.9790  -98.7670 O.co2  17  A17        -0.4373
    378  P         43.5410  -13.1650  -94.9690 P.3    18  C18         0.2141
    379  C5'       41.8440  -13.8050  -93.0290 C.3    18  C18         0.1812
    380  O5'       42.0880  -13.5780  -94.4240 O.3    18  C18        -0.3114
    381  C4'       40.4000  -13.4830  -92.6760 C.3    18  C18         0.1773
    382  O4'       40.0390  -12.2260  -93.3160 O.3    18  C18        -0.3307
    383  C3'       39.3050  -14.4430  -93.1310 C.3    18  C18         0.1860
    384  O3'       39.1350  -15.5200  -92.2010 O.3    18  C18        -0.3112
    385  C2'       38.0840  -13.5270  -93.1350 C.3    18  C18         0.2309
    386  O2'       37.6050  -13.2260  -91.8390 O.3    18  C18        -0.2156
    387  C1'       38.6790  -12.2520  -93.7170 C.3    18  C18         0.2420
    388  N1        38.6190  -12.2130  -95.1900 N.ar   18  C18        -0.2535
    389  C2        37.4040  -11.8570  -95.8180 C.ar   18  C18         0.3532
    390  O2        36.4170  -11.5710  -95.1210 O.2    18  C18        -0.2443
    391  N3        37.3430  -11.8350  -97.1680 N.ar   18  C18        -0.1739
    392  C4        38.4230  -12.1420  -97.8900 C.ar   18  C18         0.1759
    393  N4        38.3140  -12.1090  -99.2190 N.pl3  18  C18        -0.1070
    394  C5        39.6670  -12.4980  -97.2810 C.ar   18  C18         0.0566
    395  C6        39.7180  -12.5210  -95.9440 C.ar   18  C18         0.0850
    396  OP1       44.5560  -14.0970  -94.4130 O.3    18  C18        -0.4373
    397  OP2       43.4500  -12.9650  -96.4480 O.co2  18  C18        -0.5172
    398  P         38.2630  -16.8230  -92.6110 P.3    19  C19         0.2141
    399  C5'       36.1210  -15.8590  -91.4390 C.3    19  C19         0.1812
    400  O5'       36.7530  -16.3130  -92.6320 O.3    19  C19        -0.3114
    401  C4'       34.7330  -15.3640  -91.7470 C.3    19  C19         0.1773
    402  O4'       34.8110  -14.2540  -92.6830 O.3    19  C19        -0.3307
    403  C3'       33.8480  -16.3570  -92.4790 C.3    19  C19         0.1860
    404  O3'       33.2840  -17.3300  -91.6110 O.3    19  C19        -0.3112
    405  C2'       32.7970  -15.4500  -93.1010 C.3    19  C19         0.2309
    406  O2'       31.7820  -15.0560  -92.2020 O.3    19  C19        -0.2156
    407  C1'       33.6520  -14.2490  -93.5110 C.3    19  C19         0.2420
    408  N1        34.0610  -14.3050  -94.9320 N.ar   19  C19        -0.2535
    409  C2        33.0730  -14.1380  -95.9370 C.ar   19  C19         0.3532
    410  O2        31.8930  -13.9200  -95.6040 O.2    19  C19        -0.2443
    411  N3        33.4360  -14.2160  -97.2370 N.ar   19  C19        -0.1739
    412  C4        34.7090  -14.4370  -97.5620 C.ar   19  C19         0.1759
    413  N4        35.0130  -14.5120  -98.8530 N.pl3  19  C19        -0.1070
    414  C5        35.7280  -14.5930  -96.5740 C.ar   19  C19         0.0566
    415  C6        35.3650  -14.5230  -95.2850 C.ar   19  C19         0.0850
    416  OP1       38.3740  -17.7990  -91.4930 O.3    19  C19        -0.4373
    417  OP2       38.6400  -17.2330  -93.9930 O.co2  19  C19        -0.5172
    418  P         33.0370  -18.8270  -92.1550 P.3    20  C20         0.2141
    419  C5'       30.4560  -18.3140  -92.2430 C.3    20  C20         0.1812
    420  O5'       31.6360  -18.7430  -92.9220 O.3    20  C20        -0.3114
    421  C4'       29.3260  -18.0920  -93.2220 C.3    20  C20         0.1773
    422  O4'       29.6150  -16.9760  -94.1050 O.3    20  C20        -0.3307
    423  C3'       29.0520  -19.2340  -94.1760 C.3    20  C20         0.1860
    424  O3'       28.3000  -20.2470  -93.5240 O.3    20  C20        -0.3112
    425  C2'       28.2760  -18.5330  -95.2870 C.3    20  C20         0.2309
    426  O2'       26.9330  -18.2490  -94.9530 O.3    20  C20        -0.2156
    427  C1'       29.0310  -17.2110  -95.3790 C.3    20  C20         0.2420
    428  N1        30.0990  -17.2230  -96.3940 N.ar   20  C20        -0.2535
    429  C2        29.7520  -17.1620  -97.7690 C.ar   20  C20         0.3532
    430  O2        28.5500  -17.1420  -98.0980 O.2    20  C20        -0.2443
    431  N3        30.7410  -17.1300  -98.6970 N.ar   20  C20        -0.1739
    432  C4        32.0240  -17.1650  -98.3090 C.ar   20  C20         0.1759
    433  N4        32.9700  -17.1150  -99.2540 N.pl3  20  C20        -0.1070
    434  C5        32.3970  -17.2480  -96.9310 C.ar   20  C20         0.0566
    435  C6        31.4140  -17.2770  -96.0190 C.ar   20  C20         0.0850
    436  OP1       32.8900  -19.6790  -90.9410 O.3    20  C20        -0.4373
    437  OP2       34.0960  -19.1400  -93.1600 O.co2  20  C20        -0.5172
    438  P         28.5340  -21.7880  -93.9200 P.3    21  C21         0.2141
    439  C5'       26.4980  -21.7690  -95.5580 C.3    21  C21         0.1812
    440  O5'       27.8960  -21.9110  -95.3720 O.3    21  C21        -0.3114
    441  C4'       26.1900  -21.7040  -97.0230 C.3    21  C21         0.1773
    442  O4'       26.8640  -20.5540  -97.5970 O.3    21  C21        -0.3307
    443  C3'       26.7740  -22.8380  -97.8310 C.3    21  C21         0.1860
    444  O3'       26.0430  -24.0340  -97.7080 O.3    21  C21        -0.3112
    445  C2'       26.7810  -22.2630  -99.2390 C.3    21  C21         0.2309
    446  O2'       25.5300  -22.2650  -99.8950 O.3    21  C21        -0.2156
    447  C1'       27.2200  -20.8330  -98.9450 C.3    21  C21         0.2420
    448  N1        28.6750  -20.6750  -99.0960 N.ar   21  C21        -0.2535
    449  C2        29.1920  -20.4940 -100.3910 C.ar   21  C21         0.3532
    450  O2        28.4100  -20.5030 -101.3560 O.2    21  C21        -0.2443
    451  N3        30.5220  -20.3240 -100.5550 N.ar   21  C21        -0.1739
    452  C4        31.3310  -20.3390  -99.4920 C.ar   21  C21         0.1759
    453  N4        32.6350  -20.1540  -99.7030 N.pl3  21  C21        -0.1070
    454  C5        30.8350  -20.5400  -98.1630 C.ar   21  C21         0.0566
    455  C6        29.5130  -20.7000  -98.0130 C.ar   21  C21         0.0850
    456  OP1       27.6970  -22.5970  -92.9840 O.3    21  C21        -0.4373
    457  OP2       30.0040  -22.0460  -94.0290 O.co2  21  C21        -0.5172
    458  P         26.7550  -25.4150  -98.0980 P.3    22  G22         0.2141
    459  C5'       27.0630  -26.3450 -100.5080 C.3    22  G22         0.1812
    460  O5'       26.2500  -25.6600  -99.5860 O.3    22  G22        -0.3114
    461  C4'       27.0380  -25.6410 -101.8270 C.3    22  G22         0.1773
    462  O4'       27.4020  -24.2530 -101.6450 O.3    22  G22        -0.3307
    463  C3'       28.0760  -26.1730 -102.7890 C.3    22  G22         0.1860
    464  O3'       27.5770  -27.3110 -103.4410 O.3    22  G22        -0.3112
    465  C2'       28.2970  -24.9990 -103.7150 C.3    22  G22         0.2309
    466  O2'       27.2760  -24.8700 -104.6820 O.3    22  G22        -0.2156
    467  C1'       28.2650  -23.8500 -102.7050 C.3    22  G22         0.2408
    468  N1        33.1330  -22.8690 -103.7120 N.ar   22  G22        -0.1709
    469  C2        32.0850  -23.0470 -104.5810 C.ar   22  G22         0.2606
    470  N2        32.3770  -22.9460 -105.8960 N.pl3  22  G22        -0.0859
    471  N3        30.8470  -23.3020 -104.1950 N.ar   22  G22        -0.1918
    472  C4        30.7420  -23.3590 -102.8530 C.ar   22  G22         0.1723
    473  C5        31.7260  -23.1960 -101.9050 C.ar   22  G22         0.1748
    474  C6        33.0460  -22.9310 -102.3280 C.ar   22  G22         0.3023
    475  O6        34.0610  -22.7630 -101.6350 O.2    22  G22        -0.2633
    476  N7        31.2060  -23.3360 -100.6260 N.ar   22  G22        -0.2173
    477  C8        29.9400  -23.5770 -100.8160 C.ar   22  G22         0.1817
    478  N9        29.5920  -23.6050 -102.1450 N.ar   22  G22        -0.2693
    479  OP1       26.1990  -26.4610  -97.1980 O.3    22  G22        -0.4373
    480  OP2       28.2280  -25.1940  -98.1500 O.co2  22  G22        -0.5172
    481  P         28.3120  -28.7070 -103.2170 P.3    23  G23         0.2141
    482  C5'       29.1130  -28.2960 -105.6610 C.3    23  G23         0.1812
    483  O5'       29.4380  -28.6970 -104.3420 O.3    23  G23        -0.3114
    484  C4'       30.2910  -27.6220 -106.2960 C.3    23  G23         0.1773
    485  O4'       30.6900  -26.4860 -105.4890 O.3    23  G23        -0.3307
    486  C3'       31.5570  -28.4530 -106.3550 C.3    23  G23         0.1860
    487  O3'       31.5260  -29.3570 -107.4450 O.3    23  G23        -0.3112
    488  C2'       32.6260  -27.3870 -106.5440 C.3    23  G23         0.2309
    489  O2'       32.7400  -26.9530 -107.8830 O.3    23  G23        -0.2156
    490  C1'       32.0850  -26.2670 -105.6520 C.3    23  G23         0.2408
    491  N1        36.4220  -25.4530 -103.1500 N.ar   23  G23        -0.1709
    492  C2        36.1840  -25.4730 -104.5020 C.ar   23  G23         0.2606
    493  N2        37.2400  -25.2490 -105.2950 N.pl3  23  G23        -0.0859
    494  N3        34.9960  -25.7050 -105.0380 N.ar   23  G23        -0.1918
    495  C4        34.0530  -25.9460 -104.0960 C.ar   23  G23         0.1723
    496  C5        34.1900  -25.9680 -102.7250 C.ar   23  G23         0.1748
    497  C6        35.4650  -25.6890 -102.1630 C.ar   23  G23         0.3023
    498  O6        35.7850  -25.6310 -100.9650 O.2    23  G23        -0.2633
    499  N7        32.9790  -26.2660 -102.1110 N.ar   23  G23        -0.2173
    500  C8        32.1380  -26.4080 -103.1020 C.ar   23  G23         0.1817
    501  N9        32.7220  -26.2180 -104.3360 N.ar   23  G23        -0.2693
    502  OP1       27.3330  -29.7810 -103.5430 O.2    23  G23        -0.5172
    503  OP2       28.9300  -28.6460 -101.8570 O.co2  23  G23        -0.4373
    504  P         32.4420  -30.6740 -107.4030 P.3    24  C24         0.2141
    505  C5'       34.3220  -29.6380 -108.8860 C.3    24  C24         0.1812
    506  O5'       33.9140  -30.1050 -107.6110 O.3    24  C24        -0.3114
    507  C4'       35.7480  -29.1840 -108.8330 C.3    24  C24         0.1773
    508  O4'       35.8670  -28.2180 -107.7610 O.3    24  C24        -0.3307
    509  C3'       36.7600  -30.2530 -108.4800 C.3    24  C24         0.1860
    510  O3'       37.1600  -30.9310 -109.6660 O.3    24  C24        -0.3112
    511  C2'       37.8980  -29.4240 -107.8990 C.3    24  C24         0.2309
    512  O2'       38.6240  -28.7730 -108.9100 O.3    24  C24        -0.2156
    513  C1'       37.1340  -28.3430 -107.1400 C.3    24  C24         0.2420
    514  N1        36.9210  -28.5560 -105.6950 N.ar   24  C24        -0.2535
    515  C2        38.0080  -28.4440 -104.8060 C.ar   24  C24         0.3532
    516  O2        39.1530  -28.2800 -105.2550 O.2    24  C24        -0.2443
    517  N3        37.7770  -28.5310 -103.4770 N.ar   24  C24        -0.1739
    518  C4        36.5400  -28.7490 -103.0260 C.ar   24  C24         0.1759
    519  N4        36.3530  -28.7960 -101.7160 N.pl3  24  C24        -0.1070
    520  C5        35.4380  -28.9200 -103.9000 C.ar   24  C24         0.0566
    521  C6        35.6690  -28.8220 -105.2140 C.ar   24  C24         0.0850
    522  OP1       32.1280  -31.5100 -108.6040 O.2    24  C24        -0.5172
    523  OP2       32.3060  -31.2570 -106.0320 O.co2  24  C24        -0.4373
    524  P         37.6860  -32.4520 -109.5820 P.3    25  A25         0.2141
    525  C5'       40.1750  -31.8340 -108.9020 C.3    25  A25         0.1812
    526  O5'       38.8970  -32.3760 -108.5420 O.3    25  A25        -0.3114
    527  C4'       41.0490  -31.6890 -107.6620 C.3    25  A25         0.1773
    528  O4'       40.3350  -30.9030 -106.6750 O.3    25  A25        -0.3307
    529  C3'       41.4340  -32.9670 -106.9320 C.3    25  A25         0.1860
    530  O3'       42.6600  -33.4500 -107.4880 O.3    25  A25        -0.3112
    531  C2'       41.6560  -32.4820 -105.5020 C.3    25  A25         0.2309
    532  O2'       42.9260  -31.8930 -105.3500 O.3    25  A25        -0.2156
    533  C1'       40.6320  -31.3590 -105.3740 C.3    25  A25         0.2408
    534  N1        38.0630  -31.4990 -100.9140 N.ar   25  A25        -0.2040
    535  C2        39.3480  -31.2490 -101.1940 C.ar   25  A25         0.2016
    536  N3        39.9720  -31.2610 -102.3740 N.ar   25  A25        -0.2048
    537  C4        39.1080  -31.5720 -103.3550 C.ar   25  A25         0.1692
    538  C5        37.7610  -31.8510 -103.2110 C.ar   25  A25         0.1518
    539  C6        37.2350  -31.8110 -101.9310 C.ar   25  A25         0.1919
    540  N6        35.9640  -32.0630 -101.6630 N.pl3  25  A25        -0.1054
    541  N7        37.1820  -32.1310 -104.4340 N.ar   25  A25        -0.2193
    542  C8        38.1760  -32.0180 -105.2850 C.ar   25  A25         0.1816
    543  N9        39.3680  -31.6560 -104.7030 N.ar   25  A25        -0.2693
    544  OP1       38.2650  -32.8710 -110.8970 O.2    25  A25        -0.5172
    545  OP2       36.5660  -33.2400 -108.9810 O.co2  25  A25        -0.4373
    546  P         42.8810  -35.0310 -107.7180 P.3    26  A26         0.2141
    547  C5'       44.7590  -35.0480 -105.7920 C.3    26  A26         0.1812
    548  O5'       43.5110  -35.5500 -106.3390 O.3    26  A26        -0.3114
    549  C4'       44.7880  -35.3540 -104.3140 C.3    26  A26         0.1773
    550  O4'       43.5430  -34.8390 -103.8370 O.3    26  A26        -0.3307
    551  C3'       44.8190  -36.8610 -104.0590 C.3    26  A26         0.1860
    552  O3'       45.8380  -37.2570 -103.1090 O.3    26  A26        -0.3112
    553  C2'       43.5100  -37.1850 -103.3440 C.3    26  A26         0.2309
    554  O2'       43.7080  -37.7880 -102.0890 O.3    26  A26        -0.2156
    555  C1'       42.8790  -35.8160 -103.1210 C.3    26  A26         0.2408
    556  N1        38.5700  -34.6460 -100.7410 N.ar   26  A26        -0.2040
    557  C2        39.8610  -34.6020 -100.3810 C.ar   26  A26         0.2016
    558  N3        40.9440  -34.8870 -101.0930 N.ar   26  A26        -0.2048
    559  C4        40.6050  -35.2620 -102.3290 C.ar   26  A26         0.1692
    560  C5        39.3380  -35.3430 -102.8550 C.ar   26  A26         0.1518
    561  C6        38.2680  -35.0220 -101.9980 C.ar   26  A26         0.1919
    562  N6        36.9840  -35.0760 -102.3480 N.pl3  26  A26        -0.1054
    563  N7        39.3890  -35.7530 -104.1750 N.ar   26  A26        -0.2193
    564  C8        40.6720  -35.9250 -104.4010 C.ar   26  A26         0.1816
    565  N9        41.4520  -35.6740 -103.3170 N.ar   26  A26        -0.2693
    566  OP1       43.9100  -35.1890 -108.7880 O.2    26  A26        -0.5172
    567  OP2       41.5390  -35.6780 -107.8890 O.co2  26  A26        -0.4373
    568  P         47.4010  -36.9510 -103.3520 P.3    27  C27         0.2141
    569  C5'       49.2530  -35.9190 -101.8290 C.3    27  C27         0.1812
    570  O5'       47.8810  -36.2530 -102.0070 O.3    27  C27        -0.3114
    571  C4'       49.4600  -35.1790 -100.5320 C.3    27  C27         0.1773
    572  O4'       48.7710  -33.9050 -100.5750 O.3    27  C27        -0.3307
    573  C3'       48.8880  -35.8250  -99.2840 C.3    27  C27         0.1860
    574  O3'       49.7280  -36.8690  -98.8300 O.3    27  C27        -0.3112
    575  C2'       48.8390  -34.6410  -98.3310 C.3    27  C27         0.2309
    576  O2'       50.1230  -34.2550  -97.8840 O.3    27  C27        -0.2156
    577  C1'       48.3290  -33.5540  -99.2710 C.3    27  C27         0.2420
    578  N1        46.8690  -33.4700  -99.2840 N.ar   27  C27        -0.2535
    579  C2        46.2200  -32.9990  -98.1450 C.ar   27  C27         0.3532
    580  O2        46.9020  -32.6160  -97.1880 O.2    27  C27        -0.2443
    581  N3        44.8660  -32.9630  -98.1160 N.ar   27  C27        -0.1739
    582  C4        44.1720  -33.3580  -99.1830 C.ar   27  C27         0.1759
    583  N4        42.8490  -33.3210  -99.1120 N.pl3  27  C27        -0.1070
    584  C5        44.8120  -33.8150 -100.3730 C.ar   27  C27         0.0566
    585  C6        46.1490  -33.8560 -100.3780 C.ar   27  C27         0.0850
    586  OP1       47.5670  -35.9330 -104.4270 O.2    27  C27        -0.5172
    587  OP2       48.1500  -38.2490 -103.4280 O.co2  27  C27        -0.4373
    588  P         49.0780  -38.2050  -98.2320 P.3    28  C28         0.2141
    589  C5'       49.6560  -37.4360  -95.8180 C.3    28  C28         0.1812
    590  O5'       48.6590  -37.7680  -96.7610 O.3    28  C28        -0.3114
    591  C4'       49.0330  -36.9640  -94.5400 C.3    28  C28         0.1773
    592  O4'       48.2490  -35.7730  -94.7890 O.3    28  C28        -0.3307
    593  C3'       48.0290  -37.8940  -93.9160 C.3    28  C28         0.1860
    594  O3'       48.6780  -38.9150  -93.1970 O.3    28  C28        -0.3112
    595  C2'       47.2830  -36.9430  -93.0010 C.3    28  C28         0.2309
    596  O2'       48.0790  -36.5640  -91.9040 O.3    28  C28        -0.2156
    597  C1'       47.1390  -35.7350  -93.9130 C.3    28  C28         0.2420
    598  N1        45.9120  -35.7770  -94.7180 N.ar   28  C28        -0.2535
    599  C2        44.6940  -35.5240  -94.0940 C.ar   28  C28         0.3532
    600  O2        44.6850  -35.2800  -92.8790 O.2    28  C28        -0.2443
    601  N3        43.5550  -35.5600  -94.8150 N.ar   28  C28        -0.1739
    602  C4        43.6070  -35.8540  -96.1100 C.ar   28  C28         0.1759
    603  N4        42.4520  -35.9310  -96.7870 N.pl3  28  C28        -0.1070
    604  C5        44.8380  -36.1010  -96.7730 C.ar   28  C28         0.0566
    605  C6        45.9540  -36.0580  -96.0480 C.ar   28  C28         0.0850
    606  OP1       50.2150  -39.1740  -98.2010 O.3    28  C28        -0.4373
    607  OP2       47.8290  -38.5480  -98.9780 O.co2  28  C28        -0.5172
    608  P         47.9350  -40.3230  -93.0010 P.3    29  U29         0.2141
    609  C5'       46.7650  -39.5720  -90.7930 C.3    29  U29         0.1812
    610  O5'       46.6320  -39.9680  -92.1490 O.3    29  U29        -0.3114
    611  C4'       45.4220  -39.3860  -90.1590 C.3    29  U29         0.1773
    612  O4'       44.7040  -38.3250  -90.8300 O.3    29  U29        -0.3307
    613  C3'       44.4780  -40.5610  -90.2590 C.3    29  U29         0.1860
    614  O3'       44.8040  -41.5340  -89.2780 O.3    29  U29        -0.3112
    615  C2'       43.1450  -39.8780  -89.9890 C.3    29  U29         0.2309
    616  O2'       42.9990  -39.5040  -88.6370 O.3    29  U29        -0.2156
    617  C1'       43.3130  -38.6040  -90.8030 C.3    29  U29         0.2420
    618  N1        42.8340  -38.7500  -92.1840 N.ar   29  U29        -0.2534
    619  C2        41.4720  -38.7240  -92.3890 C.ar   29  U29         0.3546
    620  O2        40.6760  -38.6690  -91.4710 O.2    29  U29        -0.2443
    621  N3        41.0750  -38.7860  -93.7030 N.ar   29  U29        -0.1530
    622  C4        41.8890  -38.8990  -94.8040 C.ar   29  U29         0.2846
    623  O4        41.3910  -38.9730  -95.9230 O.2    29  U29        -0.2650
    624  C5        43.2850  -38.9600  -94.5080 C.ar   29  U29         0.0814
    625  C6        43.7000  -38.8870  -93.2370 C.ar   29  U29         0.0870
    626  OP1       48.8850  -41.1270  -92.1550 O.3    29  U29        -0.4373
    627  OP2       47.4960  -40.8280  -94.3350 O.co2  29  U29        -0.5172
    628  P         44.5840  -43.0980  -89.5910 P.3    30  G30         0.2141
    629  C5'       42.1350  -42.8290  -88.7170 C.3    30  G30         0.1812
    630  O5'       43.0060  -43.2410  -89.7640 O.3    30  G30        -0.3114
    631  C4'       40.7130  -42.7820  -89.2040 C.3    30  G30         0.1773
    632  O4'       40.5490  -41.7460  -90.2110 O.3    30  G30        -0.3307
    633  C3'       40.2450  -44.0190  -89.9340 C.3    30  G30         0.1860
    634  O3'       39.9500  -45.0740  -89.0260 O.3    30  G30        -0.3112
    635  C2'       39.0230  -43.4810  -90.6660 C.3    30  G30         0.2309
    636  O2'       37.9830  -43.2310  -89.7610 O.3    30  G30        -0.2156
    637  C1'       39.5400  -42.1270  -91.1370 C.3    30  G30         0.2408
    638  N1        38.5570  -42.2460  -96.1460 N.ar   30  G30        -0.1709
    639  C2        37.6850  -42.3110  -95.0880 C.ar   30  G30         0.2606
    640  N2        36.3770  -42.4610  -95.4040 N.pl3  30  G30        -0.0859
    641  N3        38.0610  -42.2530  -93.8080 N.ar   30  G30        -0.1918
    642  C4        39.4040  -42.1750  -93.6770 C.ar   30  G30         0.1723
    643  C5        40.3580  -42.1290  -94.6710 C.ar   30  G30         0.1748
    644  C6        39.9350  -42.1390  -96.0320 C.ar   30  G30         0.3023
    645  O6        40.6190  -42.0530  -97.0500 O.2    30  G30        -0.2633
    646  N7        41.6320  -42.0850  -94.1260 N.ar   30  G30        -0.2173
    647  C8        41.4380  -42.0870  -92.8310 C.ar   30  G30         0.1817
    648  N9        40.1080  -42.1340  -92.4860 N.ar   30  G30        -0.2693
    649  OP1       44.9490  -43.7730  -88.3250 O.3    30  G30        -0.4373
    650  OP2       45.2930  -43.4610  -90.8480 O.co2  30  G30        -0.5172
    651  P         40.2630  -46.5960  -89.4490 P.3    31  G31         0.2141
    652  C5'       37.7600  -46.9100  -90.1640 C.3    31  G31         0.1812
    653  O5'       39.1330  -46.9240  -90.5270 O.3    31  G31        -0.3114
    654  C4'       36.8950  -47.0670  -91.3850 C.3    31  G31         0.1773
    655  O4'       37.0350  -45.9080  -92.2490 O.3    31  G31        -0.3307
    656  C3'       37.2680  -48.2120  -92.3010 C.3    31  G31         0.1860
    657  O3'       36.7880  -49.4400  -91.7820 O.3    31  G31        -0.3112
    658  C2'       36.5890  -47.7980  -93.5980 C.3    31  G31         0.2309
    659  O2'       35.1900  -47.9840  -93.5370 O.3    31  G31        -0.2156
    660  C1'       36.8790  -46.2950  -93.6100 C.3    31  G31         0.2408
    661  N1        39.0430  -45.6480  -98.1610 N.ar   31  G31        -0.1709
    662  C2        37.7410  -45.9090  -97.8430 C.ar   31  G31         0.2606
    663  N2        36.9100  -46.0170  -98.8750 N.pl3  31  G31        -0.0859
    664  N3        37.2860  -46.0470  -96.6100 N.ar   31  G31        -0.1918
    665  C4        38.2550  -45.8770  -95.6960 C.ar   31  G31         0.1723
    666  C5        39.5850  -45.5960  -95.9030 C.ar   31  G31         0.1748
    667  C6        40.0640  -45.4750  -97.2390 C.ar   31  G31         0.3023
    668  O6        41.2290  -45.2550  -97.6370 O.2    31  G31        -0.2633
    669  N7        40.2540  -45.4760  -94.6990 N.ar   31  G31        -0.2173
    670  C8        39.3390  -45.7010  -93.7950 C.ar   31  G31         0.1817
    671  N9        38.1060  -45.9630  -94.3330 N.ar   31  G31        -0.2693
    672  OP1       40.0250  -47.3890  -88.2180 O.3    31  G31        -0.4373
    673  OP2       41.5870  -46.6740  -90.1290 O.co2  31  G31        -0.5172
    674  P         37.6100  -50.7960  -92.0600 P.3    32  G32         0.2141
    675  C5'       36.3830  -51.2650  -94.2840 C.3    32  G32         0.1812
    676  O5'       37.5780  -50.9090  -93.6420 O.3    32  G32        -0.3114
    677  C4'       36.5920  -51.3560  -95.7580 C.3    32  G32         0.1773
    678  O4'       37.0040  -50.0660  -96.2590 O.3    32  G32        -0.3307
    679  C3'       37.6940  -52.2670  -96.2490 C.3    32  G32         0.1860
    680  O3'       37.2740  -53.6230  -96.1770 O.3    32  G32        -0.3112
    681  C2'       37.8330  -51.7690  -97.6840 C.3    32  G32         0.2309
    682  O2'       36.7940  -52.2230  -98.5360 O.3    32  G32        -0.2156
    683  C1'       37.6810  -50.2520  -97.4890 C.3    32  G32         0.2408
    684  N1        41.3510  -48.2360 -100.3120 N.ar   32  G32        -0.1709
    685  C2        40.0920  -48.6600 -100.6800 C.ar   32  G32         0.2606
    686  N2        39.7930  -48.6150 -101.9840 N.pl3  32  G32        -0.0859
    687  N3        39.1850  -49.0960  -99.8290 N.ar   32  G32        -0.1918
    688  C4        39.6360  -49.0750  -98.5590 C.ar   32  G32         0.1723
    689  C5        40.8520  -48.6490  -98.0840 C.ar   32  G32         0.1748
    690  C6        41.8250  -48.1950  -99.0020 C.ar   32  G32         0.3023
    691  O6        42.9780  -47.8020  -98.7660 O.2    32  G32        -0.2633
    692  N7        40.9080  -48.7640  -96.7060 N.ar   32  G32        -0.2173
    693  C8        39.7600  -49.2840  -96.3810 C.ar   32  G32         0.1817
    694  N9        38.9620  -49.5440  -97.4630 N.ar   32  G32        -0.2693
    695  OP1       36.7350  -51.8440  -91.4780 O.3    32  G32        -0.4373
    696  OP2       39.0470  -50.7150  -91.6430 O.co2  32  G32        -0.5172
    697  P         38.3550  -54.8080  -95.9890 P.3    33  A33         0.2141
    698  C5'       37.5810  -54.8460  -93.4730 C.3    33  A33         0.1812
    699  O5'       38.6400  -54.8920  -94.4220 O.3    33  A33        -0.3114
    700  C4'       37.7530  -55.9320  -92.4260 C.3    33  A33         0.1773
    701  O4'       37.4480  -57.2320  -92.9970 O.3    33  A33        -0.3307
    702  C3'       39.1390  -56.1020  -91.8290 C.3    33  A33         0.1860
    703  O3'       39.3730  -55.1640  -90.7820 O.3    33  A33        -0.3112
    704  C2'       39.1000  -57.5400  -91.3140 C.3    33  A33         0.2309
    705  O2'       38.4840  -57.6740  -90.0490 O.3    33  A33        -0.2156
    706  C1'       38.2510  -58.2290  -92.3830 C.3    33  A33         0.2408
    707  N1        41.7580  -61.8470  -93.5130 N.ar   33  A33        -0.2040
    708  C2        41.1720  -61.4950  -92.3550 C.ar   33  A33         0.2016
    709  N3        40.2590  -60.5450  -92.1200 N.ar   33  A33        -0.2048
    710  C4        39.9330  -59.9120  -93.2640 C.ar   33  A33         0.1692
    711  C5        40.4470  -60.1670  -94.5290 C.ar   33  A33         0.1518
    712  C6        41.4150  -61.1770  -94.6380 C.ar   33  A33         0.1919
    713  N6        42.0130  -61.4940  -95.7890 N.pl3  33  A33        -0.1054
    714  N7        39.8780  -59.3230  -95.4720 N.ar   33  A33        -0.2193
    715  C8        39.0530  -58.5840  -94.7710 C.ar   33  A33         0.1816
    716  N9        39.0400  -58.8800  -93.4270 N.ar   33  A33        -0.2693
    717  OP1       39.6280  -54.4390  -96.6560 O.2    33  A33        -0.5172
    718  OP2       37.6420  -56.0360  -96.4110 O.co2  33  A33        -0.4373
    719  P         40.8630  -54.6090  -90.5290 P.3    34  C34         0.2141
    720  C5'       41.7500  -56.6170  -89.0390 C.3    34  C34         0.1812
    721  O5'       41.7340  -55.9230  -90.2920 O.3    34  C34        -0.3114
    722  C4'       42.9240  -57.5780  -89.0000 C.3    34  C34         0.1773
    723  O4'       42.6830  -58.6970  -89.9040 O.3    34  C34        -0.3307
    724  C3'       44.2290  -56.9620  -89.4890 C.3    34  C34         0.1860
    725  O3'       44.9070  -56.2660  -88.4500 O.3    34  C34        -0.3112
    726  C2'       45.0060  -58.1660  -90.0000 C.3    34  C34         0.2309
    727  O2'       45.6730  -58.8640  -88.9640 O.3    34  C34        -0.2156
    728  C1'       43.8810  -59.0150  -90.6030 C.3    34  C34         0.2420
    729  N1        43.6650  -58.7880  -92.0510 N.ar   34  C34        -0.2535
    730  C2        44.4900  -59.4450  -92.9710 C.ar   34  C34         0.3532
    731  O2        45.4220  -60.1540  -92.5540 O.2    34  C34        -0.2443
    732  N3        44.2620  -59.2850  -94.2930 N.ar   34  C34        -0.1739
    733  C4        43.2770  -58.4970  -94.7090 C.ar   34  C34         0.1759
    734  N4        43.0790  -58.3960  -96.0220 N.pl3  34  C34        -0.1070
    735  C5        42.4490  -57.7880  -93.8020 C.ar   34  C34         0.0566
    736  C6        42.6710  -57.9630  -92.4950 C.ar   34  C34         0.0850
    737  OP1       40.8190  -53.7840  -89.2780 O.3    34  C34        -0.4373
    738  OP2       41.3730  -54.0160  -91.8040 O.co2  34  C34        -0.5172
    739  P         45.7680  -54.9550  -88.8040 P.3    35  G35         0.2141
    740  C5'       48.0020  -56.3090  -89.0760 C.3    35  G35         0.1812
    741  O5'       46.9830  -55.5140  -89.6750 O.3    35  G35        -0.3114
    742  C4'       49.0790  -56.6360  -90.0810 C.3    35  G35         0.1773
    743  O4'       48.6290  -57.6620  -90.9980 O.3    35  G35        -0.3307
    744  C3'       49.5160  -55.4920  -90.9730 C.3    35  G35         0.1860
    745  O3'       50.4340  -54.6590  -90.2710 O.3    35  G35        -0.3112
    746  C2'       50.1340  -56.2280  -92.1610 C.3    35  G35         0.2309
    747  O2'       51.4650  -56.6430  -91.9420 O.3    35  G35        -0.2156
    748  C1'       49.2260  -57.4560  -92.2680 C.3    35  G35         0.2408
    749  N1        47.9060  -57.6750  -97.1750 N.ar   35  G35        -0.1709
    750  C2        49.1270  -57.9070  -96.5950 C.ar   35  G35         0.2606
    751  N2        50.1200  -58.2290  -97.4350 N.pl3  35  G35        -0.0859
    752  N3        49.3570  -57.8250  -95.2900 N.ar   35  G35        -0.1918
    753  C4        48.2480  -57.4780  -94.6050 C.ar   35  G35         0.1723
    754  C5        46.9830  -57.2210  -95.0910 C.ar   35  G35         0.1748
    755  C6        46.7500  -57.3190  -96.4870 C.ar   35  G35         0.3023
    756  O6        45.6940  -57.1340  -97.1060 O.2    35  G35        -0.2633
    757  N7        46.1150  -56.8920  -94.0590 N.ar   35  G35        -0.2173
    758  C8        46.8520  -56.9540  -92.9840 C.ar   35  G35         0.1817
    759  N9        48.1560  -57.3030  -93.2440 N.ar   35  G35        -0.2693
    760  OP1       46.2590  -54.4530  -87.4910 O.3    35  G35        -0.4373
    761  OP2       44.9820  -54.0580  -89.6900 O.co2  35  G35        -0.5172
    762  P         50.8610  -53.2390  -90.8900 P.3    36  G36         0.2141
    763  C5'       51.8940  -52.7680  -93.2800 C.3    36  G36         0.1812
    764  O5'       51.7170  -53.6530  -92.1770 O.3    36  G36        -0.3114
    765  C4'       52.3330  -53.5470  -94.4960 C.3    36  G36         0.1773
    766  O4'       51.4230  -54.6570  -94.6850 O.3    36  G36        -0.3307
    767  C3'       52.2860  -52.7640  -95.8030 C.3    36  G36         0.1860
    768  O3'       53.5060  -52.0780  -96.0520 O.3    36  G36        -0.3112
    769  C2'       52.0150  -53.8460  -96.8420 C.3    36  G36         0.2309
    770  O2'       53.1570  -54.5550  -97.2820 O.3    36  G36        -0.2156
    771  C1'       51.0840  -54.7740  -96.0630 C.3    36  G36         0.2408
    772  N1        47.1960  -54.1150  -99.2910 N.ar   36  G36        -0.1709
    773  C2        48.5200  -54.3260  -99.5700 C.ar   36  G36         0.2606
    774  N2        48.8460  -54.3840 -100.8660 N.pl3  36  G36        -0.0859
    775  N3        49.4550  -54.4650  -98.6460 N.ar   36  G36        -0.1918
    776  C4        48.9520  -54.3480  -97.3990 C.ar   36  G36         0.1723
    777  C5        47.6470  -54.1160  -97.0170 C.ar   36  G36         0.1748
    778  C6        46.6530  -54.0040  -98.0130 C.ar   36  G36         0.3023
    779  O6        45.4300  -53.8430  -97.8650 O.2    36  G36        -0.2633
    780  N7        47.5400  -54.0430  -95.6360 N.ar   36  G36        -0.2173
    781  C8        48.7530  -54.2450  -95.2040 C.ar   36  G36         0.1817
    782  N9        49.6610  -54.4590  -96.2170 N.ar   36  G36        -0.2693
    783  OP1       51.7410  -52.6080  -89.8750 O.3    36  G36        -0.4373
    784  OP2       49.6380  -52.5210  -91.3340 O.co2  36  G36        -0.5172
    785  P         53.5420  -50.4730  -95.9850 P.3    37  A37         0.2141
    786  C5'       52.2110  -48.6640  -97.3470 C.3    37  A37         0.1812
    787  O5'       52.7470  -49.9890  -97.2820 O.3    37  A37        -0.3114
    788  C4'       51.4650  -48.4440  -98.6470 C.3    37  A37         0.1773
    789  O4'       50.6710  -49.6160  -98.9530 O.3    37  A37        -0.3307
    790  C3'       50.4930  -47.2650  -98.6150 C.3    37  A37         0.1860
    791  O3'       51.1030  -46.0610  -99.1100 O.3    37  A37        -0.3112
    792  C2'       49.3840  -47.6810  -99.5880 C.3    37  A37         0.2309
    793  O2'       49.5170  -47.1210 -100.8800 O.3    37  A37        -0.2156
    794  C1'       49.4830  -49.2190  -99.6070 C.3    37  A37         0.2408
    795  N1        44.7780  -51.1590 -100.3010 N.ar   37  A37        -0.2040
    796  C2        45.6860  -50.6770 -101.1620 C.ar   37  A37         0.2016
    797  N3        46.9100  -50.2230 -100.9220 N.ar   37  A37        -0.2048
    798  C4        47.1960  -50.3040  -99.6070 C.ar   37  A37         0.1692
    799  C5        46.3710  -50.7890  -98.6060 C.ar   37  A37         0.1518
    800  C6        45.0930  -51.2220  -98.9870 C.ar   37  A37         0.1919
    801  N6        44.1760  -51.6790  -98.1220 N.pl3  37  A37        -0.1054
    802  N7        47.0090  -50.7370  -97.3730 N.ar   37  A37        -0.2193
    803  C8        48.1780  -50.2100  -97.6460 C.ar   37  A37         0.1816
    804  N9        48.3480  -49.8950  -98.9750 N.ar   37  A37        -0.2693
    805  OP1       54.9670  -50.0720  -96.1520 O.2    37  A37        -0.5172
    806  OP2       52.7850  -50.0400  -94.7680 O.co2  37  A37        -0.4373
    807  P         52.0110  -45.1310  -98.1470 P.3    38  C38         0.2141
    808  C5'       53.7890  -43.9210  -99.7010 C.3    38  C38         0.1812
    809  O5'       53.4050  -45.0680  -98.9270 O.3    38  C38        -0.3114
    810  C4'       53.9750  -44.2980 -101.1630 C.3    38  C38         0.1773
    811  O4'       54.8410  -45.4640 -101.2550 O.3    38  C38        -0.3307
    812  C3'       52.7040  -44.6650 -101.9250 C.3    38  C38         0.1860
    813  O3'       52.1250  -43.4740 -102.4900 O.3    38  C38        -0.3112
    814  C2'       53.2070  -45.6410 -102.9990 C.3    38  C38         0.2309
    815  O2'       53.6410  -45.0310 -104.2040 O.3    38  C38        -0.2156
    816  C1'       54.3920  -46.3210 -102.2940 C.3    38  C38         0.2420
    817  N1        54.1590  -47.6730 -101.7230 N.ar   38  C38        -0.2535
    818  C2        53.5720  -48.6790 -102.5260 C.ar   38  C38         0.3532
    819  O2        53.2690  -48.4190 -103.7050 O.2    38  C38        -0.2443
    820  N3        53.3580  -49.9080 -101.9890 N.ar   38  C38        -0.1739
    821  C4        53.7090  -50.1570 -100.7210 C.ar   38  C38         0.1759
    822  N4        53.4690  -51.3790 -100.2290 N.pl3  38  C38        -0.1070
    823  C5        54.3180  -49.1640  -99.8960 C.ar   38  C38         0.0566
    824  C6        54.5160  -47.9510 -100.4280 C.ar   38  C38         0.0850
    825  OP1       52.2450  -45.8120  -96.8430 O.3    38  C38        -0.4373
    826  OP2       51.4070  -43.7680  -98.1640 O.co2  38  C38        -0.5172
    827  P         50.5200  -43.2690 -102.5060 P.3    39  A39         0.2141
    828  C5'       50.5120  -43.6320 -105.1050 C.3    39  A39         0.1812
    829  O5'       50.0460  -44.0420 -103.8200 O.3    39  A39        -0.3114
    830  C4'       50.3080  -44.7300 -106.1220 C.3    39  A39         0.1773
    831  O4'       51.0340  -45.9160 -105.7040 O.3    39  A39        -0.3307
    832  C3'       48.8810  -45.2250 -106.3180 C.3    39  A39         0.1860
    833  O3'       48.1480  -44.3790 -107.1990 O.3    39  A39        -0.3112
    834  C2'       49.1050  -46.6060 -106.9260 C.3    39  A39         0.2309
    835  O2'       49.3610  -46.5900 -108.3210 O.3    39  A39        -0.2156
    836  C1'       50.3450  -47.0750 -106.1570 C.3    39  A39         0.2408
    837  N1        49.8860  -51.8610 -104.3050 N.ar   39  A39        -0.2040
    838  C2        50.2590  -51.3890 -105.5070 C.ar   39  A39         0.2016
    839  N3        50.3610  -50.1260 -105.9220 N.ar   39  A39        -0.2048
    840  C4        50.0200  -49.2690 -104.9380 C.ar   39  A39         0.1692
    841  C5        49.6120  -49.5980 -103.6560 C.ar   39  A39         0.1518
    842  C6        49.5520  -50.9760 -103.3340 C.ar   39  A39         0.1919
    843  N6        49.1910  -51.4470 -102.1320 N.pl3  39  A39        -0.1054
    844  N7        49.3350  -48.4510 -102.9220 N.ar   39  A39        -0.2193
    845  C8        49.5820  -47.4720 -103.7560 C.ar   39  A39         0.1816
    846  N9        49.9990  -47.8940 -104.9950 N.ar   39  A39        -0.2693
    847  OP1       50.2650  -41.8160 -102.7340 O.2    39  A39        -0.5172
    848  OP2       49.9280  -43.9400 -101.3120 O.co2  39  A39        -0.4373
    849  P         46.7930  -43.6930 -106.6880 P.3    40  C40         0.2141
    850  C5'       45.3610  -45.4510 -107.9870 C.3    40  C40         0.1812
    851  O5'       45.7260  -44.8680 -106.7460 O.3    40  C40        -0.3114
    852  C4'       44.1900  -46.3800 -107.7990 C.3    40  C40         0.1773
    853  O4'       44.5850  -47.4870 -106.9530 O.3    40  C40        -0.3307
    854  C3'       42.9950  -45.7850 -107.0820 C.3    40  C40         0.1860
    855  O3'       42.1670  -45.0750 -107.9830 O.3    40  C40        -0.3112
    856  C2'       42.3010  -47.0260 -106.5590 C.3    40  C40         0.2309
    857  O2'       41.6010  -47.7000 -107.5870 O.3    40  C40        -0.2156
    858  C1'       43.5040  -47.8620 -106.1160 C.3    40  C40         0.2420
    859  N1        43.9160  -47.6550 -104.7120 N.ar   40  C40        -0.2535
    860  C2        42.9880  -47.8670 -103.6830 C.ar   40  C40         0.3532
    861  O2        41.8380  -48.2360 -103.9750 O.2    40  C40        -0.2443
    862  N3        43.3690  -47.6650 -102.3990 N.ar   40  C40        -0.1739
    863  C4        44.6170  -47.2820 -102.1300 C.ar   40  C40         0.1759
    864  N4        44.9580  -47.1000 -100.8590 N.pl3  40  C40        -0.1070
    865  C5        45.5750  -47.0690 -103.1530 C.ar   40  C40         0.0566
    866  C6        45.1880  -47.2630 -104.4140 C.ar   40  C40         0.0850
    867  OP1       46.3850  -42.6650 -107.6770 O.2    40  C40        -0.5172
    868  OP2       47.0100  -43.3110 -105.2680 O.co2  40  C40        -0.4373
    869  P         41.4240  -43.7500 -107.4810 P.3    41  C41         0.2141
    870  C5'       39.2700  -45.2010 -107.2680 C.3    41  C41         0.1812
    871  O5'       40.1870  -44.3090 -106.6600 O.3    41  C41        -0.3114
    872  C4'       38.2570  -45.6610 -106.2590 C.3    41  C41         0.1773
    873  O4'       38.9210  -46.4180 -105.2120 O.3    41  C41        -0.3307
    874  C3'       37.5650  -44.5480 -105.5020 C.3    41  C41         0.1860
    875  O3'       36.5050  -43.9860 -106.2560 O.3    41  C41        -0.3112
    876  C2'       37.0670  -45.2800 -104.2670 C.3    41  C41         0.2309
    877  O2'       35.9040  -46.0370 -104.5530 O.3    41  C41        -0.2156
    878  C1'       38.2420  -46.2190 -103.9880 C.3    41  C41         0.2420
    879  N1        39.2110  -45.7360 -102.9960 N.ar   41  C41        -0.2535
    880  C2        38.8380  -45.6870 -101.6430 C.ar   41  C41         0.3532
    881  O2        37.6760  -45.9620 -101.3280 O.2    41  C41        -0.2443
    882  N3        39.7580  -45.3400 -100.7170 N.ar   41  C41        -0.1739
    883  C4        41.0020  -45.0350 -101.0960 C.ar   41  C41         0.1759
    884  N4        41.8880  -44.7530 -100.1500 N.pl3  41  C41        -0.1070
    885  C5        41.3930  -45.0200 -102.4600 C.ar   41  C41         0.0566
    886  C6        40.4740  -45.3720 -103.3710 C.ar   41  C41         0.0850
    887  OP1       40.8990  -42.9980 -108.6490 O.2    41  C41        -0.5172
    888  OP2       42.3560  -43.0900 -106.5250 O.co2  41  C41        -0.4373
    889  P         36.0800  -42.4620 -105.9960 P.3    42  C42         0.2141
    890  C5'       34.2040  -43.0880 -104.2870 C.3    42  C42         0.1812
    891  O5'       35.4610  -42.4750 -104.5300 O.3    42  C42        -0.3114
    892  C4'       33.8630  -43.0230 -102.8260 C.3    42  C42         0.1773
    893  O4'       34.9290  -43.6330 -102.0600 O.3    42  C42        -0.3307
    894  C3'       33.7610  -41.6320 -102.2460 C.3    42  C42         0.1860
    895  O3'       32.4500  -41.1230 -102.4840 O.3    42  C42        -0.3112
    896  C2'       33.9780  -41.8920 -100.7620 C.3    42  C42         0.2309
    897  O2'       32.7800  -42.3640 -100.1800 O.3    42  C42        -0.2156
    898  C1'       34.9990  -43.0310 -100.7860 C.3    42  C42         0.2420
    899  N1        36.3960  -42.6660 -100.5310 N.ar   42  C42        -0.2535
    900  C2        36.8560  -42.5710  -99.2000 C.ar   42  C42         0.3532
    901  O2        36.0480  -42.6950  -98.2650 O.2    42  C42        -0.2443
    902  N3        38.1690  -42.3300  -98.9700 N.ar   42  C42        -0.1739
    903  C4        39.0000  -42.1480 -100.0000 C.ar   42  C42         0.1759
    904  N4        40.2890  -41.9260  -99.7370 N.pl3  42  C42        -0.1070
    905  C5        38.5480  -42.1910 -101.3540 C.ar   42  C42         0.0566
    906  C6        37.2540  -42.4530 -101.5700 C.ar   42  C42         0.0850
    907  OP1       34.9850  -42.0990 -106.9260 O.2    42  C42        -0.5172
    908  OP2       37.3260  -41.6570 -105.9750 O.co2  42  C42        -0.4373
    909  P         32.2540  -39.5710 -102.8720 P.3    43  A43         0.2141
    910  C5'       32.1470  -38.7700 -100.2890 C.3    43  A43         0.1812
    911  O5'       32.7930  -38.7640 -101.5920 O.3    43  A43        -0.3114
    912  C4'       33.0040  -37.9510  -99.3400 C.3    43  A43         0.1773
    913  O4'       34.3360  -38.4740  -99.4960 O.3    43  A43        -0.3307
    914  C3'       33.0090  -36.4770  -99.7580 C.3    43  A43         0.1860
    915  O3'       32.8920  -35.5690  -98.6350 O.3    43  A43        -0.3112
    916  C2'       34.3980  -36.2460 -100.3650 C.3    43  A43         0.2309
    917  O2'       35.0600  -35.0540 -100.0250 O.3    43  A43        -0.2156
    918  C1'       35.1940  -37.4510  -99.8680 C.3    43  A43         0.2408
    919  N1        40.1940  -38.1700 -100.2130 N.ar   43  A43        -0.2040
    920  C2        39.3960  -37.7860  -99.2130 C.ar   43  A43         0.2016
    921  N3        38.0710  -37.6810  -99.1900 N.ar   43  A43        -0.2048
    922  C4        37.5450  -38.0240 -100.3770 C.ar   43  A43         0.1692
    923  C5        38.2260  -38.4560 -101.4920 C.ar   43  A43         0.1518
    924  C6        39.6270  -38.5290 -101.3900 C.ar   43  A43         0.1919
    925  N6        40.4190  -38.9290 -102.3860 N.pl3  43  A43        -0.1054
    926  N7        37.3450  -38.7220 -102.5290 N.ar   43  A43        -0.2193
    927  C8        36.1670  -38.4290 -102.0210 C.ar   43  A43         0.1816
    928  N9        36.2270  -37.9700 -100.7400 N.ar   43  A43        -0.2693
    929  OP1       30.7950  -39.2710 -103.0670 O.3    43  A43        -0.4373
    930  OP2       33.2170  -39.3530 -104.0020 O.co2  43  A43        -0.5172
    931  P         31.5280  -35.4290  -97.7750 P.3    44  A44         0.2141
    932  C5'       30.8460  -36.2140  -95.3390 C.3    44  A44         0.1812
    933  O5'       31.8670  -36.0550  -96.3410 O.3    44  A44        -0.3114
    934  C4'       31.4300  -36.7760  -94.0560 C.3    44  A44         0.1773
    935  O4'       32.0860  -38.0480  -94.3300 O.3    44  A44        -0.3307
    936  C3'       32.5240  -35.9380  -93.4150 C.3    44  A44         0.1860
    937  O3'       31.9830  -34.9220  -92.5850 O.3    44  A44        -0.3112
    938  C2'       33.2920  -36.9670  -92.5980 C.3    44  A44         0.2309
    939  O2'       32.6330  -37.3160  -91.4000 O.3    44  A44        -0.2156
    940  C1'       33.2680  -38.1660  -93.5400 C.3    44  A44         0.2408
    941  N1        38.3720  -38.8840  -93.9270 N.ar   44  A44        -0.2040
    942  C2        37.5400  -38.8730  -92.8740 C.ar   44  A44         0.2016
    943  N3        36.2130  -38.6830  -92.8370 N.ar   44  A44        -0.2048
    944  C4        35.7380  -38.4600  -94.0670 C.ar   44  A44         0.1692
    945  C5        36.4710  -38.4370  -95.2420 C.ar   44  A44         0.1518
    946  C6        37.8530  -38.6870  -95.1480 C.ar   44  A44         0.1919
    947  N6        38.6640  -38.7590  -96.1950 N.pl3  44  A44        -0.1054
    948  N7        35.6490  -38.1640  -96.3250 N.ar   44  A44        -0.2193
    949  C8        34.4530  -38.0430  -95.7940 C.ar   44  A44         0.1816
    950  N9        34.4330  -38.2160  -94.4300 N.ar   44  A44        -0.2693
    951  OP1       30.4410  -36.2410  -98.3840 O.2    44  A44        -0.5172
    952  OP2       31.3040  -33.9850  -97.5060 O.co2  44  A44        -0.4373
    953  P         32.8010  -33.5530  -92.3710 P.3    45  G45         0.2141
    954  C5'       33.9860  -34.2160  -90.1340 C.3    45  G45         0.1812
    955  O5'       34.0860  -33.9880  -91.5350 O.3    45  G45        -0.3114
    956  C4'       35.3540  -34.3210  -89.5200 C.3    45  G45         0.1773
    957  O4'       36.0120  -35.5060  -90.0220 O.3    45  G45        -0.3307
    958  C3'       36.3420  -33.2180  -89.8520 C.3    45  G45         0.1860
    959  O3'       36.1620  -32.0830  -89.0280 O.3    45  G45        -0.3112
    960  C2'       37.6510  -33.9060  -89.5190 C.3    45  G45         0.2309
    961  O2'       37.7830  -34.0770  -88.1130 O.3    45  G45        -0.2156
    962  C1'       37.4050  -35.2690  -90.1500 C.3    45  G45         0.2408
    963  N1        41.2160  -35.5110  -93.4980 N.ar   45  G45        -0.1709
    964  C2        41.2510  -35.3320  -92.1480 C.ar   45  G45         0.2606
    965  N2        42.4670  -35.2580  -91.6000 N.pl3  45  G45        -0.0859
    966  N3        40.1810  -35.2460  -91.3810 N.ar   45  G45        -0.1918
    967  C4        39.0460  -35.3810  -92.0820 C.ar   45  G45         0.1723
    968  C5        38.8930  -35.5780  -93.4330 C.ar   45  G45         0.1748
    969  C6        40.0570  -35.6520  -94.2510 C.ar   45  G45         0.3023
    970  O6        40.1360  -35.8190  -95.4890 O.2    45  G45        -0.2633
    971  N7        37.5510  -35.6700  -93.7700 N.ar   45  G45        -0.2173
    972  C8        36.9240  -35.5250  -92.6340 C.ar   45  G45         0.1817
    973  N9        37.7730  -35.3730  -91.5650 N.ar   45  G45        -0.2693
    974  OP1       31.9470  -32.7150  -91.4880 O.3    45  G45        -0.4373
    975  OP2       33.2240  -33.0420  -93.7100 O.co2  45  G45        -0.5172
    976  P         36.5580  -30.6280  -89.5840 P.3    46  G46         0.2141
    977  C5'       39.0400  -30.8750  -88.8870 C.3    46  G46         0.1812
    978  O5'       38.1070  -30.7210  -89.9330 O.3    46  G46        -0.3114
    979  C4'       40.4430  -30.7890  -89.4030 C.3    46  G46         0.1773
    980  O4'       40.7820  -31.9710  -90.1590 O.3    46  G46        -0.3307
    981  C3'       40.7320  -29.6790  -90.3830 C.3    46  G46         0.1860
    982  O3'       40.8800  -28.4460  -89.7160 O.3    46  G46        -0.3112
    983  C2'       42.0480  -30.1410  -90.9860 C.3    46  G46         0.2309
    984  O2'       43.1440  -29.8820  -90.1460 O.3    46  G46        -0.2156
    985  C1'       41.8150  -31.6500  -91.0790 C.3    46  G46         0.2408
    986  N1        43.3130  -32.6160  -95.7910 N.ar   46  G46        -0.1709
    987  C2        44.0650  -32.4030  -94.6630 C.ar   46  G46         0.2606
    988  N2        45.4020  -32.4430  -94.8070 N.pl3  46  G46        -0.0859
    989  N3        43.5490  -32.1810  -93.4750 N.ar   46  G46        -0.1918
    990  C4        42.2020  -32.2180  -93.4940 C.ar   46  G46         0.1723
    991  C5        41.3620  -32.4400  -94.5550 C.ar   46  G46         0.1748
    992  C6        41.9170  -32.6500  -95.8290 C.ar   46  G46         0.3023
    993  O6        41.3220  -32.8500  -96.9040 O.2    46  G46        -0.2633
    994  N7        40.0360  -32.4160  -94.1470 N.ar   46  G46        -0.2173
    995  C8        40.0970  -32.1740  -92.8700 C.ar   46  G46         0.1817
    996  N9        41.3810  -32.0150  -92.4190 N.ar   46  G46        -0.2693
    997  OP1       36.3900  -29.7310  -88.4100 O.3    46  G46        -0.4373
    998  OP2       35.7800  -30.3790  -90.8220 O.co2  46  G46        -0.5172
    999  P         40.2600  -27.1240  -90.3690 P.3    47  U47         0.2141
   1000  C5'       40.9910  -26.4660  -92.8110 C.3    47  U47         0.1812
   1001  O5'       40.3730  -27.3960  -91.9330 O.3    47  U47        -0.3114
   1002  C4'       42.4310  -26.8520  -93.0760 C.3    47  U47         0.1773
   1003  O4'       42.5390  -28.2580  -93.4370 O.3    47  U47        -0.3307
   1004  C3'       43.0290  -26.1320  -94.2690 C.3    47  U47         0.1860
   1005  O3'       43.4860  -24.8380  -93.9050 O.3    47  U47        -0.3112
   1006  C2'       44.1830  -27.0410  -94.6540 C.3    47  U47         0.2309
   1007  O2'       45.3230  -26.8180  -93.8600 O.3    47  U47        -0.2156
   1008  C1'       43.5880  -28.4280  -94.3820 C.3    47  U47         0.2420
   1009  N1        43.0480  -29.0240  -95.6140 N.ar   47  U47        -0.2534
   1010  C2        43.9600  -29.4500  -96.5810 C.ar   47  U47         0.3546
   1011  O2        45.1670  -29.4500  -96.4120 O.2    47  U47        -0.2443
   1012  N3        43.4060  -29.8740  -97.7560 N.ar   47  U47        -0.1530
   1013  C4        42.0730  -29.9280  -98.0600 C.ar   47  U47         0.2846
   1014  O4        41.7410  -30.1260  -99.2280 O.2    47  U47        -0.2650
   1015  C5        41.1970  -29.5420  -96.9930 C.ar   47  U47         0.0814
   1016  C6        41.7030  -29.1190  -95.8370 C.ar   47  U47         0.0870
   1017  OP1       41.2490  -26.0900  -89.9730 O.3    47  U47        -0.4373
   1018  OP2       38.8180  -26.9820  -89.9950 O.co2  47  U47        -0.5172
   1019  P         43.1490  -23.5780  -94.8500 P.3    48  G48         0.2141
   1020  C5'       45.0240  -24.3560  -96.4980 C.3    48  G48         0.1812
   1021  O5'       43.6550  -24.0230  -96.2940 O.3    48  G48        -0.3114
   1022  C4'       45.2440  -24.8770  -97.8920 C.3    48  G48         0.1773
   1023  O4'       44.5930  -26.1670  -98.0460 O.3    48  G48        -0.3307
   1024  C3'       44.6730  -24.0420  -99.0180 C.3    48  G48         0.1860
   1025  O3'       45.5590  -22.9660  -99.3220 O.3    48  G48        -0.3112
   1026  C2'       44.6120  -25.0750 -100.1350 C.3    48  G48         0.2309
   1027  O2'       45.9170  -25.3600 -100.5910 O.3    48  G48        -0.2156
   1028  C1'       44.1290  -26.3140  -99.3770 C.3    48  G48         0.2408
   1029  N1        39.9070  -27.8060 -101.8520 N.ar   48  G48        -0.1709
   1030  C2        41.1700  -27.6340 -102.3480 C.ar   48  G48         0.2606
   1031  N2        41.3140  -27.9120 -103.6640 N.pl3  48  G48        -0.0859
   1032  N3        42.2080  -27.2200 -101.6180 N.ar   48  G48        -0.1918
   1033  C4        41.8510  -26.9650 -100.3420 C.ar   48  G48         0.1723
   1034  C5        40.6040  -27.0890  -99.7610 C.ar   48  G48         0.1748
   1035  C6        39.5250  -27.5690 -100.5410 C.ar   48  G48         0.3023
   1036  O6        38.3620  -27.8010 -100.1860 O.2    48  G48        -0.2633
   1037  N7        40.6390  -26.7120  -98.4280 N.ar   48  G48        -0.2173
   1038  C8        41.8850  -26.3950  -98.2130 C.ar   48  G48         0.1817
   1039  N9        42.6840  -26.5390  -99.3240 N.ar   48  G48        -0.2693
   1040  OP1       44.0420  -22.5030  -94.3450 O.3    48  G48        -0.4373
   1041  OP2       41.6810  -23.3460  -94.9050 O.co2  48  G48        -0.5172
   1042  P         44.9730  -21.5740  -99.9070 P.3    49  C49         0.2141
   1043  C5'       45.1020  -22.3590 -102.4040 C.3    49  C49         0.1812
   1044  O5'       44.2960  -22.0030 -101.2870 O.3    49  C49        -0.3114
   1045  C4'       44.2460  -22.8440 -103.5480 C.3    49  C49         0.1773
   1046  O4'       43.5690  -24.0660 -103.1540 O.3    49  C49        -0.3307
   1047  C3'       43.1070  -21.9410 -104.0090 C.3    49  C49         0.1860
   1048  O3'       43.5530  -20.8960 -104.8760 O.3    49  C49        -0.3112
   1049  C2'       42.2240  -22.9450 -104.7370 C.3    49  C49         0.2309
   1050  O2'       42.7880  -23.3390 -105.9750 O.3    49  C49        -0.2156
   1051  C1'       42.2890  -24.1190 -103.7680 C.3    49  C49         0.2420
   1052  N1        41.2690  -24.0720 -102.7040 N.ar   49  C49        -0.2535
   1053  C2        39.9840  -24.5510 -102.9750 C.ar   49  C49         0.3532
   1054  O2        39.7020  -24.9000 -104.1330 O.2    49  C49        -0.2443
   1055  N3        39.0780  -24.6160 -101.9740 N.ar   49  C49        -0.1739
   1056  C4        39.4120  -24.2130 -100.7520 C.ar   49  C49         0.1759
   1057  N4        38.5140  -24.3650  -99.7750 N.pl3  49  C49        -0.1070
   1058  C5        40.6870  -23.6580 -100.4670 C.ar   49  C49         0.0566
   1059  C6        41.5770  -23.6040 -101.4610 C.ar   49  C49         0.0850
   1060  OP1       46.1710  -20.7260 -100.1900 O.2    49  C49        -0.5172
   1061  OP2       43.9000  -21.0470  -99.0240 O.co2  49  C49        -0.4373
   1062  P         42.7630  -19.4870 -104.9200 P.3    50  U50         0.2141
   1063  C5'       41.1140  -20.3440 -106.7880 C.3    50  U50         0.1812
   1064  O5'       41.3060  -19.8300 -105.4690 O.3    50  U50        -0.3114
   1065  C4'       39.6720  -20.7660 -106.9760 C.3    50  U50         0.1773
   1066  O4'       39.3360  -21.7330 -105.9520 O.3    50  U50        -0.3307
   1067  C3'       38.6250  -19.6760 -106.7910 C.3    50  U50         0.1860
   1068  O3'       38.4600  -18.9430 -108.0060 O.3    50  U50        -0.3112
   1069  C2'       37.3720  -20.4770 -106.4390 C.3    50  U50         0.2309
   1070  O2'       36.6880  -21.0200 -107.5500 O.3    50  U50        -0.2156
   1071  C1'       37.9630  -21.6280 -105.6300 C.3    50  U50         0.2420
   1072  N1        37.8060  -21.4970 -104.1740 N.ar   50  U50        -0.2534
   1073  C2        36.6060  -21.9050 -103.6470 C.ar   50  U50         0.3546
   1074  O2        35.6990  -22.3380 -104.3330 O.2    50  U50        -0.2443
   1075  N3        36.4990  -21.7940 -102.2880 N.ar   50  U50        -0.1530
   1076  C4        37.4480  -21.3330 -101.4180 C.ar   50  U50         0.2846
   1077  O4        37.2230  -21.3900 -100.2130 O.2    50  U50        -0.2650
   1078  C5        38.6660  -20.9110 -102.0320 C.ar   50  U50         0.0814
   1079  C6        38.8010  -21.0010 -103.3590 C.ar   50  U50         0.0870
   1080  OP1       43.4940  -18.7240 -105.9660 O.2    50  U50        -0.5172
   1081  OP2       42.5990  -18.9160 -103.5590 O.co2  50  U50        -0.4373
   1082  P         38.2530  -17.3460 -107.9710 P.3    51  C51         0.2141
   1083  C5'       38.9620  -17.2430 -110.5110 C.3    51  C51         0.1812
   1084  O5'       39.1890  -16.8360 -109.1580 O.3    51  C51        -0.3114
   1085  C4'       39.9590  -16.5720 -111.4410 C.3    51  C51         0.1773
   1086  O4'       39.8500  -15.1230 -111.3170 O.3    51  C51        -0.3307
   1087  C3'       41.4320  -16.8570 -111.1760 C.3    51  C51         0.1860
   1088  O3'       41.8320  -18.0830 -111.7890 O.3    51  C51        -0.3112
   1089  C2'       42.1180  -15.6480 -111.8140 C.3    51  C51         0.2309
   1090  O2'       42.2570  -15.7390 -113.2210 O.3    51  C51        -0.2156
   1091  C1'       41.1320  -14.5250 -111.4820 C.3    51  C51         0.2420
   1092  N1        41.4850  -13.7720 -110.2540 N.ar   51  C51        -0.2535
   1093  C2        42.4370  -12.7250 -110.3420 C.ar   51  C51         0.3532
   1094  O2        42.9600  -12.4630 -111.4470 O.2    51  C51        -0.2443
   1095  N3        42.7590  -12.0340 -109.2210 N.ar   51  C51        -0.1739
   1096  C4        42.1830  -12.3420 -108.0520 C.ar   51  C51         0.1759
   1097  N4        42.5300  -11.6290 -106.9770 N.pl3  51  C51        -0.1070
   1098  C5        41.2240  -13.3960 -107.9340 C.ar   51  C51         0.0566
   1099  C6        40.9080  -14.0760 -109.0460 C.ar   51  C51         0.0850
   1100  OP1       38.8180  -16.7890 -106.7100 O.3    51  C51        -0.4373
   1101  OP2       36.8190  -17.1040 -108.3110 O.co2  51  C51        -0.5172
   1102  P         43.1320  -18.8680 -111.2460 P.3    52  A52         0.2141
   1103  C5'       44.9550  -17.5690 -112.6400 C.3    52  A52         0.1812
   1104  O5'       44.3180  -17.8100 -111.3880 O.3    52  A52        -0.3114
   1105  C4'       46.0950  -16.5970 -112.4590 C.3    52  A52         0.1773
   1106  O4'       45.5680  -15.3230 -111.9910 O.3    52  A52        -0.3307
   1107  C3'       47.1090  -16.9830 -111.3930 C.3    52  A52         0.1860
   1108  O3'       48.0610  -17.9280 -111.8750 O.3    52  A52        -0.3112
   1109  C2'       47.7130  -15.6320 -111.0280 C.3    52  A52         0.2309
   1110  O2'       48.6570  -15.1490 -111.9670 O.3    52  A52        -0.2156
   1111  C1'       46.4670  -14.7460 -111.0520 C.3    52  A52         0.2408
   1112  N1        46.2020  -12.3500 -106.4990 N.ar   52  A52        -0.2040
   1113  C2        46.9640  -12.1430 -107.5830 C.ar   52  A52         0.2016
   1114  N3        46.9810  -12.8030 -108.7410 N.ar   52  A52        -0.2048
   1115  C4        46.0740  -13.8000 -108.7330 C.ar   52  A52         0.1692
   1116  C5        45.2200  -14.1390 -107.6940 C.ar   52  A52         0.1518
   1117  C6        45.3010  -13.3620 -106.5210 C.ar   52  A52         0.1919
   1118  N6        44.5410  -13.5730 -105.4400 N.pl3  52  A52        -0.1054
   1119  N7        44.4230  -15.2240 -108.0430 N.ar   52  A52        -0.2193
   1120  C8        44.8030  -15.5130 -109.2640 C.ar   52  A52         0.1816
   1121  N9        45.8040  -14.6930 -109.7460 N.ar   52  A52        -0.2693
   1122  OP1       43.3860  -19.9980 -112.1860 O.2    52  A52        -0.5172
   1123  OP2       42.9560  -19.1480 -109.7910 O.co2  52  A52        -0.4373
   1124  P         48.5940  -19.0920 -110.8960 P.3    53  C53         0.2141
   1125  C5'       50.6290  -17.5470 -110.3340 C.3    53  C53         0.1812
   1126  O5'       49.5410  -18.3260 -109.8720 O.3    53  C53        -0.3114
   1127  C4'       51.1810  -16.7190 -109.2100 C.3    53  C53         0.1773
   1128  O4'       51.5860  -17.5920 -108.1280 O.3    53  C53        -0.3307
   1129  C3'       52.4490  -15.9760 -109.5730 C.3    53  C53         0.1860
   1130  O3'       52.1360  -14.7550 -110.2120 O.3    53  C53        -0.3112
   1131  C2'       53.1150  -15.7820 -108.2210 C.3    53  C53         0.2309
   1132  O2'       52.5620  -14.7150 -107.4790 O.3    53  C53        -0.2156
   1133  C1'       52.7930  -17.1150 -107.5460 C.3    53  C53         0.2420
   1134  N1        53.8450  -18.1410 -107.7200 N.ar   53  C53        -0.2535
   1135  C2        55.0710  -17.9690 -107.0670 C.ar   53  C53         0.3532
   1136  O2        55.2480  -16.9590 -106.3840 O.2    53  C53        -0.2443
   1137  N3        56.0320  -18.9090 -107.2020 N.ar   53  C53        -0.1739
   1138  C4        55.8070  -19.9880 -107.9520 C.ar   53  C53         0.1759
   1139  N4        56.7750  -20.8930 -108.0450 N.pl3  53  C53        -0.1070
   1140  C5        54.5740  -20.1870 -108.6390 C.ar   53  C53         0.0566
   1141  C6        53.6300  -19.2480 -108.4980 C.ar   53  C53         0.0850
   1142  OP1       49.4370  -20.0100 -111.7100 O.2    53  C53        -0.5172
   1143  OP2       47.4380  -19.6340 -110.1260 O.co2  53  C53        -0.4373
   1144  P         52.8890  -14.3630 -111.5730 P.3    54  A54         0.2141
   1145  C5'       53.9450  -12.3750 -110.2740 C.3    54  A54         0.1812
   1146  O5'       54.1450  -13.5240 -111.0720 O.3    54  A54        -0.3114
   1147  C4'       55.1200  -12.1510 -109.3680 C.3    54  A54         0.1773
   1148  O4'       55.3290  -13.3250 -108.5470 O.3    54  A54        -0.3307
   1149  C3'       56.4640  -11.9760 -110.0420 C.3    54  A54         0.1860
   1150  O3'       56.6090  -10.6800 -110.6130 O.3    54  A54        -0.3112
   1151  C2'       57.4070  -12.2330 -108.8750 C.3    54  A54         0.2309
   1152  O2'       57.4770  -11.1540 -107.9680 O.3    54  A54        -0.2156
   1153  C1'       56.7060  -13.4100 -108.1960 C.3    54  A54         0.2408
   1154  N1        60.6480  -16.7150 -107.9190 N.ar   54  A54        -0.2040
   1155  C2        60.4510  -15.5080 -107.3840 C.ar   54  A54         0.2016
   1156  N3        59.3980  -14.6950 -107.5010 N.ar   54  A54        -0.2048
   1157  C4        58.4530  -15.2450 -108.2870 C.ar   54  A54         0.1692
   1158  C5        58.5140  -16.4760 -108.9130 C.ar   54  A54         0.1518
   1159  C6        59.6770  -17.2400 -108.7060 C.ar   54  A54         0.1919
   1160  N6        59.8690  -18.4470 -109.2400 N.pl3  54  A54        -0.1054
   1161  N7        57.3620  -16.7100 -109.6530 N.ar   54  A54        -0.2193
   1162  C8        56.6350  -15.6360 -109.4550 C.ar   54  A54         0.1816
   1163  N9        57.2320  -14.7080 -108.6330 N.ar   54  A54        -0.2693
   1164  OP1       51.9140  -13.4810 -112.2720 O.2    54  A54        -0.5172
   1165  OP2       53.3940  -15.5930 -112.2510 O.co2  54  A54        -0.4373
   1166  P         57.2330  -10.5220 -112.0950 P.3    55  C55         0.2141
   1167  C5'       59.3900   -9.5030 -111.0280 C.3    55  C55         0.1812
   1168  O5'       58.8060  -10.5280 -111.8220 O.3    55  C55        -0.3114
   1169  C4'       60.7210   -9.9440 -110.4740 C.3    55  C55         0.1773
   1170  O4'       60.5300  -11.1080 -109.6250 O.3    55  C55        -0.3307
   1171  C3'       61.7710  -10.4050 -111.4710 C.3    55  C55         0.1860
   1172  O3'       62.4350   -9.3220 -112.1160 O.3    55  C55        -0.3112
   1173  C2'       62.6980  -11.2160 -110.5720 C.3    55  C55         0.2309
   1174  O2'       63.5420  -10.4210 -109.7620 O.3    55  C55        -0.2156
   1175  C1'       61.6750  -11.9560 -109.7060 C.3    55  C55         0.2420
   1176  N1        61.2710  -13.2380 -110.3260 N.ar   55  C55        -0.2535
   1177  C2        62.1270  -14.3560 -110.2100 C.ar   55  C55         0.3532
   1178  O2        63.1690  -14.2570 -109.5360 O.2    55  C55        -0.2443
   1179  N3        61.7850  -15.5110 -110.8320 N.ar   55  C55        -0.1739
   1180  C4        60.6390  -15.5840 -111.5270 C.ar   55  C55         0.1759
   1181  N4        60.3430  -16.7350 -112.1390 N.pl3  55  C55        -0.1070
   1182  C5        59.7440  -14.4780 -111.6300 C.ar   55  C55         0.0566
   1183  C6        60.0940  -13.3390 -111.0220 C.ar   55  C55         0.0850
   1184  OP1       56.8430   -9.1610 -112.5420 O.3    55  C55        -0.4373
   1185  OP2       56.8640  -11.6940 -112.9410 O.co2  55  C55        -0.5172
   1186  P         62.8370   -9.4390 -113.6770 P.3    56  C56         0.2141
   1187  C5'       65.3230   -9.7820 -112.9000 C.3    56  C56         0.1812
   1188  O5'       64.2070  -10.2620 -113.6550 O.3    56  C56        -0.3114
   1189  C4'       66.4190  -10.8270 -112.8230 C.3    56  C56         0.1773
   1190  O4'       65.9960  -11.9380 -111.9850 O.3    56  C56        -0.3307
   1191  C3'       66.8170  -11.5060 -114.1240 C.3    56  C56         0.1860
   1192  O3'       67.6430  -10.7050 -114.9570 O.3    56  C56        -0.3112
   1193  C2'       67.4930  -12.7780 -113.6210 C.3    56  C56         0.2309
   1194  O2'       68.8020  -12.6160 -113.1180 O.3    56  C56        -0.2156
   1195  C1'       66.5510  -13.1570 -112.4820 C.3    56  C56         0.2420
   1196  N1        65.4530  -14.0130 -112.9760 N.ar   56  C56        -0.2535
   1197  C2        65.7400  -15.3450 -113.3290 C.ar   56  C56         0.3532
   1198  O2        66.9100  -15.7640 -113.2080 O.2    56  C56        -0.2443
   1199  N3        64.7370  -16.1320 -113.7960 N.ar   56  C56        -0.1739
   1200  C4        63.4980  -15.6340 -113.9210 C.ar   56  C56         0.1759
   1201  N4        62.5390  -16.4340 -114.3960 N.pl3  56  C56        -0.1070
   1202  C5        63.1850  -14.2890 -113.5680 C.ar   56  C56         0.0566
   1203  C6        64.1790  -13.5240 -113.1030 C.ar   56  C56         0.0850
   1204  OP1       63.1350   -8.0430 -114.0780 O.3    56  C56        -0.4373
   1205  OP2       61.7990  -10.2020 -114.4250 O.co2  56  C56        -0.5172
   1206  P         67.4520  -10.7750 -116.5560 P.3    57  G57         0.2141
   1207  C5'       69.3390  -12.5920 -116.6530 C.3    57  G57         0.1812
   1208  O5'       67.9880  -12.2290 -116.9320 O.3    57  G57        -0.3114
   1209  C4'       69.6050  -14.0280 -117.0440 C.3    57  G57         0.1773
   1210  O4'       68.8340  -14.9270 -116.1960 O.3    57  G57        -0.3307
   1211  C3'       69.2110  -14.4660 -118.4460 C.3    57  G57         0.1860
   1212  O3'       70.1140  -14.0020 -119.4650 O.3    57  G57        -0.3112
   1213  C2'       69.2130  -15.9850 -118.2750 C.3    57  G57         0.2309
   1214  O2'       70.5080  -16.5410 -118.2140 O.3    57  G57        -0.2156
   1215  C1'       68.5520  -16.1270 -116.9060 C.3    57  G57         0.2408
   1216  N1        64.7300  -19.3810 -117.7100 N.ar   57  G57        -0.1709
   1217  C2        66.0860  -19.6070 -117.7070 C.ar   57  G57         0.2606
   1218  N2        66.4800  -20.8650 -117.9370 N.pl3  57  G57        -0.0859
   1219  N3        66.9930  -18.6670 -117.4900 N.ar   57  G57        -0.1918
   1220  C4        66.4310  -17.4620 -117.2720 C.ar   57  G57         0.1723
   1221  C5        65.0930  -17.1280 -117.2560 C.ar   57  G57         0.1748
   1222  C6        64.1270  -18.1480 -117.4800 C.ar   57  G57         0.3023
   1223  O6        62.8890  -18.0540 -117.4770 O.2    57  G57        -0.2633
   1224  N7        64.9270  -15.7750 -117.0020 N.ar   57  G57        -0.2173
   1225  C8        66.1430  -15.3200 -116.8590 C.ar   57  G57         0.1817
   1226  N9        67.1040  -16.2900 -117.0060 N.ar   57  G57        -0.2693
   1227  OP1       68.4160   -9.7810 -117.0940 O.2    57  G57        -0.5172
   1228  OP2       66.0020  -10.6880 -116.9300 O.co2  57  G57        -0.4373
   1229  P         69.5330  -13.4770 -120.8920 P.3    58  G58         0.2141
   1230  C5'       68.7070  -15.9240 -121.1000 C.3    58  G58         0.1812
   1231  O5'       69.3080  -14.8140 -121.7320 O.3    58  G58        -0.3114
   1232  C4'       68.5940  -17.1040 -122.0120 C.3    58  G58         0.1773
   1233  O4'       67.9420  -18.1180 -121.2050 O.3    58  G58        -0.3307
   1234  C3'       67.6910  -16.8940 -123.2220 C.3    58  G58         0.1860
   1235  O3'       68.4590  -16.6000 -124.3950 O.3    58  G58        -0.3112
   1236  C2'       66.9720  -18.2330 -123.3300 C.3    58  G58         0.2309
   1237  O2'       67.7670  -19.2280 -123.9520 O.3    58  G58        -0.2156
   1238  C1'       66.7720  -18.5700 -121.8490 C.3    58  G58         0.2408
   1239  N1        61.7460  -18.6860 -120.9430 N.ar   58  G58        -0.1709
   1240  C2        62.5530  -19.6380 -121.5160 C.ar   58  G58         0.2606
   1241  N2        61.9450  -20.7510 -121.9390 N.pl3  58  G58        -0.0859
   1242  N3        63.8640  -19.5120 -121.6650 N.ar   58  G58        -0.1918
   1243  C4        64.3240  -18.3370 -121.1830 C.ar   58  G58         0.1723
   1244  C5        63.6140  -17.3230 -120.5760 C.ar   58  G58         0.1748
   1245  C6        62.1880  -17.4690 -120.4270 C.ar   58  G58         0.3023
   1246  O6        61.3630  -16.6730 -119.9210 O.2    58  G58        -0.2633
   1247  N7        64.4620  -16.2890 -120.1990 N.ar   58  G58        -0.2173
   1248  C8        65.6440  -16.6730 -120.5970 C.ar   58  G58         0.1817
   1249  N9        65.6320  -17.8930 -121.2260 N.ar   58  G58        -0.2693
   1250  OP1       70.6580  -12.7240 -121.5050 O.2    58  G58        -0.5172
   1251  OP2       68.1960  -12.8190 -120.7400 O.co2  58  G58        -0.4373
   1252  P         67.8950  -15.5610 -125.4990 P.3    59  A59         0.2141
   1253  C5'       65.4610  -14.9310 -126.2590 C.3    59  A59         0.1812
   1254  O5'       66.3190  -15.8080 -125.5420 O.3    59  A59        -0.3114
   1255  C4'       64.6230  -15.7090 -127.2520 C.3    59  A59         0.1773
   1256  O4'       65.4980  -16.3620 -128.2010 O.3    59  A59        -0.3307
   1257  C3'       63.7910  -16.8560 -126.6990 C.3    59  A59         0.1860
   1258  O3'       62.5650  -16.4020 -126.1290 O.3    59  A59        -0.3112
   1259  C2'       63.5650  -17.7210 -127.9370 C.3    59  A59         0.2309
   1260  O2'       62.5380  -17.2780 -128.8020 O.3    59  A59        -0.2156
   1261  C1'       64.9070  -17.5750 -128.6390 C.3    59  A59         0.2408
   1262  N1        65.7600  -22.5930 -129.1360 N.ar   59  A59        -0.2040
   1263  C2        64.7160  -21.8150 -129.4650 C.ar   59  A59         0.2016
   1264  N3        64.5480  -20.5110 -129.2760 N.ar   59  A59        -0.2048
   1265  C4        65.6240  -19.9820 -128.6710 C.ar   59  A59         0.1692
   1266  C5        66.7650  -20.6490 -128.2680 C.ar   59  A59         0.1518
   1267  C6        66.8210  -22.0250 -128.5200 C.ar   59  A59         0.1919
   1268  N6        67.8580  -22.7980 -128.1850 N.pl3  59  A59        -0.1054
   1269  N7        67.6570  -19.7750 -127.6650 N.ar   59  A59        -0.2193
   1270  C8        67.0460  -18.6180 -127.7210 C.ar   59  A59         0.1816
   1271  N9        65.8210  -18.6690 -128.3400 N.ar   59  A59        -0.2693
   1272  OP1       68.4250  -16.0080 -126.8070 O.2    59  A59        -0.5172
   1273  OP2       68.1790  -14.1820 -125.0110 O.co2  59  A59        -0.4373
   1274  P         62.0920  -16.9730 -124.7020 P.3    60  G60         0.2141
   1275  C5'       60.6210  -18.8740 -125.7490 C.3    60  G60         0.1812
   1276  O5'       61.7680  -18.5110 -124.9820 O.3    60  G60        -0.3114
   1277  C4'       60.6820  -20.3310 -126.1520 C.3    60  G60         0.1773
   1278  O4'       61.9280  -20.5610 -126.8540 O.3    60  G60        -0.3307
   1279  C3'       60.6850  -21.3780 -125.0410 C.3    60  G60         0.1860
   1280  O3'       59.3620  -21.7210 -124.6310 O.3    60  G60        -0.3112
   1281  C2'       61.3210  -22.5650 -125.7450 C.3    60  G60         0.2309
   1282  O2'       60.3990  -23.2030 -126.6150 O.3    60  G60        -0.2156
   1283  C1'       62.4030  -21.8670 -126.5670 C.3    60  G60         0.2408
   1284  N1        66.8480  -24.1090 -125.5160 N.ar   60  G60        -0.1709
   1285  C2        65.7340  -24.6350 -126.1160 C.ar   60  G60         0.2606
   1286  N2        65.8340  -25.9150 -126.5090 N.pl3  60  G60        -0.0859
   1287  N3        64.6050  -23.9590 -126.3120 N.ar   60  G60        -0.1918
   1288  C4        64.6830  -22.7000 -125.8350 C.ar   60  G60         0.1723
   1289  C5        65.7430  -22.0870 -125.2060 C.ar   60  G60         0.1748
   1290  C6        66.9460  -22.8150 -125.0190 C.ar   60  G60         0.3023
   1291  O6        67.9970  -22.4380 -124.4980 O.2    60  G60        -0.2633
   1292  N7        65.4180  -20.7840 -124.8480 N.ar   60  G60        -0.2173
   1293  C8        64.1950  -20.6280 -125.2720 C.ar   60  G60         0.1817
   1294  N9        63.6980  -21.7420 -125.9050 N.ar   60  G60        -0.2693
   1295  OP1       60.8090  -16.2710 -124.3910 O.2    60  G60        -0.5172
   1296  OP2       63.2560  -16.8560 -123.7770 O.co2  60  G60        -0.4373
   1297  P         59.1070  -22.3260 -123.1610 P.3    61  A61         0.2141
   1298  C5'       59.2460  -24.8740 -123.7720 C.3    61  A61         0.1812
   1299  O5'       59.8580  -23.7340 -123.1730 O.3    61  A61        -0.3114
   1300  C4'       60.1770  -26.0590 -123.7220 C.3    61  A61         0.1773
   1301  O4'       61.3950  -25.7040 -124.4210 O.3    61  A61        -0.3307
   1302  C3'       60.6550  -26.5010 -122.3450 C.3    61  A61         0.1860
   1303  O3'       59.7570  -27.4200 -121.7380 O.3    61  A61        -0.3112
   1304  C2'       61.9670  -27.1930 -122.6810 C.3    61  A61         0.2309
   1305  O2'       61.7900  -28.4850 -123.2340 O.3    61  A61        -0.2156
   1306  C1'       62.5150  -26.2500 -123.7440 C.3    61  A61         0.2408
   1307  N1        67.0580  -24.5160 -122.1020 N.ar   61  A61        -0.2040
   1308  C2        66.6850  -25.6740 -122.6540 C.ar   61  A61         0.2016
   1309  N3        65.4780  -26.0670 -123.0600 N.ar   61  A61        -0.2048
   1310  C4        64.5690  -25.1070 -122.8390 C.ar   61  A61         0.1692
   1311  C5        64.7950  -23.8690 -122.2780 C.ar   61  A61         0.1518
   1312  C6        66.1180  -23.5700 -121.9030 C.ar   61  A61         0.1919
   1313  N6        66.4900  -22.4040 -121.3780 N.pl3  61  A61        -0.1054
   1314  N7        63.6150  -23.1400 -122.2120 N.ar   61  A61        -0.2193
   1315  C8        62.7220  -23.9390 -122.7310 C.ar   61  A61         0.1816
   1316  N9        63.2320  -25.1450 -123.1320 N.ar   61  A61        -0.2693
   1317  OP1       57.6380  -22.5490 -123.0930 O.2    61  A61        -0.5172
   1318  OP2       59.7630  -21.4510 -122.1660 O.co2  61  A61        -0.4373
   1319  P         59.2340  -27.1550 -120.2400 P.3    62  C62         0.2141
   1320  C5'       61.4520  -28.0530 -119.1280 C.3    62  C62         0.1812
   1321  O5'       60.5440  -26.9730 -119.3430 O.3    62  C62        -0.3114
   1322  C4'       62.8420  -27.5230 -118.8500 C.3    62  C62         0.1773
   1323  O4'       63.0590  -26.4010 -119.7540 O.3    62  C62        -0.3307
   1324  C3'       63.1290  -26.9130 -117.4800 C.3    62  C62         0.1860
   1325  O3'       63.4770  -27.8870 -116.4990 O.3    62  C62        -0.3112
   1326  C2'       64.3290  -26.0280 -117.7960 C.3    62  C62         0.2309
   1327  O2'       65.5270  -26.7630 -117.9970 O.3    62  C62        -0.2156
   1328  C1'       63.8900  -25.4260 -119.1290 C.3    62  C62         0.2420
   1329  N1        63.1320  -24.1600 -118.9740 N.ar   62  C62        -0.2535
   1330  C2        63.8370  -22.9900 -118.6350 C.ar   62  C62         0.3532
   1331  O2        65.0660  -23.0550 -118.4790 O.2    62  C62        -0.2443
   1332  N3        63.1580  -21.8260 -118.4830 N.ar   62  C62        -0.1739
   1333  C4        61.8290  -21.8020 -118.6480 C.ar   62  C62         0.1759
   1334  N4        61.1960  -20.6430 -118.4660 N.pl3  62  C62        -0.1070
   1335  C5        61.0880  -22.9730 -118.9990 C.ar   62  C62         0.0566
   1336  C6        61.7710  -24.1180 -119.1500 C.ar   62  C62         0.0850
   1337  OP1       58.5400  -28.4160 -119.8710 O.3    62  C62        -0.4373
   1338  OP2       58.4870  -25.8680 -120.2340 O.co2  62  C62        -0.5172
   1339  P         63.3650  -27.5290 -114.9270 P.3    63  G63         0.2141
   1340  C5'       65.9430  -27.0870 -114.7010 C.3    63  G63         0.1812
   1341  O5'       64.6110  -26.5830 -114.6130 O.3    63  G63        -0.3114
   1342  C4'       66.9500  -25.9790 -114.4870 C.3    63  G63         0.1773
   1343  O4'       66.7570  -24.9450 -115.4860 O.3    63  G63        -0.3307
   1344  C3'       66.8380  -25.2340 -113.1700 C.3    63  G63         0.1860
   1345  O3'       67.5070  -25.9280 -112.1340 O.3    63  G63        -0.3112
   1346  C2'       67.5070  -23.9010 -113.4860 C.3    63  G63         0.2309
   1347  O2'       68.9190  -23.9340 -113.4550 O.3    63  G63        -0.2156
   1348  C1'       67.0310  -23.6690 -114.9170 C.3    63  G63         0.2408
   1349  N1        65.0260  -19.0670 -114.1890 N.ar   63  G63        -0.1709
   1350  C2        66.3400  -19.4730 -114.1070 C.ar   63  G63         0.2606
   1351  N2        67.2340  -18.5230 -113.7820 N.pl3  63  G63        -0.0859
   1352  N3        66.7460  -20.7180 -114.3300 N.ar   63  G63        -0.1918
   1353  C4        65.7190  -21.5320 -114.6640 C.ar   63  G63         0.1723
   1354  C5        64.3810  -21.2260 -114.7870 C.ar   63  G63         0.1748
   1355  C6        63.9510  -19.8940 -114.5250 C.ar   63  G63         0.3023
   1356  O6        62.7940  -19.4330 -114.5580 O.2    63  G63        -0.2633
   1357  N7        63.6520  -22.3470 -115.1620 N.ar   63  G63        -0.2173
   1358  C8        64.5410  -23.2960 -115.2440 C.ar   63  G63         0.1817
   1359  N9        65.8130  -22.8700 -114.9460 N.ar   63  G63        -0.2693
   1360  OP1       63.6100  -28.8100 -114.2240 O.3    63  G63        -0.4373
   1361  OP2       62.1030  -26.7810 -114.6870 O.co2  63  G63        -0.5172
   1362  P         67.0610  -25.6900 -110.6150 P.3    64  G64         0.2141
   1363  C5'       68.9580  -23.9390 -110.1810 C.3    64  G64         0.1812
   1364  O5'       67.5630  -24.2100 -110.3020 O.3    64  G64        -0.3114
   1365  C4'       69.1870  -22.4800 -109.8880 C.3    64  G64         0.1773
   1366  O4'       68.6650  -21.6770 -110.9810 O.3    64  G64        -0.3307
   1367  C3'       68.4550  -21.9380 -108.6760 C.3    64  G64         0.1860
   1368  O3'       69.1470  -22.2490 -107.4760 O.3    64  G64        -0.3112
   1369  C2'       68.4140  -20.4450 -108.9770 C.3    64  G64         0.2309
   1370  O2'       69.6490  -19.7840 -108.7810 O.3    64  G64        -0.2156
   1371  C1'       68.1080  -20.4700 -110.4700 C.3    64  G64         0.2408
   1372  N1        63.8410  -17.7230 -110.7540 N.ar   64  G64        -0.1709
   1373  C2        65.1130  -17.3300 -110.3860 C.ar   64  G64         0.2606
   1374  N2        65.2700  -16.0320 -110.0570 N.pl3  64  G64        -0.0859
   1375  N3        66.1560  -18.1470 -110.3400 N.ar   64  G64        -0.1918
   1376  C4        65.8200  -19.4060 -110.6810 C.ar   64  G64         0.1723
   1377  C5        64.5840  -19.9010 -111.0500 C.ar   64  G64         0.1748
   1378  C6        63.4770  -19.0210 -111.1110 C.ar   64  G64         0.3023
   1379  O6        62.3010  -19.2780 -111.4340 O.2    64  G64        -0.2633
   1380  N7        64.6580  -21.2630 -111.3090 N.ar   64  G64        -0.2173
   1381  C8        65.9130  -21.5640 -111.1070 C.ar   64  G64         0.1817
   1382  N9        66.6750  -20.4810 -110.7360 N.ar   64  G64        -0.2693
   1383  OP1       67.8920  -26.6130 -109.7970 O.3    64  G64        -0.4373
   1384  OP2       65.5710  -25.7710 -110.5570 O.co2  64  G64        -0.5172
   1385  P         68.3140  -22.4760 -106.1190 P.3    65  U65         0.2141
   1386  C5'       68.8710  -20.0490 -105.3190 C.3    65  U65         0.1812
   1387  O5'       67.8900  -20.9950 -105.7120 O.3    65  U65        -0.3114
   1388  C4'       68.2250  -18.7160 -105.0670 C.3    65  U65         0.1773
   1389  O4'       67.6510  -18.2300 -106.3030 O.3    65  U65        -0.3307
   1390  C3'       67.0400  -18.7250 -104.1200 C.3    65  U65         0.1860
   1391  O3'       67.4280  -18.7100 -102.7560 O.3    65  U65        -0.3112
   1392  C2'       66.3060  -17.4530 -104.5140 C.3    65  U65         0.2309
   1393  O2'       66.8700  -16.2850 -103.9540 O.3    65  U65        -0.2156
   1394  C1'       66.4880  -17.4730 -106.0300 C.3    65  U65         0.2420
   1395  N1        65.3590  -18.1390 -106.6790 N.ar   65  U65        -0.2534
   1396  C2        64.2380  -17.3820 -106.9590 C.ar   65  U65         0.3546
   1397  O2        64.1630  -16.1790 -106.7250 O.2    65  U65        -0.2443
   1398  N3        63.2040  -18.0780 -107.5260 N.ar   65  U65        -0.1530
   1399  C4        63.1840  -19.4180 -107.8400 C.ar   65  U65         0.2846
   1400  O4        62.1510  -19.9170 -108.2950 O.2    65  U65        -0.2650
   1401  C5        64.3930  -20.1190 -107.5380 C.ar   65  U65         0.0814
   1402  C6        65.4100  -19.4730 -106.9840 C.ar   65  U65         0.0870
   1403  OP1       69.3020  -22.9910 -105.1260 O.3    65  U65        -0.4373
   1404  OP2       67.0710  -23.2650 -106.4180 O.co2  65  U65        -0.5172
   1405  P         66.4720  -19.3980 -101.6710 P.3    66  G66         0.2141
   1406  C5'       65.1920  -17.1710 -101.1530 C.3    66  G66         0.1812
   1407  O5'       65.1590  -18.4850 -101.6880 O.3    66  G66        -0.3114
   1408  C4'       63.9300  -16.4160 -101.4980 C.3    66  G66         0.1773
   1409  O4'       63.7090  -16.4910 -102.9300 O.3    66  G66        -0.3307
   1410  C3'       62.6000  -16.9130 -100.9580 C.3    66  G66         0.1860
   1411  O3'       62.3720  -16.6180  -99.5850 O.3    66  G66        -0.3112
   1412  C2'       61.6220  -16.1680 -101.8550 C.3    66  G66         0.2309
   1413  O2'       61.4250  -14.8140 -101.5030 O.3    66  G66        -0.2156
   1414  C1'       62.3290  -16.2820 -103.2020 C.3    66  G66         0.2408
   1415  N1        58.3830  -18.1680 -105.7530 N.ar   66  G66        -0.1709
   1416  C2        58.5360  -16.9380 -105.1450 C.ar   66  G66         0.2606
   1417  N2        57.4900  -16.1010 -105.2250 N.pl3  66  G66        -0.0859
   1418  N3        59.6350  -16.5580 -104.5080 N.ar   66  G66        -0.1918
   1419  C4        60.5840  -17.5170 -104.5240 C.ar   66  G66         0.1723
   1420  C5        60.5340  -18.7760 -105.0940 C.ar   66  G66         0.1748
   1421  C6        59.3510  -19.1730 -105.7820 C.ar   66  G66         0.3023
   1422  O6        59.1190  -20.2470 -106.3650 O.2    66  G66        -0.2633
   1423  N7        61.7210  -19.4650 -104.8740 N.ar   66  G66        -0.2173
   1424  C8        62.4570  -18.6260 -104.1920 C.ar   66  G66         0.1817
   1425  N9        61.8210  -17.4280 -103.9440 N.ar   66  G66        -0.2693
   1426  OP1       67.1920  -19.2630 -100.3720 O.3    66  G66        -0.4373
   1427  OP2       66.0980  -20.7520 -102.1770 O.co2  66  G66        -0.5172
   1428  P         61.6260  -17.7120  -98.6600 P.3    67  G67         0.2141
   1429  C5'       59.4140  -16.3790  -99.1290 C.3    67  G67         0.1812
   1430  O5'       60.1050  -17.6200  -99.1340 O.3    67  G67        -0.3114
   1431  C4'       58.1540  -16.4760  -99.9560 C.3    67  G67         0.1773
   1432  O4'       58.5040  -16.8340 -101.3200 O.3    67  G67        -0.3307
   1433  C3'       57.1660  -17.5580  -99.5730 C.3    67  G67         0.1860
   1434  O3'       56.3610  -17.1620  -98.4750 O.3    67  G67        -0.3112
   1435  C2'       56.3580  -17.6840 -100.8560 C.3    67  G67         0.2309
   1436  O2'       55.4640  -16.6020 -101.0590 O.3    67  G67        -0.2156
   1437  C1'       57.4740  -17.6250 -101.8950 C.3    67  G67         0.2408
   1438  N1        56.7220  -21.9190 -104.5070 N.ar   67  G67        -0.1709
   1439  C2        55.8790  -20.8530 -104.3050 C.ar   67  G67         0.2606
   1440  N2        54.6720  -20.9400 -104.8760 N.pl3  67  G67        -0.0859
   1441  N3        56.1920  -19.7830 -103.5890 N.ar   67  G67        -0.1918
   1442  C4        57.4230  -19.8790 -103.0480 C.ar   67  G67         0.1723
   1443  C5        58.3400  -20.9090 -103.1630 C.ar   67  G67         0.1748
   1444  C6        58.0070  -22.0360 -103.9790 C.ar   67  G67         0.3023
   1445  O6        58.7080  -23.0270 -104.2630 O.2    67  G67        -0.2633
   1446  N7        59.4870  -20.6350 -102.4260 N.ar   67  G67        -0.2173
   1447  C8        59.2590  -19.4560 -101.9050 C.ar   67  G67         0.1817
   1448  N9        58.0300  -18.9320 -102.2570 N.ar   67  G67        -0.2693
   1449  OP1       61.7080  -17.2600  -97.2470 O.3    67  G67        -0.4373
   1450  OP2       62.1490  -19.0640  -99.0200 O.co2  67  G67        -0.5172
   1451  P         55.7550  -18.2790  -97.4850 P.3    68  A68         0.2141
   1452  C5'       53.4920  -18.0830  -98.7860 C.3    68  A68         0.1812
   1453  O5'       54.5780  -18.9140  -98.3600 O.3    68  A68        -0.3114
   1454  C4'       52.5210  -18.8510  -99.6600 C.3    68  A68         0.1773
   1455  O4'       53.1510  -19.2040 -100.9190 O.3    68  A68        -0.3307
   1456  C3'       51.9960  -20.1680  -99.1170 C.3    68  A68         0.1860
   1457  O3'       50.8830  -19.9760  -98.2660 O.3    68  A68        -0.3112
   1458  C2'       51.5760  -20.8870 -100.3870 C.3    68  A68         0.2309
   1459  O2'       50.3190  -20.4280 -100.8510 O.3    68  A68        -0.2156
   1460  C1'       52.7100  -20.4870 -101.3330 C.3    68  A68         0.2408
   1461  N1        54.7410  -24.8650 -103.0620 N.ar   68  A68        -0.2040
   1462  C2        53.5350  -24.3080 -103.2180 C.ar   68  A68         0.2016
   1463  N3        53.0600  -23.1800 -102.7110 N.ar   68  A68        -0.2048
   1464  C4        53.9860  -22.5840 -101.9470 C.ar   68  A68         0.1692
   1465  C5        55.2620  -23.0400 -101.6770 C.ar   68  A68         0.1518
   1466  C6        55.6460  -24.2410 -102.2820 C.ar   68  A68         0.1919
   1467  N6        56.8510  -24.7930 -102.1380 N.pl3  68  A68        -0.1054
   1468  N7        55.9260  -22.1750 -100.8200 N.ar   68  A68        -0.2193
   1469  C8        55.0580  -21.2170 -100.6100 C.ar   68  A68         0.1816
   1470  N9        53.8660  -21.3890 -101.2850 N.ar   68  A68        -0.2693
   1471  OP1       55.1000  -17.5370  -96.3740 O.3    68  A68        -0.4373
   1472  OP2       56.8290  -19.2710  -97.1750 O.co2  68  A68        -0.5172
   1473  P         50.7880  -20.8150  -96.9070 P.3    69  U69         0.2141
   1474  C5'       49.1030  -22.4400  -98.0270 C.3    69  U69         0.1812
   1475  O5'       50.3780  -22.2640  -97.4180 O.3    69  U69        -0.3114
   1476  C4'       48.9520  -23.8270  -98.5830 C.3    69  U69         0.1773
   1477  O4'       49.8180  -24.0120  -99.7320 O.3    69  U69        -0.3307
   1478  C3'       49.3290  -24.9750  -97.6730 C.3    69  U69         0.1860
   1479  O3'       48.2930  -25.2240  -96.7470 O.3    69  U69        -0.3112
   1480  C2'       49.4670  -26.0860  -98.6940 C.3    69  U69         0.2309
   1481  O2'       48.1980  -26.4160  -99.2390 O.3    69  U69        -0.2156
   1482  C1'       50.2540  -25.3570  -99.7820 C.3    69  U69         0.2420
   1483  N1        51.7120  -25.3710  -99.5880 N.ar   69  U69        -0.2534
   1484  C2        52.4120  -26.5110  -99.9550 C.ar   69  U69         0.3546
   1485  O2        51.8780  -27.5110 -100.3820 O.2    69  U69        -0.2443
   1486  N3        53.7670  -26.4390  -99.7940 N.ar   69  U69        -0.1530
   1487  C4        54.4730  -25.3900  -99.3080 C.ar   69  U69         0.2846
   1488  O4        55.6890  -25.4590  -99.2810 O.2    69  U69        -0.2650
   1489  C5        53.6890  -24.2630  -98.9260 C.ar   69  U69         0.0814
   1490  C6        52.3690  -24.2900  -99.0770 C.ar   69  U69         0.0870
   1491  OP1       49.6290  -20.2630  -96.1570 O.3    69  U69        -0.4373
   1492  OP2       52.1390  -20.8400  -96.2810 O.co2  69  U69        -0.5172
   1493  P         48.6550  -25.7330  -95.2700 P.3    70  C70         0.2141
   1494  C5'       47.8330  -28.1350  -95.9030 C.3    70  C70         0.1812
   1495  O5'       48.8920  -27.2890  -95.4840 O.3    70  C70        -0.3114
   1496  C4'       48.3730  -29.4920  -96.2760 C.3    70  C70         0.1773
   1497  O4'       49.2750  -29.3620  -97.4000 O.3    70  C70        -0.3307
   1498  C3'       49.2030  -30.1850  -95.2130 C.3    70  C70         0.1860
   1499  O3'       48.3330  -30.8780  -94.3370 O.3    70  C70        -0.3112
   1500  C2'       50.0360  -31.1470  -96.0470 C.3    70  C70         0.2309
   1501  O2'       49.3350  -32.2940  -96.4660 O.3    70  C70        -0.2156
   1502  C1'       50.3120  -30.3080  -97.2870 C.3    70  C70         0.2420
   1503  N1        51.5780  -29.5950  -97.1910 N.ar   70  C70        -0.2535
   1504  C2        52.7530  -30.2850  -97.5000 C.ar   70  C70         0.3532
   1505  O2        52.6760  -31.4780  -97.8270 O.2    70  C70        -0.2443
   1506  N3        53.9360  -29.6400  -97.4400 N.ar   70  C70        -0.1739
   1507  C4        53.9670  -28.3570  -97.0980 C.ar   70  C70         0.1759
   1508  N4        55.1350  -27.7560  -97.0880 N.pl3  70  C70        -0.1070
   1509  C5        52.7870  -27.6330  -96.7620 C.ar   70  C70         0.0566
   1510  C6        51.6240  -28.2840  -96.8170 C.ar   70  C70         0.0850
   1511  OP1       47.4060  -25.4840  -94.5120 O.3    70  C70        -0.4373
   1512  OP2       49.9420  -25.1700  -94.7650 O.co2  70  C70        -0.5172
   1513  P         48.7330  -31.0820  -92.7980 P.3    71  C71         0.2141
   1514  C5'       49.9350  -33.3800  -93.2070 C.3    71  C71         0.1812
   1515  O5'       50.0340  -32.0050  -92.8630 O.3    71  C71        -0.3114
   1516  C4'       51.3050  -33.9760  -93.4130 C.3    71  C71         0.1773
   1517  O4'       51.9940  -33.2240  -94.4330 O.3    71  C71        -0.3307
   1518  C3'       52.2910  -33.9430  -92.2570 C.3    71  C71         0.1860
   1519  O3'       52.0760  -35.0230  -91.3590 O.3    71  C71        -0.3112
   1520  C2'       53.6130  -34.1690  -92.9810 C.3    71  C71         0.2309
   1521  O2'       53.8440  -35.5050  -93.3600 O.3    71  C71        -0.2156
   1522  C1'       53.3950  -33.3780  -94.2610 C.3    71  C71         0.2420
   1523  N1        54.0230  -32.0590  -94.1900 N.ar   71  C71        -0.2535
   1524  C2        55.3880  -31.9510  -94.4720 C.ar   71  C71         0.3532
   1525  O2        56.0240  -32.9690  -94.7510 O.2    71  C71        -0.2443
   1526  N3        55.9730  -30.7410  -94.4340 N.ar   71  C71        -0.1739
   1527  C4        55.2460  -29.6650  -94.1250 C.ar   71  C71         0.1759
   1528  N4        55.8500  -28.4830  -94.1100 N.pl3  71  C71        -0.1070
   1529  C5        53.8610  -29.7520  -93.8180 C.ar   71  C71         0.0566
   1530  C6        53.2960  -30.9540  -93.8600 C.ar   71  C71         0.0850
   1531  OP1       47.5870  -31.8550  -92.2400 O.2    71  C71        -0.5172
   1532  OP2       49.1000  -29.7850  -92.1910 O.co2  71  C71        -0.4373
   1533  P         51.5790  -34.7390  -89.8540 P.3    72  G72         0.2141
   1534  C5'       49.2160  -33.9580  -88.9910 C.3    72  G72         0.1812
   1535  O5'       49.9920  -34.6140  -89.9840 O.3    72  G72        -0.3114
   1536  C4'       47.8800  -33.5540  -89.5550 C.3    72  G72         0.1773
   1537  O4'       47.1470  -34.7220  -90.0100 O.3    72  G72        -0.3307
   1538  C3'       46.9370  -32.9250  -88.5520 C.3    72  G72         0.1860
   1539  O3'       47.2460  -31.5650  -88.3470 O.3    72  G72        -0.3112
   1540  C2'       45.5920  -33.1240  -89.2270 C.3    72  G72         0.2309
   1541  O2'       45.3460  -32.2340  -90.3000 O.3    72  G72        -0.2156
   1542  C1'       45.7550  -34.5450  -89.7610 C.3    72  G72         0.2408
   1543  N1        41.9220  -36.1930  -86.8930 N.ar   72  G72        -0.1709
   1544  C2        41.9300  -35.2100  -87.8390 C.ar   72  G72         0.2606
   1545  N2        40.7630  -34.5850  -88.0530 N.pl3  72  G72        -0.0859
   1546  N3        42.9970  -34.8730  -88.5360 N.ar   72  G72        -0.1918
   1547  C4        44.0640  -35.6270  -88.2150 C.ar   72  G72         0.1723
   1548  C5        44.1480  -36.6460  -87.2940 C.ar   72  G72         0.1748
   1549  C6        43.0130  -36.9860  -86.5560 C.ar   72  G72         0.3023
   1550  O6        42.8980  -37.8670  -85.6980 O.2    72  G72        -0.2633
   1551  N7        45.4240  -37.1860  -87.2650 N.ar   72  G72        -0.2173
   1552  C8        46.0880  -36.4900  -88.1490 C.ar   72  G72         0.1817
   1553  N9        45.3240  -35.5190  -88.7580 N.ar   72  G72        -0.2693
   1554  OP1       52.0930  -33.4230  -89.4000 O.2    72  G72        -0.5172
   1555  OP2       51.9300  -35.9720  -89.1030 O.co2  72  G72        -0.4373
   1556  P         47.2390  -30.9760  -86.8600 P.3    73  G73         0.2141
   1557  C5'       44.8190  -30.1250  -87.3700 C.3    73  G73         0.1812
   1558  O5'       45.6870  -30.8490  -86.5160 O.3    73  G73        -0.3114
   1559  C4'       43.4100  -30.1980  -86.8570 C.3    73  G73         0.1773
   1560  O4'       42.9020  -31.5420  -87.0140 O.3    73  G73        -0.3307
   1561  C3'       43.2550  -29.9360  -85.3790 C.3    73  G73         0.1860
   1562  O3'       43.2740  -28.5500  -85.0970 O.3    73  G73        -0.3112
   1563  C2'       41.9220  -30.6090  -85.0670 C.3    73  G73         0.2309
   1564  O2'       40.7690  -29.8560  -85.3890 O.3    73  G73        -0.2156
   1565  C1'       42.0080  -31.8470  -85.9550 C.3    73  G73         0.2408
   1566  N1        41.0170  -35.4170  -82.4960 N.ar   73  G73        -0.1709
   1567  C2        40.2110  -34.4080  -82.9730 C.ar   73  G73         0.2606
   1568  N2        38.9850  -34.3350  -82.4430 N.pl3  73  G73        -0.0859
   1569  N3        40.5820  -33.5350  -83.8960 N.ar   73  G73        -0.1918
   1570  C4        41.8490  -33.7460  -84.3040 C.ar   73  G73         0.1723
   1571  C5        42.7400  -34.7170  -83.8900 C.ar   73  G73         0.1748
   1572  C6        42.3250  -35.6590  -82.9070 C.ar   73  G73         0.3023
   1573  O6        42.9640  -36.6090  -82.4210 O.2    73  G73        -0.2633
   1574  N7        43.9510  -34.5910  -84.5580 N.ar   73  G73        -0.2173
   1575  C8        43.7750  -33.5660  -85.3480 C.ar   73  G73         0.1817
   1576  N9        42.5250  -33.0050  -85.2380 N.ar   73  G73        -0.2693
   1577  OP1       47.8380  -29.6180  -86.9540 O.2    73  G73        -0.5172
   1578  OP2       47.8480  -31.9780  -85.9450 O.co2  73  G73        -0.4373
   1579  P         43.8460  -28.0450  -83.6850 P.3    74  C74         0.2141
   1580  C5'       41.3840  -27.8600  -82.8420 C.3    74  C74         0.1812
   1581  O5'       42.6770  -28.4210  -82.6730 O.3    74  C74        -0.3114
   1582  C4'       40.3990  -28.5120  -81.9050 C.3    74  C74         0.1773
   1583  O4'       40.2570  -29.9100  -82.2600 O.3    74  C74        -0.3307
   1584  C3'       40.7970  -28.5580  -80.4440 C.3    74  C74         0.1860
   1585  O3'       40.5160  -27.3300  -79.8020 O.3    74  C74        -0.3112
   1586  C2'       39.9410  -29.7040  -79.9260 C.3    74  C74         0.2309
   1587  O2'       38.5890  -29.3610  -79.7550 O.3    74  C74        -0.2156
   1588  C1'       40.0430  -30.6810  -81.0900 C.3    74  C74         0.2420
   1589  N1        41.1780  -31.5920  -80.9250 N.ar   74  C74        -0.2535
   1590  C2        40.9830  -32.7480  -80.1840 C.ar   74  C74         0.3532
   1591  O2        39.8490  -32.9690  -79.7150 O.2    74  C74        -0.2443
   1592  N3        42.0270  -33.5970  -79.9980 N.ar   74  C74        -0.1739
   1593  C4        43.2190  -33.3170  -80.5350 C.ar   74  C74         0.1759
   1594  N4        44.2130  -34.1690  -80.3280 N.pl3  74  C74        -0.1070
   1595  C5        43.4380  -32.1440  -81.3060 C.ar   74  C74         0.0566
   1596  C6        42.4030  -31.3150  -81.4740 C.ar   74  C74         0.0850
   1597  OP1       43.9310  -26.5710  -83.7870 O.2    74  C74        -0.5172
   1598  OP2       45.0590  -28.8260  -83.3180 O.co2  74  C74        -0.4373
   1599  P         41.3780  -26.8940  -78.5250 P.3    75  C75         0.2141
   1600  C5'       39.5100  -27.8810  -76.9830 C.3    75  C75         0.1812
   1601  O5'       40.8760  -27.8950  -77.3910 O.3    75  C75        -0.3114
   1602  C4'       39.2550  -28.9120  -75.9070 C.3    75  C75         0.1773
   1603  O4'       39.3440  -30.2460  -76.4690 O.3    75  C75        -0.3307
   1604  C3'       40.2220  -28.9580  -74.7350 C.3    75  C75         0.1860
   1605  O3'       39.9360  -27.9600  -73.7670 O.3    75  C75        -0.3112
   1606  C2'       39.9610  -30.3530  -74.1930 C.3    75  C75         0.2309
   1607  O2'       38.7420  -30.4290  -73.4780 O.3    75  C75        -0.2156
   1608  C1'       39.8470  -31.1450  -75.4940 C.3    75  C75         0.2420
   1609  N1        41.1470  -31.6660  -75.9570 N.ar   75  C75        -0.2535
   1610  C2        41.6650  -32.7920  -75.3380 C.ar   75  C75         0.3532
   1611  O2        41.0120  -33.3200  -74.4310 O.2    75  C75        -0.2443
   1612  N3        42.8640  -33.2820  -75.7360 N.ar   75  C75        -0.1739
   1613  C4        43.5320  -32.6830  -76.7170 C.ar   75  C75         0.1759
   1614  N4        44.7050  -33.1930  -77.0720 N.pl3  75  C75        -0.1070
   1615  C5        43.0240  -31.5320  -77.3760 C.ar   75  C75         0.0566
   1616  C6        41.8390  -31.0590  -76.9680 C.ar   75  C75         0.0850
   1617  OP1       40.8540  -25.5420  -78.2220 O.3    75  C75        -0.4373
   1618  OP2       42.8400  -27.0850  -78.7630 O.co2  75  C75        -0.5172
   1619  P         41.1430  -27.2650  -72.9610 P.3    76  C76         0.2141
   1620  C5'       40.5920  -28.8750  -70.9720 C.3    76  C76         0.1812
   1621  O5'       41.5510  -28.3860  -71.9010 O.3    76  C76        -0.3114
   1622  C4'       41.1610  -30.0180  -70.1690 C.3    76  C76         0.1773
   1623  O4'       41.2910  -31.2000  -71.0030 O.3    76  C76        -0.3307
   1624  C3'       42.5610  -29.8500  -69.6010 C.3    76  C76         0.1860
   1625  O3'       42.6140  -29.0470  -68.4340 O.3    76  C76        -0.3112
   1626  C2'       42.9140  -31.2920  -69.2800 C.3    76  C76         0.2309
   1627  O2'       42.2780  -31.7690  -68.1120 O.3    76  C76        -0.2156
   1628  C1'       42.3590  -32.0010  -70.5140 C.3    76  C76         0.2420
   1629  N1        43.4060  -32.0830  -71.5380 N.ar   76  C76        -0.2535
   1630  C2        44.3500  -33.1090  -71.4390 C.ar   76  C76         0.3532
   1631  O2        44.2380  -33.9460  -70.5220 O.2    76  C76        -0.2443
   1632  N3        45.3560  -33.1720  -72.3420 N.ar   76  C76        -0.1739
   1633  C4        45.4240  -32.2740  -73.3250 C.ar   76  C76         0.1759
   1634  N4        46.4240  -32.3780  -74.1900 N.pl3  76  C76        -0.1070
   1635  C5        44.4630  -31.2290  -73.4620 C.ar   76  C76         0.0566
   1636  C6        43.4810  -31.1710  -72.5540 C.ar   76  C76         0.0850
   1637  OP1       40.4880  -26.1210  -72.2670 O.3    76  C76        -0.4373
   1638  OP2       42.3300  -27.0130  -73.8360 O.co2  76  C76        -0.5172
   1639  P         43.9220  -28.1570  -68.1470 P.3    77  G77         0.2141
   1640  C5'       44.9870  -30.1710  -66.8230 C.3    77  G77         0.1812
   1641  O5'       45.0970  -29.2090  -67.8720 O.3    77  G77        -0.3114
   1642  C4'       46.1820  -31.0960  -66.7990 C.3    77  G77         0.1773
   1643  O4'       46.1750  -31.9620  -67.9580 O.3    77  G77        -0.3307
   1644  C3'       47.5640  -30.4720  -66.8470 C.3    77  G77         0.1860
   1645  O3'       47.9480  -29.9640  -65.5760 O.3    77  G77        -0.3112
   1646  C2'       48.4230  -31.6700  -67.2510 C.3    77  G77         0.2309
   1647  O2'       48.7090  -32.5750  -66.2030 O.3    77  G77        -0.2156
   1648  C1'       47.5080  -32.3690  -68.2520 C.3    77  G77         0.2408
   1649  N1        50.7650  -32.8310  -72.1280 N.ar   77  G77        -0.1709
   1650  C2        50.7520  -33.4900  -70.9290 C.ar   77  G77         0.2606
   1651  N2        51.7380  -34.3810  -70.7470 N.pl3  77  G77        -0.0859
   1652  N3        49.8380  -33.2970  -69.9820 N.ar   77  G77        -0.1918
   1653  C4        48.9120  -32.3930  -70.3600 C.ar   77  G77         0.1723
   1654  C5        48.8290  -31.6960  -71.5420 C.ar   77  G77         0.1748
   1655  C6        49.8230  -31.8930  -72.5290 C.ar   77  G77         0.3023
   1656  O6        49.9250  -31.3450  -73.6340 O.2    77  G77        -0.2633
   1657  N7        47.7110  -30.8760  -71.5520 N.ar   77  G77        -0.2173
   1658  C8        47.1530  -31.0730  -70.3920 C.ar   77  G77         0.1817
   1659  N9        47.8360  -31.9690  -69.6130 N.ar   77  G77        -0.2693
   1660  OP1       43.5850  -27.4390  -66.9010 O.3    77  G77        -0.4373
   1661  OP2       44.2900  -27.3900  -69.3590 O.co2  77  G77        -0.5172
   1662  P         48.6080  -28.4950  -65.4570 P.3    78  A78         0.2141
   1663  C5'       50.7690  -27.4540  -66.4760 C.3    78  A78         0.1812
   1664  O5'       49.9630  -28.5970  -66.2810 O.3    78  A78        -0.3114
   1665  C4'       52.2230  -27.8250  -66.3660 C.3    78  A78         0.1773
   1666  O4'       52.5140  -28.2880  -65.0260 O.3    78  A78        -0.3307
   1667  C3'       52.6450  -28.9930  -67.2270 C.3    78  A78         0.1860
   1668  O3'       52.8130  -28.5770  -68.5680 O.3    78  A78        -0.3112
   1669  C2'       53.9170  -29.4840  -66.5360 C.3    78  A78         0.2309
   1670  O2'       55.1040  -28.7860  -66.8630 O.3    78  A78        -0.2156
   1671  C1'       53.5520  -29.2560  -65.0710 C.3    78  A78         0.2408
   1672  N1        54.8810  -33.7440  -63.0020 N.ar   78  A78        -0.2040
   1673  C2        55.5720  -32.8330  -63.7070 C.ar   78  A78         0.2016
   1674  N3        55.1490  -31.6960  -64.2630 N.ar   78  A78        -0.2048
   1675  C4        53.8400  -31.5210  -64.0240 C.ar   78  A78         0.1692
   1676  C5        52.9940  -32.3700  -63.3280 C.ar   78  A78         0.1518
   1677  C6        53.5570  -33.5360  -62.8010 C.ar   78  A78         0.1919
   1678  N6        52.8550  -34.4450  -62.1180 N.pl3  78  A78        -0.1054
   1679  N7        51.7070  -31.8570  -63.2860 N.ar   78  A78        -0.2193
   1680  C8        51.8020  -30.7240  -63.9400 C.ar   78  A78         0.1816
   1681  N9        53.0730  -30.4490  -64.3880 N.ar   78  A78        -0.2693
   1682  OP1       48.9670  -28.3280  -64.0170 O.3    78  A78        -0.4373
   1683  OP2       47.7170  -27.4960  -66.1190 O.co2  78  A78        -0.5172
   1684  P         52.3570  -29.5530  -69.7560 P.3    79  G79         0.2141
   1685  C5'       54.0650  -31.1020  -70.9580 C.3    79  G79         0.1812
   1686  O5'       53.7410  -29.8110  -70.4950 O.3    79  G79        -0.3114
   1687  C4'       55.2950  -31.6240  -70.2690 C.3    79  G79         0.1773
   1688  O4'       55.1310  -31.5760  -68.8290 O.3    79  G79        -0.3307
   1689  C3'       55.4810  -33.1040  -70.5230 C.3    79  G79         0.1860
   1690  O3'       55.9630  -33.3680  -71.8250 O.3    79  G79        -0.3112
   1691  C2'       56.3790  -33.5260  -69.3790 C.3    79  G79         0.2309
   1692  O2'       57.7340  -33.1810  -69.5830 O.3    79  G79        -0.2156
   1693  C1'       55.7590  -32.7170  -68.2420 C.3    79  G79         0.2408
   1694  N1        54.8930  -36.5180  -64.9790 N.ar   79  G79        -0.1709
   1695  C2        56.0530  -36.1620  -65.6090 C.ar   79  G79         0.2606
   1696  N2        57.1210  -36.8930  -65.2950 N.pl3  79  G79        -0.0859
   1697  N3        56.1560  -35.1660  -66.4810 N.ar   79  G79        -0.1918
   1698  C4        54.9710  -34.5560  -66.6880 C.ar   79  G79         0.1723
   1699  C5        53.7440  -34.8500  -66.1280 C.ar   79  G79         0.1748
   1700  C6        53.6640  -35.8970  -65.1660 C.ar   79  G79         0.3023
   1701  O6        52.6830  -36.2650  -64.5110 O.2    79  G79        -0.2633
   1702  N7        52.7550  -34.0100  -66.6310 N.ar   79  G79        -0.2173
   1703  C8        53.3950  -33.2130  -67.4440 C.ar   79  G79         0.1817
   1704  N9        54.7490  -33.4690  -67.5030 N.ar   79  G79        -0.2693
   1705  OP1       51.3930  -28.8080  -70.6260 O.2    79  G79        -0.5172
   1706  OP2       51.9480  -30.8480  -69.1620 O.co2  79  G79        -0.4373
   1707  P         55.0950  -34.3140  -72.7860 P.3    80  A80         0.2141
   1708  C5'       56.5710  -36.3850  -72.1260 C.3    80  A80         0.1812
   1709  O5'       55.2930  -35.7450  -72.1040 O.3    80  A80        -0.3114
   1710  C4'       56.5730  -37.5990  -71.2320 C.3    80  A80         0.1773
   1711  O4'       56.3050  -37.1670  -69.8780 O.3    80  A80        -0.3307
   1712  C3'       55.4920  -38.6410  -71.4800 C.3    80  A80         0.1860
   1713  O3'       55.8400  -39.5610  -72.4970 O.3    80  A80        -0.3112
   1714  C2'       55.4590  -39.3620  -70.1470 C.3    80  A80         0.2309
   1715  O2'       56.5360  -40.2670  -70.0130 O.3    80  A80        -0.2156
   1716  C1'       55.6100  -38.1890  -69.1810 C.3    80  A80         0.2408
   1717  N1        51.6670  -38.7670  -65.9790 N.ar   80  A80        -0.2040
   1718  C2        52.8220  -39.4200  -66.1260 C.ar   80  A80         0.2016
   1719  N3        53.8150  -39.2030  -66.9820 N.ar   80  A80        -0.2048
   1720  C4        53.5280  -38.1710  -67.7790 C.ar   80  A80         0.1692
   1721  C5        52.3850  -37.3990  -67.7580 C.ar   80  A80         0.1518
   1722  C6        51.4150  -37.7210  -66.7870 C.ar   80  A80         0.1919
   1723  N6        50.2720  -37.0410  -66.6150 N.pl3  80  A80        -0.1054
   1724  N7        52.4400  -36.4140  -68.7370 N.ar   80  A80        -0.2193
   1725  C8        53.6010  -36.6130  -69.3140 C.ar   80  A80         0.1816
   1726  N9        54.3080  -37.6660  -68.7820 N.ar   80  A80        -0.2693
   1727  OP1       55.7670  -34.3270  -74.1180 O.2    80  A80        -0.5172
   1728  OP2       53.6530  -33.9060  -72.6880 O.co2  80  A80        -0.4373
   1729  P         54.8000  -39.8730  -73.6800 P.3    81  G81         0.2141
   1730  C5'       52.9200  -41.0200  -72.2320 C.3    81  G81         0.1812
   1731  O5'       53.3480  -39.8960  -73.0020 O.3    81  G81        -0.3114
   1732  C4'       51.8380  -40.6200  -71.2440 C.3    81  G81         0.1773
   1733  O4'       52.0020  -39.2230  -70.8850 O.3    81  G81        -0.3307
   1734  C3'       50.3860  -40.7090  -71.6880 C.3    81  G81         0.1860
   1735  O3'       49.8910  -42.0230  -71.4790 O.3    81  G81        -0.3112
   1736  C2'       49.7060  -39.7660  -70.7060 C.3    81  G81         0.2309
   1737  O2'       49.4930  -40.3490  -69.4310 O.3    81  G81        -0.2156
   1738  C1'       50.7340  -38.6370  -70.6170 C.3    81  G81         0.2408
   1739  N1        47.6350  -34.9470  -72.1890 N.ar   81  G81        -0.1709
   1740  C2        47.5870  -35.6830  -71.0390 C.ar   81  G81         0.2606
   1741  N2        46.5500  -35.4370  -70.2210 N.pl3  81  G81        -0.0859
   1742  N3        48.4830  -36.5940  -70.7110 N.ar   81  G81        -0.1918
   1743  C4        49.4420  -36.7100  -71.6420 C.ar   81  G81         0.1723
   1744  C5        49.5810  -36.0150  -72.8180 C.ar   81  G81         0.1748
   1745  C6        48.6160  -35.0560  -73.1610 C.ar   81  G81         0.3023
   1746  O6        48.5580  -34.3600  -74.1780 O.2    81  G81        -0.2633
   1747  N7        50.7130  -36.4250  -73.5040 N.ar   81  G81        -0.2173
   1748  C8        51.2240  -37.3610  -72.7550 C.ar   81  G81         0.1817
   1749  N9        50.4860  -37.6030  -71.6210 N.ar   81  G81        -0.2693
   1750  OP1       55.1410  -41.2540  -74.0940 O.3    81  G81        -0.4373
   1751  OP2       54.8880  -38.7660  -74.6690 O.co2  81  G81        -0.5172
   1752  P         48.7090  -42.5990  -72.4040 P.3    82  G82         0.2141
   1753  C5'       46.7430  -42.2380  -70.7410 C.3    82  G82         0.1812
   1754  O5'       47.3990  -41.8380  -71.9240 O.3    82  G82        -0.3114
   1755  C4'       45.6230  -41.2940  -70.4310 C.3    82  G82         0.1773
   1756  O4'       46.1490  -39.9440  -70.4130 O.3    82  G82        -0.3307
   1757  C3'       44.5440  -41.1900  -71.4830 C.3    82  G82         0.1860
   1758  O3'       43.6710  -42.3040  -71.4600 O.3    82  G82        -0.3112
   1759  C2'       43.8940  -39.8620  -71.1180 C.3    82  G82         0.2309
   1760  O2'       43.0520  -39.8800  -69.9770 O.3    82  G82        -0.2156
   1761  C1'       45.1390  -39.0310  -70.8230 C.3    82  G82         0.2408
   1762  N1        44.0260  -35.4100  -74.1590 N.ar   82  G82        -0.1709
   1763  C2        43.3410  -35.8190  -73.0450 C.ar   82  G82         0.2606
   1764  N2        42.1820  -35.1950  -72.7990 N.pl3  82  G82        -0.0859
   1765  N3        43.7590  -36.7700  -72.2290 N.ar   82  G82        -0.1918
   1766  C4        44.9330  -37.2960  -72.6280 C.ar   82  G82         0.1723
   1767  C5        45.7020  -36.9590  -73.7190 C.ar   82  G82         0.1748
   1768  C6        45.2440  -35.9260  -74.5810 C.ar   82  G82         0.3023
   1769  O6        45.7840  -35.4700  -75.5950 O.2    82  G82        -0.2633
   1770  N7        46.8440  -37.7500  -73.7800 N.ar   82  G82        -0.2173
   1771  C8        46.7430  -38.5420  -72.7470 C.ar   82  G82         0.1817
   1772  N9        45.5990  -38.3230  -72.0130 N.ar   82  G82        -0.2693
   1773  OP1       48.5640  -44.0260  -72.0230 O.3    82  G82        -0.4373
   1774  OP2       48.9800  -42.2340  -73.8240 O.co2  82  G82        -0.5172
   1775  P         43.1490  -42.9210  -72.8500 P.3    83  G83         0.2141
   1776  C5'       40.9510  -41.6100  -72.3170 C.3    83  G83         0.1812
   1777  O5'       41.9770  -41.9170  -73.2520 O.3    83  G83        -0.3114
   1778  C4'       40.1930  -40.3750  -72.7390 C.3    83  G83         0.1773
   1779  O4'       41.1130  -39.2660  -72.8710 O.3    83  G83        -0.3307
   1780  C3'       39.5240  -40.3890  -74.0990 C.3    83  G83         0.1860
   1781  O3'       38.3020  -41.0970  -74.0710 O.3    83  G83        -0.3112
   1782  C2'       39.2920  -38.9060  -74.3350 C.3    83  G83         0.2309
   1783  O2'       38.2250  -38.3950  -73.5670 O.3    83  G83        -0.2156
   1784  C1'       40.6060  -38.3390  -73.8170 C.3    83  G83         0.2408
   1785  N1        41.8110  -35.6460  -77.8810 N.ar   83  G83        -0.1709
   1786  C2        40.6980  -35.5810  -77.0760 C.ar   83  G83         0.2606
   1787  N2        39.7810  -34.6420  -77.3810 N.pl3  83  G83        -0.0859
   1788  N3        40.4950  -36.3750  -76.0420 N.ar   83  G83        -0.1918
   1789  C4        41.5070  -37.2480  -75.8710 C.ar   83  G83         0.1723
   1790  C5        42.6560  -37.4010  -76.6140 C.ar   83  G83         0.1748
   1791  C6        42.8650  -36.5400  -77.7240 C.ar   83  G83         0.3023
   1792  O6        43.8240  -36.5020  -78.5090 O.2    83  G83        -0.2633
   1793  N7        43.4360  -38.4310  -76.1060 N.ar   83  G83        -0.2173
   1794  C8        42.7550  -38.8690  -75.0830 C.ar   83  G83         0.1817
   1795  N9        41.5860  -38.1750  -74.8800 N.ar   83  G83        -0.2693
   1796  OP1       42.5680  -44.2530  -72.5110 O.3    83  G83        -0.4373
   1797  OP2       44.2390  -42.8300  -73.8730 O.co2  83  G83        -0.5172
   1798  P         37.7980  -41.8350  -75.3980 P.3    84  C84         0.2141
   1799  C5'       36.1680  -39.8400  -75.7820 C.3    84  C84         0.1812
   1800  O5'       37.2320  -40.6340  -76.2720 O.3    84  C84        -0.3114
   1801  C4'       35.8330  -38.7450  -76.7640 C.3    84  C84         0.1773
   1802  O4'       36.9330  -37.8070  -76.8510 O.3    84  C84        -0.3307
   1803  C3'       35.6160  -39.1530  -78.2080 C.3    84  C84         0.1860
   1804  O3'       34.3180  -39.6670  -78.3860 O.3    84  C84        -0.3112
   1805  C2'       35.7920  -37.8270  -78.9280 C.3    84  C84         0.2309
   1806  O2'       34.6740  -36.9770  -78.7620 O.3    84  C84        -0.2156
   1807  C1'       36.9740  -37.2470  -78.1550 C.3    84  C84         0.2420
   1808  N1        38.2740  -37.5750  -78.7480 N.ar   84  C84        -0.2535
   1809  C2        38.7380  -36.7960  -79.8070 C.ar   84  C84         0.3532
   1810  O2        38.0250  -35.8540  -80.2210 O.2    84  C84        -0.2443
   1811  N3        39.9470  -37.0760  -80.3490 N.ar   84  C84        -0.1739
   1812  C4        40.6810  -38.0740  -79.8540 C.ar   84  C84         0.1759
   1813  N4        41.8850  -38.2880  -80.3810 N.pl3  84  C84        -0.1070
   1814  C5        40.2200  -38.8890  -78.7850 C.ar   84  C84         0.0566
   1815  C6        39.0240  -38.6110  -78.2700 C.ar   84  C84         0.0850
   1816  OP1       36.6650  -42.6830  -74.9450 O.3    84  C84        -0.4373
   1817  OP2       38.9540  -42.4510  -76.1280 O.co2  84  C84        -0.5172
   1818  P         34.0780  -40.8270  -79.4560 P.3    85  A85         0.2141
   1819  C5'       32.8170  -39.1150  -80.9930 C.3    85  A85         0.1812
   1820  O5'       33.9200  -40.0070  -80.8150 O.3    85  A85        -0.3114
   1821  C4'       32.9490  -38.3480  -82.2890 C.3    85  A85         0.1773
   1822  O4'       34.0550  -37.4140  -82.1970 O.3    85  A85        -0.3307
   1823  C3'       33.2980  -39.1620  -83.5140 C.3    85  A85         0.1860
   1824  O3'       32.1780  -39.8190  -84.0620 O.3    85  A85        -0.3112
   1825  C2'       33.8310  -38.0900  -84.4460 C.3    85  A85         0.2309
   1826  O2'       32.7930  -37.3020  -84.9940 O.3    85  A85        -0.2156
   1827  C1'       34.6620  -37.2560  -83.4720 C.3    85  A85         0.2408
   1828  N1        39.4830  -36.7060  -85.1760 N.ar   85  A85        -0.2040
   1829  C2        38.3570  -36.0410  -85.4490 C.ar   85  A85         0.2016
   1830  N3        37.1350  -36.2220  -84.9630 N.ar   85  A85        -0.2048
   1831  C4        37.1260  -37.2370  -84.0850 C.ar   85  A85         0.1692
   1832  C5        38.2060  -38.0090  -83.7040 C.ar   85  A85         0.1518
   1833  C6        39.4370  -37.7150  -84.2880 C.ar   85  A85         0.1919
   1834  N6        40.5600  -38.3740  -84.0150 N.pl3  85  A85        -0.1054
   1835  N7        37.8250  -38.9620  -82.7750 N.ar   85  A85        -0.2193
   1836  C8        36.5390  -38.7530  -82.6170 C.ar   85  A85         0.1816
   1837  N9        36.0470  -37.7290  -83.3870 N.ar   85  A85        -0.2693
   1838  OP1       32.7570  -41.3970  -79.0810 O.3    85  A85        -0.4373
   1839  OP2       35.2770  -41.7200  -79.5410 O.co2  85  A85        -0.5172
   1840  P         32.4030  -41.1590  -84.9120 P.3    86  A86         0.2141
   1841  C5'       32.3550  -39.6130  -87.0400 C.3    86  A86         0.1812
   1842  O5'       33.0130  -40.6330  -86.2860 O.3    86  A86        -0.3114
   1843  C4'       33.2460  -39.1260  -88.1590 C.3    86  A86         0.1773
   1844  O4'       34.3930  -38.4330  -87.6130 O.3    86  A86        -0.3307
   1845  C3'       33.8510  -40.2210  -89.0120 C.3    86  A86         0.1860
   1846  O3'       32.9310  -40.5840  -90.0180 O.3    86  A86        -0.3112
   1847  C2'       35.0760  -39.5420  -89.6030 C.3    86  A86         0.2309
   1848  O2'       34.7600  -38.7570  -90.7330 O.3    86  A86        -0.2156
   1849  C1'       35.5190  -38.6540  -88.4420 C.3    86  A86         0.2408
   1850  N1        40.5690  -39.1810  -87.8350 N.ar   86  A86        -0.2040
   1851  C2        39.8330  -38.4500  -88.6750 C.ar   86  A86         0.2016
   1852  N3        38.5130  -38.3440  -88.7630 N.ar   86  A86        -0.2048
   1853  C4        37.9160  -39.1040  -87.8340 C.ar   86  A86         0.1692
   1854  C5        38.5340  -39.9000  -86.8930 C.ar   86  A86         0.1518
   1855  C6        39.9380  -39.9430  -86.9190 C.ar   86  A86         0.1919
   1856  N6        40.6780  -40.7020  -86.1100 N.pl3  86  A86        -0.1054
   1857  N7        37.5950  -40.5310  -86.0970 N.ar   86  A86        -0.2193
   1858  C8        36.4480  -40.1180  -86.5780 C.ar   86  A86         0.1816
   1859  N9        36.5700  -39.2680  -87.6390 N.ar   86  A86        -0.2693
   1860  OP1       31.0360  -41.7090  -85.1430 O.2    86  A86        -0.5172
   1861  OP2       33.4530  -41.9960  -84.2540 O.co2  86  A86        -0.4373
   1862  P         32.7710  -42.1220  -90.4340 P.3    87  C87         0.2141
   1863  C5'       30.2280  -41.5180  -90.5680 C.3    87  C87         0.1812
   1864  O5'       31.3720  -42.0960  -91.1890 O.3    87  C87        -0.3114
   1865  C4'       29.2600  -41.0510  -91.6210 C.3    87  C87         0.1773
   1866  O4'       29.9960  -40.2100  -92.5360 O.3    87  C87        -0.3307
   1867  C3'       28.7030  -42.1340  -92.5230 C.3    87  C87         0.1860
   1868  O3'       27.5490  -42.6950  -91.9290 O.3    87  C87        -0.3112
   1869  C2'       28.3420  -41.3650  -93.7870 C.3    87  C87         0.2309
   1870  O2'       27.0870  -40.7130  -93.6810 O.3    87  C87        -0.2156
   1871  C1'       29.4690  -40.3370  -93.8410 C.3    87  C87         0.2420
   1872  N1        30.5820  -40.6380  -94.7380 N.ar   87  C87        -0.2535
   1873  C2        30.4290  -40.4020  -96.0960 C.ar   87  C87         0.3532
   1874  O2        29.3240  -40.0260  -96.5140 O.2    87  C87        -0.2443
   1875  N3        31.4890  -40.5900  -96.9260 N.ar   87  C87        -0.1739
   1876  C4        32.6520  -41.0180  -96.4280 C.ar   87  C87         0.1759
   1877  N4        33.6820  -41.1610  -97.2600 N.pl3  87  C87        -0.1070
   1878  C5        32.8130  -41.3110  -95.0460 C.ar   87  C87         0.0566
   1879  C6        31.7640  -41.1100  -94.2460 C.ar   87  C87         0.0850
   1880  OP1       32.5830  -42.8750  -89.1710 O.3    87  C87        -0.4373
   1881  OP2       33.8510  -42.5410  -91.3890 O.co2  87  C87        -0.5172
   1882  P         27.2520  -44.2590  -92.0960 P.3    88  G88         0.2141
   1883  C5'       25.7610  -45.2080  -94.0550 C.3    88  G88         0.1812
   1884  O5'       25.9360  -44.2760  -92.9920 O.3    88  G88        -0.3114
   1885  C4'       24.8170  -44.6210  -95.0500 C.3    88  G88         0.1773
   1886  O4'       23.7180  -44.1040  -94.2990 O.3    88  G88        -0.3307
   1887  C3'       25.4120  -43.4270  -95.7650 C.3    88  G88         0.1860
   1888  O3'       25.9930  -43.8390  -97.0090 O.3    88  G88        -0.3112
   1889  C2'       24.3120  -42.3680  -95.8430 C.3    88  G88         0.2309
   1890  O2'       23.6570  -42.1870  -97.0700 O.3    88  G88        -0.2156
   1891  C1'       23.2850  -42.9030  -94.8710 C.3    88  G88         0.2408
   1892  N1        19.6820  -39.6460  -93.6770 N.ar   88  G88        -0.1709
   1893  C2        19.9850  -40.2190  -94.8870 C.ar   88  G88         0.2606
   1894  N2        19.1640  -39.9340  -95.9030 N.pl3  88  G88        -0.0859
   1895  N3        21.0160  -41.0120  -95.0830 N.ar   88  G88        -0.1918
   1896  C4        21.7340  -41.1930  -93.9570 C.ar   88  G88         0.1723
   1897  C5        21.5300  -40.6620  -92.7050 C.ar   88  G88         0.1748
   1898  C6        20.4150  -39.8170  -92.5010 C.ar   88  G88         0.3023
   1899  O6        20.0470  -39.2640  -91.4520 O.2    88  G88        -0.2633
   1900  N7        22.5120  -41.0910  -91.8210 N.ar   88  G88        -0.2173
   1901  C8        23.2650  -41.8770  -92.5420 C.ar   88  G88         0.1817
   1902  N9        22.8110  -42.0130  -93.8320 N.ar   88  G88        -0.2693
   1903  OP1       26.8980  -44.7140  -90.7290 O.3    88  G88        -0.4373
   1904  OP2       28.3760  -44.9140  -92.8320 O.co2  88  G88        -0.5172
   1905  P         25.1610  -44.7500  -98.0660 P.3    89  A89         0.2141
   1906  C5'       26.1990  -43.6010 -100.1710 C.3    89  A89         0.1812
   1907  O5'       26.1430  -44.7390  -99.3160 O.3    89  A89        -0.3114
   1908  C4'       27.6270  -43.1780 -100.4230 C.3    89  A89         0.1773
   1909  O4'       28.1910  -42.5460  -99.2560 O.3    89  A89        -0.3307
   1910  C3'       28.5990  -44.2890 -100.7120 C.3    89  A89         0.1860
   1911  O3'       28.4460  -44.7330 -102.0370 O.3    89  A89        -0.3112
   1912  C2'       29.9410  -43.6300 -100.4290 C.3    89  A89         0.2309
   1913  O2'       30.3670  -42.7880 -101.4820 O.3    89  A89        -0.2156
   1914  C1'       29.5910  -42.7840  -99.2090 C.3    89  A89         0.2408
   1915  N1        33.2010  -44.6580  -96.0730 N.ar   89  A89        -0.2040
   1916  C2        33.2530  -44.2310  -97.3310 C.ar   89  A89         0.2016
   1917  N3        32.2780  -43.7900  -98.1090 N.ar   89  A89        -0.2048
   1918  C4        31.1170  -43.8070  -97.4530 C.ar   89  A89         0.1692
   1919  C5        30.9070  -44.2330  -96.1600 C.ar   89  A89         0.1518
   1920  C6        32.0120  -44.6750  -95.4500 C.ar   89  A89         0.1919
   1921  N6        31.9540  -45.1090  -94.1910 N.pl3  89  A89        -0.1054
   1922  N7        29.5760  -44.1280  -95.8180 N.ar   89  A89        -0.2193
   1923  C8        29.0190  -43.6330  -96.8930 C.ar   89  A89         0.1816
   1924  N9        29.8980  -43.3940  -97.9150 N.ar   89  A89        -0.2693
   1925  OP1       23.8930  -44.1480  -98.5250 O.2    89  A89        -0.5172
   1926  OP2       25.1270  -46.1050  -97.5100 O.co2  89  A89        -0.4373
   1927  P         28.4840  -46.3020 -102.3280 P.3    90  A90         0.2141
   1928  C5'       30.9370  -46.1970 -103.2910 C.3    90  A90         0.1812
   1929  O5'       30.0360  -46.6710 -102.2900 O.3    90  A90        -0.3114
   1930  C4'       32.3570  -46.4090 -102.8350 C.3    90  A90         0.1773
   1931  O4'       32.4800  -45.8560 -101.5050 O.3    90  A90        -0.3307
   1932  C3'       32.7620  -47.8640 -102.6770 C.3    90  A90         0.1860
   1933  O3'       33.2820  -48.3260 -103.9140 O.3    90  A90        -0.3112
   1934  C2'       33.8320  -47.8140 -101.5910 C.3    90  A90         0.2309
   1935  O2'       35.1250  -47.4840 -102.0290 O.3    90  A90        -0.2156
   1936  C1'       33.3300  -46.6700 -100.7250 C.3    90  A90         0.2408
   1937  N1        33.6370  -48.0550  -95.8260 N.ar   90  A90        -0.2040
   1938  C2        34.5670  -47.7690  -96.7320 C.ar   90  A90         0.2016
   1939  N3        34.4210  -47.4340  -98.0030 N.ar   90  A90        -0.2048
   1940  C4        33.1220  -47.4150  -98.3390 C.ar   90  A90         0.1692
   1941  C5        32.0560  -47.6900  -97.5170 C.ar   90  A90         0.1518
   1942  C6        32.3470  -48.0140  -96.1950 C.ar   90  A90         0.1919
   1943  N6        31.4200  -48.2780  -95.2830 N.pl3  90  A90        -0.1054
   1944  N7        30.8590  -47.5930  -98.2170 N.ar   90  A90        -0.2193
   1945  C8        31.2280  -47.2530  -99.4270 C.ar   90  A90         0.1816
   1946  N9        32.5820  -47.1050  -99.5610 N.ar   90  A90        -0.2693
   1947  OP1       27.9980  -46.5090 -103.7140 O.2    90  A90        -0.5172
   1948  OP2       27.8130  -47.0000 -101.1820 O.co2  90  A90        -0.4373
   1949  P         32.6250  -49.6050 -104.6380 P.3    91  G91         0.2141
   1950  C5'       34.9090  -50.6760 -103.9030 C.3    91  G91         0.1812
   1951  O5'       33.5160  -50.8200 -104.1270 O.3    91  G91        -0.3114
   1952  C4'       35.2770  -51.4490 -102.6760 C.3    91  G91         0.1773
   1953  O4'       34.5270  -50.9730 -101.5500 O.3    91  G91        -0.3307
   1954  C3'       35.0200  -52.9560 -102.7770 C.3    91  G91         0.1860
   1955  O3'       36.3240  -53.5000 -102.5600 O.3    91  G91        -0.3112
   1956  C2'       34.1800  -53.3120 -101.5430 C.3    91  G91         0.2309
   1957  O2'       34.5980  -54.4790 -100.8680 O.3    91  G91        -0.2156
   1958  C1'       34.3650  -52.0550 -100.6880 C.3    91  G91         0.2408
   1959  N1        29.7830  -50.3990  -99.2720 N.ar   91  G91        -0.1709
   1960  C2        30.2810  -50.5180 -100.5360 C.ar   91  G91         0.2606
   1961  N2        29.4260  -50.1930 -101.5240 N.pl3  91  G91        -0.0859
   1962  N3        31.5100  -50.9330 -100.8060 N.ar   91  G91        -0.1918
   1963  C4        32.1840  -51.2360  -99.6790 C.ar   91  G91         0.1723
   1964  C5        31.7610  -51.1440  -98.3750 C.ar   91  G91         0.1748
   1965  C6        30.4700  -50.6990  -98.1060 C.ar   91  G91         0.3023
   1966  O6        29.9170  -50.5620  -97.0010 O.2    91  G91        -0.2633
   1967  N7        32.7600  -51.5380  -97.5000 N.ar   91  G91        -0.2173
   1968  C8        33.7490  -51.8650  -98.2750 C.ar   91  G91         0.1817
   1969  N9        33.4590  -51.7220  -99.6050 N.ar   91  G91        -0.2693
   1970  OP1       32.8550  -49.4650 -106.1130 O.2    91  G91        -0.5172
   1971  OP2       31.2330  -49.7790 -104.1150 O.co2  91  G91        -0.4373
   1972  P         36.8330  -54.7850 -103.3440 P.3    92  U92         0.2141
   1973  C5'       37.9020  -53.4560 -105.3590 C.3    92  U92         0.1812
   1974  O5'       38.0800  -54.2240 -104.1630 O.3    92  U92        -0.3114
   1975  C4'       39.2400  -52.9610 -105.8820 C.3    92  U92         0.1773
   1976  O4'       39.6570  -51.7530 -105.1920 O.3    92  U92        -0.3307
   1977  C3'       40.4190  -53.9100 -105.7310 C.3    92  U92         0.1860
   1978  O3'       40.4410  -54.8930 -106.7650 O.3    92  U92        -0.3112
   1979  C2'       41.5980  -52.9520 -105.8190 C.3    92  U92         0.2309
   1980  O2'       41.8360  -52.5340 -107.1500 O.3    92  U92        -0.2156
   1981  C1'       41.0670  -51.7580 -105.0330 C.3    92  U92         0.2420
   1982  N1        41.3560  -51.8100 -103.5960 N.ar   92  U92        -0.2534
   1983  C2        42.5990  -51.4130 -103.1460 C.ar   92  U92         0.3546
   1984  O2        43.5160  -51.1000 -103.8870 O.2    92  U92        -0.2443
   1985  N3        42.7350  -51.4050 -101.7860 N.ar   92  U92        -0.1530
   1986  C4        41.7920  -51.7680 -100.8540 C.ar   92  U92         0.2846
   1987  O4        42.0430  -51.6660  -99.6550 O.2    92  U92        -0.2650
   1988  C5        40.5660  -52.2060 -101.3990 C.ar   92  U92         0.0814
   1989  C6        40.3940  -52.2140 -102.7170 C.ar   92  U92         0.0870
   1990  OP1       35.7730  -55.2510 -104.2930 O.2    92  U92        -0.5172
   1991  OP2       37.3640  -55.6890 -102.2950 O.co2  92  U92        -0.4373
   1992  P         41.0890  -56.3400 -106.4750 P.3    93  C93         0.2141
   1993  C5'       43.3380  -55.6770 -107.6950 C.3    93  C93         0.1812
   1994  O5'       42.6650  -56.0930 -106.5070 O.3    93  C93        -0.3114
   1995  C4'       44.8070  -55.4610 -107.4010 C.3    93  C93         0.1773
   1996  O4'       44.9680  -54.3300 -106.5030 O.3    93  C93        -0.3307
   1997  C3'       45.4870  -56.6070 -106.6670 C.3    93  C93         0.1860
   1998  O3'       45.8970  -57.6240 -107.5680 O.3    93  C93        -0.3112
   1999  C2'       46.6620  -55.9170 -105.9850 C.3    93  C93         0.2309
   2000  O2'       47.7580  -55.6760 -106.8460 O.3    93  C93        -0.2156
   2001  C1'       46.0270  -54.5870 -105.5910 C.3    93  C93         0.2420
   2002  N1        45.4780  -54.5900 -104.2270 N.ar   93  C93        -0.2535
   2003  C2        46.3530  -54.4310 -103.1480 C.ar   93  C93         0.3532
   2004  O2        47.5730  -54.3580 -103.3680 O.2    93  C93        -0.2443
   2005  N3        45.8500  -54.3660 -101.8940 N.ar   93  C93        -0.1739
   2006  C4        44.5350  -54.4740 -101.6980 C.ar   93  C93         0.1759
   2007  N4        44.0780  -54.3910 -100.4480 N.pl3  93  C93        -0.1070
   2008  C5        43.6260  -54.6690 -102.7770 C.ar   93  C93         0.0566
   2009  C6        44.1340  -54.7230 -104.0110 C.ar   93  C93         0.0850
   2010  OP1       40.6680  -57.2070 -107.6090 O.2    93  C93        -0.5172
   2011  OP2       40.7890  -56.7500 -105.0760 O.co2  93  C93        -0.4373
   2012  P         45.9470  -59.1500 -107.0690 P.3    94  C94         0.2141
   2013  C5'       48.4830  -59.0850 -106.4120 C.3    94  C94         0.1812
   2014  O5'       47.1280  -59.1690 -105.9920 O.3    94  C94        -0.3114
   2015  C4'       49.4080  -59.0710 -105.2260 C.3    94  C94         0.1773
   2016  O4'       49.1090  -57.9140 -104.4070 O.3    94  C94        -0.3307
   2017  C3'       49.2960  -60.2320 -104.2500 C.3    94  C94         0.1860
   2018  O3'       49.9630  -61.4070 -104.7210 O.3    94  C94        -0.3112
   2019  C2'       49.9360  -59.6460 -102.9890 C.3    94  C94         0.2309
   2020  O2'       51.3490  -59.7070 -102.9210 O.3    94  C94        -0.2156
   2021  C1'       49.4720  -58.1870 -103.0600 C.3    94  C94         0.2420
   2022  N1        48.3140  -57.9440 -102.1780 N.ar   94  C94        -0.2535
   2023  C2        48.5520  -57.7210 -100.8010 C.ar   94  C94         0.3532
   2024  O2        49.7240  -57.6990 -100.3830 O.2    94  C94        -0.2443
   2025  N3        47.5010  -57.5350  -99.9720 N.ar   94  C94        -0.1739
   2026  C4        46.2580  -57.5560 -100.4570 C.ar   94  C94         0.1759
   2027  N4        45.2580  -57.3710  -99.5980 N.pl3  94  C94        -0.1070
   2028  C5        45.9860  -57.7680 -101.8500 C.ar   94  C94         0.0566
   2029  C6        47.0320  -57.9520 -102.6660 C.ar   94  C94         0.0850
   2030  OP1       46.3330  -59.9300 -108.2790 O.2    94  C94        -0.5172
   2031  OP2       44.6790  -59.4710 -106.3670 O.co2  94  C94        -0.4373
   2032  P         49.4610  -62.8710 -104.2450 P.3    95  G95         0.2141
   2033  C5'       51.1610  -62.8500 -102.2460 C.3    95  G95         0.1812
   2034  O5'       49.8070  -62.9090 -102.6850 O.3    95  G95        -0.3114
   2035  C4'       51.2380  -62.7010 -100.7420 C.3    95  G95         0.1773
   2036  O4'       50.6540  -61.4330 -100.3290 O.3    95  G95        -0.3307
   2037  C3'       50.4940  -63.7240  -99.8980 C.3    95  G95         0.1860
   2038  O3'       51.1840  -64.9660  -99.8060 O.3    95  G95        -0.3112
   2039  C2'       50.3870  -62.9950  -98.5600 C.3    95  G95         0.2309
   2040  O2'       51.5770  -62.9990  -97.7890 O.3    95  G95        -0.2156
   2041  C1'       50.0660  -61.5750  -99.0330 C.3    95  G95         0.2408
   2042  N1        45.7570  -60.6570  -96.5050 N.ar   95  G95        -0.1709
   2043  C2        47.0430  -60.7640  -96.0320 C.ar   95  G95         0.2606
   2044  N2        47.2020  -60.6270  -94.7070 N.pl3  95  G95        -0.0859
   2045  N3        48.0950  -60.9910  -96.7980 N.ar   95  G95        -0.1918
   2046  C4        47.7550  -61.1080  -98.0990 C.ar   95  G95         0.1723
   2047  C5        46.5020  -61.0200  -98.6760 C.ar   95  G95         0.1748
   2048  C6        45.3810  -60.7730  -97.8430 C.ar   95  G95         0.3023
   2049  O6        44.1870  -60.6580  -98.1660 O.2    95  G95        -0.2633
   2050  N7        46.5760  -61.2030 -100.0510 N.ar   95  G95        -0.2173
   2051  C8        47.8470  -61.3970 -100.2830 C.ar   95  G95         0.1817
   2052  N9        48.6200  -61.3620  -99.1400 N.ar   95  G95        -0.2693
   2053  OP1       50.3520  -63.8500 -104.9170 O.2    95  G95        -0.5172
   2054  OP2       47.9850  -62.9830 -104.4370 O.co2  95  G95        -0.4373
   2055  P         50.3610  -66.3150  -99.4870 P.3    96  U96         0.2141
   2056  C5'       51.3830  -66.1670  -97.0590 C.3    96  U96         0.1813
   2057  O5'       50.2320  -66.3150  -97.8950 O.3    96  U96        -0.3114
   2058  C4'       50.9740  -66.0900  -95.6030 C.3    96  U96         0.1801
   2059  O4'       50.2150  -64.8740  -95.3550 O.3    96  U96        -0.3306
   2060  C3'       50.0590  -67.2010  -95.1070 C.3    96  U96         0.2161
   2061  O3'       50.7070  -68.4670  -94.9050 O.3    96  U96        -0.2175
   2062  C2'       49.4150  -66.5710  -93.8720 C.3    96  U96         0.2338
   2063  O2'       50.2140  -66.6550  -92.7020 O.3    96  U96        -0.2155
   2064  C1'       49.2620  -65.1080  -94.3160 C.3    96  U96         0.2421
   2065  N1        47.9110  -64.7480  -94.8010 N.ar   96  U96        -0.2534
   2066  C2        46.8970  -64.5360  -93.8520 C.ar   96  U96         0.3546
   2067  O2        47.0690  -64.6430  -92.6450 O.2    96  U96        -0.2443
   2068  N3        45.6720  -64.1970  -94.3800 N.ar   96  U96        -0.1530
   2069  C4        45.3470  -64.0510  -95.7200 C.ar   96  U96         0.2846
   2070  O4        44.1940  -63.7500  -96.0350 O.2    96  U96        -0.2650
   2071  C5        46.4310  -64.2870  -96.6310 C.ar   96  U96         0.0814
   2072  C6        47.6420  -64.6180  -96.1570 C.ar   96  U96         0.0870
   2073  OP1       51.2160  -67.4600  -99.8950 O.3    96  U96        -0.4373
   2074  OP2       48.9960  -66.1870 -100.0660 O.co2  96  U96        -0.5172
@<TRIPOS>BOND
     1  1263  1264   ar
     2  1263  1262   ar
     3  1264  1265   ar
     4  1262  1267   ar
     5  1260  1259    1
     6  1265  1271   ar
     7  1265  1266   ar
     8  1261  1271    1
     9  1261  1256    1
    10  1261  1259    1
    11  1267  1266   ar
    12  1267  1268    1
    13  1271  1270   ar
    14  1266  1269   ar
    15  1256  1255    1
    16  1259  1257    1
    17  1270  1269   ar
    18  1255  1257    1
    19  1255  1253    1
    20  1278  1283    1
    21  1278  1277    1
    22  1272  1252    2
    23  1257  1258    1
    24  1282  1281    1
    25  1283  1294    1
    26  1283  1281    1
    27  1286  1285    1
    28  1287  1285   ar
    29  1287  1288   ar
    30  1253  1254    1
    31  1277  1275    1
    32  1277  1279    1
    33  1258  1274    1
    34  1285  1284   ar
    35  1294  1288   ar
    36  1294  1293   ar
    37  1288  1289   ar
    38  1275  1276    1
    39  1281  1279    1
    40  1254  1252    1
    41  1284  1290   ar
    42  1252  1273    1
    43  1252  1235    1
    44  1293  1292   ar
    45  1289  1290   ar
    46  1289  1292   ar
    47  1279  1280    1
    48  1290  1291    2
    49  1276  1274    1
    50  1274  1295    2
    51  1274  1296    1
    52  1280  1297    1
    53  1301  1306    1
    54  1301  1300    1
    55  1235  1234    1
    56  1237  1236    1
    57  1298  1300    1
    58  1298  1299    1
    59  1306  1316    1
    60  1306  1304    1
    61  1300  1302    1
    62  1236  1234    1
    63  1236  1238    1
    64  1305  1304    1
    65  1234  1232    1
    66  1299  1297    1
    67  1297  1317    2
    68  1297  1318    1
    69  1316  1310   ar
    70  1316  1315   ar
    71  1309  1310   ar
    72  1309  1308   ar
    73  1310  1311   ar
    74  1315  1314   ar
    75  1304  1302    1
    76  1308  1307   ar
    77  1302  1303    1
    78  1311  1314   ar
    79  1311  1312   ar
    80  1307  1312   ar
    81  1232  1233    1
    82  1232  1230    1
    83  1241  1240    1
    84  1312  1313    1
    85  1238  1249    1
    86  1238  1233    1
    87  1303  1319    1
    88  1231  1230    1
    89  1231  1229    1
    90  1242  1240   ar
    91  1242  1243   ar
    92  1240  1239   ar
    93  1250  1229    2
    94  1249  1243   ar
    95  1249  1248   ar
    96  1243  1244   ar
    97  1239  1245   ar
    98  1229  1251    1
    99  1229  1212    1
   100  1248  1247   ar
   101  1244  1245   ar
   102  1244  1247   ar
   103  1245  1246    2
   104  1319  1338    2
   105  1319  1337    1
   106  1319  1321    1
   107  1323  1328    1
   108  1323  1322    1
   109  1212  1211    1
   110  1321  1320    1
   111  1336  1335   ar
   112  1336  1329   ar
   113  1328  1329    1
   114  1328  1326    1
   115  1320  1322    1
   116  1335  1333   ar
   117  1329  1330   ar
   118  1322  1324    1
   119  1333  1332   ar
   120  1333  1334    1
   121  1330  1332   ar
   122  1330  1331    2
   123  1211  1213    1
   124  1211  1209    1
   125  1213  1214    1
   126  1213  1215    1
   127  1327  1326    1
   128  1218  1217    1
   129   172   151    2
   130  1326  1324    1
   131  1216  1217   ar
   132  1216  1222   ar
   133  1217  1219   ar
   134  1219  1220   ar
   135  1222  1223    2
   136  1222  1221   ar
   137  1324  1325    1
   138  1220  1221   ar
   139  1220  1226   ar
   140  1221  1224   ar
   141  1227  1206    2
   142  1209  1207    1
   143  1209  1210    1
   144  1226  1215    1
   145  1226  1225   ar
   146  1224  1225   ar
   147   149   131    2
   148  1208  1207    1
   149  1208  1206    1
   150  1228  1206    1
   151   137   151    1
   152   137   136    1
   153  1215  1210    1
   154   117   116    1
   155   132   134    1
   156   132   133    1
   157   151   173    1
   158   151   153    1
   159  1206  1192    1
   160  1325  1339    1
   161   134   136    1
   162   134   135    1
   163   115   131    1
   164   115   114    1
   165   139   138    1
   166   136   138    1
   167   131   133    1
   168   131   150    1
   169  1343  1348    1
   170  1343  1342    1
   171   153   152    1
   172   152   154    1
   173   116   114    1
   174   116   118    1
   175   135   140    1
   176   194   174    2
   177  1358  1357   ar
   178  1358  1359   ar
   179  1357  1354   ar
   180   138   140    1
   181   114   112    1
   182  1192  1191    1
   183  1359  1348    1
   184  1359  1353   ar
   185  1339  1361    2
   186  1339  1341    1
   187  1339  1360    1
   188  1348  1346    1
   189   112   113    1
   190   112   110    1
   191   195   174    1
   192  1354  1353   ar
   193  1354  1355   ar
   194  1340  1341    1
   195  1340  1342    1
   196   118   113    1
   197   118   128    1
   198  1353  1352   ar
   199   140   141    1
   200  1356  1355    2
   201  1355  1349   ar
   202  1342  1344    1
   203  1205  1186    2
   204   174   157    1
   205   174   176    1
   206  1201  1200    1
   207  1352  1350   ar
   208  1349  1350   ar
   209  1191  1193    1
   210  1191  1189    1
   211   121   120   ar
   212   121   122   ar
   213  1350  1351    1
   214  1204  1186    1
   215   154   156    1
   216   154   155    1
   217   110   111    1
   218  1200  1199   ar
   219  1200  1202   ar
   220  1199  1197   ar
   221   157   156    1
   222   111   109    1
   223  1186  1188    1
   224  1186  1172    1
   225  1188  1187    1
   226  1193  1194    1
   227  1193  1195    1
   228  1202  1203   ar
   229   120   119   ar
   230  1346  1347    1
   231  1346  1344    1
   232   130   109    2
   233   128   122   ar
   234   128   127   ar
   235   156   158    1
   236  1197  1198    2
   237  1197  1196   ar
   238  1090  1089    1
   239   176   175    1
   240   155   160    1
   241   122   123   ar
   242  1344  1345    1
   243   141   148   ar
   244   141   142   ar
   245  1203  1196   ar
   246  1196  1195    1
   247   218   196    2
   248  1185  1166    2
   249  1187  1189    1
   250  1189  1190    1
   251   109   129    1
   252   109    95    1
   253   148   147   ar
   254  1103  1105    1
   255  1103  1104    1
   256  1184  1166    1
   257   175   177    1
   258   143   142    2
   259  1195  1190    1
   260  1105  1106    1
   261  1105  1107    1
   262   170   169   ar
   263   170   171   ar
   264  1164  1144    2
   265  1165  1144    1
   266   119   124   ar
   267  1122  1102    2
   268   142   144   ar
   269  1181  1180    1
   270  1345  1362    1
   271   127   126   ar
   272  1172  1171    1
   273  1166  1168    1
   274  1166  1150    1
   275   241   219    2
   276  1106  1111    1
   277   240   219    1
   278  1110  1109    1
   279   160   158    1
   280   160   171    1
   281   158   159    1
   282  1108  1107    1
   283  1108  1124    1
   284  1168  1167    1
   285  1089  1091    1
   286  1089  1087    1
   287   123   124   ar
   288   123   126   ar
   289  1088  1102    1
   290  1088  1087    1
   291   169   166   ar
   292  1142  1124    2
   293   196   217    1
   294   196   180    1
   295   196   198    1
   296  1182  1180   ar
   297  1182  1183   ar
   298  1144  1146    1
   299  1144  1130    1
   300  1180  1179   ar
   301   171   165   ar
   302   147   145   ar
   303  1091  1086    1
   304  1091  1092    1
   305  1171  1173    1
   306  1171  1169    1
   307  1094  1093    2
   308  1085  1086    1
   309  1085  1087    1
   310  1085  1083    1
   311   107    89    2
   312  1379  1378    2
   313    95    94    1
   314  1107  1109    1
   315  1104  1102    1
   316   219   202    1
   317   219   221    1
   318   124   125    1
   319  1380  1381   ar
   320  1380  1377   ar
   321  1102  1123    1
   322   197   198    1
   323   197   199    1
   324  1378  1377   ar
   325  1378  1372   ar
   326  1381  1382   ar
   327   202   201    1
   328   192   191   ar
   329   192   193   ar
   330  1146  1145    1
   331   177   179    1
   332   177   178    1
   333   191   188   ar
   334  1111  1109    1
   335  1111  1121    1
   336  1377  1376   ar
   337  1167  1169    1
   338  1183  1176   ar
   339  1366  1371    1
   340  1366  1365    1
   341   544   524    2
   342  1124  1143    1
   343  1124  1126    1
   344   144   145   ar
   345  1179  1177   ar
   346   179   180    1
   347   179   181    1
   348  1372  1373   ar
   349  1382  1376   ar
   350  1382  1371    1
   351  1376  1375   ar
   352  1362  1384    2
   353  1362  1364    1
   354  1362  1383    1
   355  1150  1149    1
   356  1173  1174    1
   357  1173  1175    1
   358  1083  1084    1
   359   145   146    1
   360  1169  1170    1
   361  1371  1369    1
   362   178   183    1
   363   166   165   ar
   364   166   167   ar
   365  1373  1375   ar
   366  1373  1374    1
   367  1093  1092   ar
   368  1093  1095   ar
   369  1125  1126    1
   370  1125  1127    1
   371  1176  1177   ar
   372  1176  1175    1
   373  1364  1363    1
   374  1145  1147    1
   375  1092  1099   ar
   376   165   164   ar
   377   199   201    1
   378   199   200    1
   379  1130  1129    1
   380  1177  1178    2
   381    94    92    1
   382    94    96    1
   383    89   108    1
   384    89    91    1
   385    89    75    1
   386  1363  1365    1
   387   201   203    1
   388  1149  1147    1
   389  1149  1151    1
   390   221   220    1
   391  1365  1367    1
   392    90    91    1
   393    90    92    1
   394   193   183    1
   395   193   187   ar
   396  1121  1120   ar
   397  1121  1115   ar
   398   188   189   ar
   399   188   187   ar
   400  1175  1170    1
   401   510   524    1
   402   510   509    1
   403  1161  1162   ar
   404  1161  1158   ar
   405   190   189    1
   406   524   545    1
   407   524   526    1
   408  1129  1127    1
   409  1129  1131    1
   410   183   181    1
   411  1162  1163   ar
   412   181   182    1
   413    92    93    1
   414  1147  1148    1
   415   220   222    1
   416   167   168    2
   417   167   161   ar
   418  1120  1119   ar
   419  1160  1159    1
   420  1095  1096   ar
   421    96    97    1
   422    96    98    1
   423  1127  1128    1
   424  1084  1082    1
   425   164   162   ar
   426    75    74    1
   427  1099  1098   ar
   428   189   184   ar
   429  1369  1370    1
   430  1369  1367    1
   431   187   186   ar
   432  1158  1159   ar
   433  1158  1157   ar
   434   512   511    1
   435   200   205    1
   436   525   526    1
   437   525   527    1
   438   505   507    1
   439   505   506    1
   440  1151  1153    1
   441  1151  1152    1
   442   507   509    1
   443   507   508    1
   444   566   546    2
   445  1114  1115   ar
   446  1114  1113   ar
   447  1115  1116   ar
   448  1159  1154   ar
   449  1367  1368    1
   450   887   869    2
   451  1140  1141   ar
   452  1140  1138   ar
   453  1163  1157   ar
   454  1163  1153    1
   455   203   204    1
   456   203   205    1
   457   522   504    2
   458  1148  1153    1
   459  1141  1134   ar
   460   509   511    1
   461   835   834    1
   462  1101  1082    2
   463  1400  1399    2
   464  1157  1156   ar
   465  2030  2012    2
   466   222   223    1
   467   222   224    1
   468    87    69    2
   469  1131  1133    1
   470  1131  1132    1
   471   161   162   ar
   472  1128  1133    1
   473    93    98    1
   474   162   163    1
   475  1096  1098   ar
   476  1096  1097    1
   477  1139  1138    1
   478  1119  1116   ar
   479  1068  1082    1
   480  1068  1067    1
   481   850   852    1
   482   850   851    1
   483   855   869    1
   484   855   854    1
   485  1082  1100    1
   486   205   216    1
   487  1138  1137   ar
   488  1154  1155   ar
   489   511   513    1
   490   567   546    1
   491    98    99    1
   492   489   488    1
   493  1399  1401   ar
   494  1399  1398   ar
   495   106    99   ar
   496   106   105   ar
   497   852   854    1
   498   852   853    1
   499   508   513    1
   500    74    72    1
   501    74    76    1
   502  1134  1133    1
   503  1134  1135   ar
   504   546   530    1
   505   546   548    1
   506  1993  1995    1
   507  1993  1994    1
   508  1116  1117   ar
   509   184   185   ar
   510   225   224    1
   511   225   242    1
   512   867   849    2
   513   527   529    1
   514   527   528    1
   515   263   242    2
   516   186   185   ar
   517   506   504    1
   518  2010  1992    2
   519   857   856    1
   520  1113  1112   ar
   521  1998  2012    1
   522  1998  1997    1
   523  1070  1069    1
   524  1401  1402   ar
   525  1398  1396   ar
   526  1156  1155   ar
   527   530   529    1
   528   869   871    1
   529   869   888    1
   530  1368  1385    1
   531   223   228    1
   532   487   504    1
   533   487   486    1
   534    99   100   ar
   535   504   523    1
   536  1995  1997    1
   537  1995  1996    1
   538   105   103   ar
   539    70    71    1
   540    70    72    1
   541   870   871    1
   542   870   872    1
   543   224   226    1
   544  1137  1135   ar
   545   833   849    1
   546   833   832    1
   547  1980  1979    1
   548   513   514    1
   549   854   856    1
   550    69    71    1
   551    69    88    1
   552    69    53    1
   553  2012  2031    1
   554  2012  2014    1
   555  1135  1136    2
   556   264   242    1
   557    72    73    1
   558   242   244    1
   559  1402  1395   ar
   560  1065  1067    1
   561  1065  1063    1
   562  1065  1066    1
   563  1396  1397    2
   564  1396  1395   ar
   565   853   858    1
   566   529   531    1
   567   834   832    1
   568   834   836    1
   569   907   889    2
   570    77    76    1
   571    76    78    1
   572  2000  1999    1
   573  1067  1069    1
   574  1063  1064    1
   575  1978  1992    1
   576  1978  1977    1
   577   851   849    1
   578   216   215   ar
   579   216   210   ar
   580   849   868    1
   581  1395  1394    1
   582   528   533    1
   583  1997  1999    1
   584   100   101    2
   585   100   102   ar
   586   215   214   ar
   587   856   858    1
   588   488   486    1
   589   488   490    1
   590  1117  1112   ar
   591  1117  1118    1
   592  1994  1992    1
   593  1996  2001    1
   594   103   102   ar
   595   103   104    1
   596  1992  2011    1
   597  1069  1071    1
   598  1404  1385    2
   599  2013  2014    1
   600  2013  2015    1
   601  1422  1421    2
   602   486   484    1
   603   548   547    1
   604   832   830    1
   605  1389  1394    1
   606  1389  1388    1
   607   484   482    1
   608   484   485    1
   609   872   874    1
   610   872   873    1
   611   875   889    1
   612   875   874    1
   613   227   226    1
   614   836   831    1
   615   836   846    1
   616   830   831    1
   617   830   828    1
   618  1385  1387    1
   619  1385  1403    1
   620   858   859    1
   621  1970  1949    2
   622   228   226    1
   623   228   239    1
   624  1394  1392    1
   625   889   908    1
   626   889   891    1
   627  1999  2001    1
   628  1050  1049    1
   629  1080  1062    2
   630  1066  1071    1
   631   839   838   ar
   632   839   840   ar
   633   470   469    1
   634  1975  1977    1
   635  1975  1973    1
   636  1975  1976    1
   637    53    52    1
   638  1979  1977    1
   639  1979  1981    1
   640   547   549    1
   641  1421  1415   ar
   642  1421  1420   ar
   643  1415  1416   ar
   644  1387  1386    1
   645   514   521   ar
   646   514   515   ar
   647   482   483    1
   648   490   485    1
   649   490   501    1
   650  1071  1072    1
   651   238   239   ar
   652   238   237   ar
   653    73    78    1
   654  2001  2002    1
   655   210   209   ar
   656   210   211   ar
   657    78    79    1
   658   838   837   ar
   659   874   876    1
   660   531   533    1
   661   531   532    1
   662   244   243    1
   663  1064  1062    1
   664   533   543    1
   665  1973  1974    1
   666   214   211   ar
   667  1386  1388    1
   668   493   492    1
   669   542   543   ar
   670   542   541   ar
   671   516   515    2
   672   209   207   ar
   673   239   233   ar
   674  2015  2016    1
   675  2015  2017    1
   676  1417  1416    1
   677   521   520   ar
   678   873   878    1
   679    86    79   ar
   680    86    85   ar
   681  1976  1981    1
   682   243   245    1
   683  1416  1418   ar
   684    79    80   ar
   685   828   829    1
   686  1420  1423   ar
   687  1420  1419   ar
   688  1388  1390    1
   689   494   492   ar
   690   494   495   ar
   691  1981  1982    1
   692   846   840   ar
   693   846   845   ar
   694   840   841   ar
   695  1062  1048    1
   696  1062  1081    1
   697  2053  2032    2
   698  1048  1047    1
   699  1440  1439    1
   700  1423  1424   ar
   701   515   517   ar
   702    85    83   ar
   703  1049  1047    1
   704  1049  1051    1
   705  2018  2017    1
   706  2018  2032    1
   707   859   866   ar
   708   859   860   ar
   709   543   537   ar
   710   466   465    1
   711   211   212   ar
   712  1949  1951    1
   713  1949  1971    1
   714  1949  1933    1
   715   237   234   ar
   716    80    81    2
   717    80    82   ar
   718   469   471   ar
   719   469   468   ar
   720   877   876    1
   721   891   890    1
   722  1419  1418   ar
   723  1419  1425   ar
   724    52    54    1
   725    52    50    1
   726  1392  1390    1
   727  1392  1393    1
   728    67    47    2
   729  1438  1439   ar
   730  1438  1444   ar
   731   492   491   ar
   732  2054  2032    1
   733   541   538   ar
   734   586   568    2
   735   866   865   ar
   736  2016  2021    1
   737   564   563   ar
   738   564   565   ar
   739   483   481    1
   740   501   495   ar
   741   501   500   ar
   742  1074  1073    2
   743   549   551    1
   744   549   550    1
   745  1439  1441   ar
   746   837   842   ar
   747  1990  1972    2
   748   890   892    1
   749   876   878    1
   750  1445  1444    2
   751  2017  2019    1
   752  2032  2034    1
   753    83    82   ar
   754    83    84    2
   755  2002  2009   ar
   756  2002  2003   ar
   757   815   814    1
   758   471   472   ar
   759  1424  1425   ar
   760   563   560   ar
   761  1072  1073   ar
   762  1072  1079   ar
   763  1974  1972    1
   764  1054  1053    2
   765  1951  1950    1
   766  1390  1391    1
   767   495   496   ar
   768   551   553    1
   769   551   552    1
   770  2009  2008   ar
   771  1047  1045    1
   772   930   909    2
   773   878   879    1
   774  1444  1443   ar
   775   861   860    2
   776   207   208    1
   777   207   206   ar
   778  1425  1414    1
   779  1933  1932    1
   780  1950  1952    1
   781   520   518   ar
   782    55    54    1
   783  1984  1983    2
   784   233   234   ar
   785   233   232   ar
   786   550   555    1
   787   829   827    1
   788    54    56    1
   789  1051  1046    1
   790  1051  1052    1
   791    48    49    1
   792    48    50    1
   793   845   844   ar
   794   465   463    1
   795   465   467    1
   796  1947  1927    2
   797   468   474   ar
   798   819   818    2
   799   860   862   ar
   800  1031  1030    1
   801   245   246    1
   802   245   247    1
   803   841   842   ar
   804   841   844   ar
   805    49    47    1
   806  1073  1075   ar
   807    50    51    1
   808  1982  1983   ar
   809  1982  1989   ar
   810  1441  1442   ar
   811    68    47    1
   812  1045  1046    1
   813  1045  1043    1
   814   502   481    2
   815    47    30    1
   816   234   235   ar
   817   517   518   ar
   818   464   481    1
   819   464   463    1
   820   587   568    1
   821   886   879   ar
   822   886   885   ar
   823  2004  2003    2
   824  1079  1078   ar
   825   537   538   ar
   826   537   536   ar
   827   568   552    1
   828   568   570    1
   829   553   555    1
   830   553   554    1
   831  1972  1955    1
   832  1972  1991    1
   833   842   843    1
   834   565   555    1
   835   565   559   ar
   836  1928  1930    1
   837  1928  1929    1
   838   212   206   ar
   839   212   213    2
   840  1462  1461   ar
   841  1462  1463   ar
   842   481   503    1
   843   538   539   ar
   844  1414  1409    1
   845  1414  1412    1
   846  1443  1442   ar
   847  1443  1446   ar
   848   865   863   ar
   849   491   497   ar
   850  2003  2005   ar
   851  1983  1985   ar
   852   500   499   ar
   853   287   265    2
   854   929   909    1
   855   246   251    1
   856  1461  1466   ar
   857  2021  2019    1
   858  2021  2022    1
   859   248   247    1
   860   248   265    1
   861   232   230   ar
   862  1442  1448   ar
   863   518   519    1
   864   814   816    1
   865   814   812    1
   866   879   880   ar
   867  2019  2020    1
   868  1053  1052   ar
   869  1053  1055   ar
   870   261   260   ar
   871   261   262   ar
   872  1409  1408    1
   873   247   249    1
   874   286   265    1
   875   909   895    1
   876   909   911    1
   877   560   559   ar
   878   560   561   ar
   879   472   478   ar
   880   472   473   ar
   881  1930  1932    1
   882  1930  1931    1
   883   892   894    1
   884   892   893    1
   885   463   461    1
   886  2008  2006   ar
   887  1954  1952    1
   888  1954  1955    1
   889  1954  1956    1
   890  1391  1405    1
   891   847   827    2
   892   496   497   ar
   893   496   499   ar
   894  1989  1988   ar
   895  1463  1464   ar
   896   467   478    1
   897   467   462    1
   898  1052  1059   ar
   899   260   257   ar
   900  2034  2033    1
   901  1932  1934    1
   902  1952  1953    1
   903  2029  2022   ar
   904  2029  2028   ar
   905   265   267    1
   906   926   927   ar
   907   926   923   ar
   908   818   820   ar
   909   818   817   ar
   910   827   813    1
   911   827   848    1
   912   813   812    1
   913   895   894    1
   914   885   883   ar
   915  1446  1447   ar
   916  1043  1044    1
   917   862   863   ar
   918   925   924    1
   919   536   535   ar
   920   562   561    1
   921  1030  1029   ar
   922  1030  1032   ar
   923    56    51    1
   924    56    66    1
   925   559   558   ar
   926  1927  1929    1
   927  1927  1911    1
   928  1927  1948    1
   929   474   473   ar
   930   474   475    2
   931   816   817    1
   932   816   811    1
   933  1075  1076   ar
   934  1466  1467    1
   935  1466  1465   ar
   936  1448  1447   ar
   937  1448  1437    1
   938   894   896    1
   939  2033  2035    1
   940  2022  2023   ar
   941  1427  1405    2
   942   497   498    2
   943   235   236    2
   944   235   229   ar
   945   478   477   ar
   946   863   864    1
   947    30    29    1
   948   893   898    1
   949  1911  1910    1
   950  1078  1076   ar
   951  1935  1934    1
   952   927   928   ar
   953   570   569    1
   954   561   556   ar
   955   820   821   ar
   956   686   685    1
   957  1055  1056   ar
   958  1464  1465   ar
   959  1464  1470   ar
   960    66    65   ar
   961    66    60   ar
   962   539   540    1
   963   539   534   ar
   964    65    64   ar
   965   812   810    1
   966   473   476   ar
   967  1437  1432    1
   968  1437  1435    1
   969  2005  2006   ar
   970  1412  1413    1
   971  1412  1410    1
   972  1029  1035   ar
   973  2028  2026   ar
   974   262   251    1
   975   262   256   ar
   976   569   571    1
   977   461   462    1
   978   461   459    1
   979  1985  1986   ar
   980   251   249    1
   981   230   229   ar
   982   230   231    1
   983   817   824   ar
   984  2006  2007    1
   985  1407  1405    1
   986  1407  1406    1
   987  1465  1468   ar
   988  1405  1426    1
   989   880   881    2
   990   880   882   ar
   991  1032  1033   ar
   992   911   910    1
   993  1934  1936    1
   994   354   333    2
   995   906   905   ar
   996   906   899   ar
   997  1953  1958    1
   998  1956  1957    1
   999  1956  1958    1
  1000    64    61   ar
  1001  1961  1960    1
  1002  1931  1936    1
  1003   249   250    1
  1004    60    59   ar
  1005    60    61   ar
  1006  1408  1406    1
  1007  1408  1410    1
  1008   923   924   ar
  1009   923   922   ar
  1010  1913  1912    1
  1011  1059  1058   ar
  1012  1076  1077    2
  1013  1988  1986   ar
  1014   924   919   ar
  1015   450   449    2
  1016   905   903   ar
  1017    59    58   ar
  1018   305   304    2
  1019  1460  1470    1
  1020  1460  1455    1
  1021  1460  1458    1
  1022  1432  1431    1
  1023   257   256   ar
  1024   257   258   ar
  1025  1044  1042    1
  1026  1470  1469   ar
  1027    61    62   ar
  1028   811   810    1
  1029   535   534   ar
  1030   810   808    1
  1031   796   797   ar
  1032   796   795   ar
  1033   883   882   ar
  1034   883   884    1
  1035   558   557   ar
  1036  1436  1435    1
  1037   267   266    1
  1038  1410  1411    1
  1039    58    57   ar
  1040   797   798   ar
  1041    29    31    1
  1042    29    27    1
  1043  1455  1454    1
  1044   793   792    1
  1045    45    24    2
  1046   774   773    1
  1047  1435  1433    1
  1048  1986  1987    2
  1049  1459  1458    1
  1050  1468  1469   ar
  1051   477   476   ar
  1052  1962  1960   ar
  1053  1962  1963   ar
  1054    62    57   ar
  1055    62    63    1
  1056  2023  2024    2
  1057  2023  2025   ar
  1058   898   896    1
  1059   898   899    1
  1060   256   255   ar
  1061   259   258    2
  1062   896   897    1
  1063  1056  1058   ar
  1064  1056  1057    1
  1065  2035  2036    1
  1066  2035  2037    1
  1067   556   557   ar
  1068   928   922   ar
  1069   928   918    1
  1070  1936  1946    1
  1071   821   822    1
  1072   821   823   ar
  1073  1910  1912    1
  1074  1910  1908    1
  1075  1958  1969    1
  1076   685   684   ar
  1077   685   687   ar
  1078  1027  1026    1
  1079   572   571    1
  1080   572   577    1
  1081   451   449   ar
  1082   451   452   ar
  1083  1035  1036    2
  1084  1035  1034   ar
  1085  1960  1959   ar
  1086   571   573    1
  1087   899   900   ar
  1088   459   460    1
  1089   258   252   ar
  1090  2026  2025   ar
  1091  2026  2027    1
  1092  1912  1914    1
  1093   824   823   ar
  1094  1908  1906    1
  1095  1908  1909    1
  1096    32    31    1
  1097   449   448   ar
  1098  1458  1456    1
  1099  1485  1484    2
  1100   585   584   ar
  1101   585   578   ar
  1102   922   921   ar
  1103   584   582   ar
  1104   916   917    1
  1105   916   918    1
  1106   916   914    1
  1107    31    33    1
  1108  1033  1034   ar
  1109  1033  1039   ar
  1110  2036  2041    1
  1111   684   690   ar
  1112   795   800   ar
  1113   910   912    1
  1114  2051  2050   ar
  1115  2051  2052   ar
  1116    46    24    1
  1117   919   920   ar
  1118   283   284   ar
  1119   283   280   ar
  1120  1060  1042    2
  1121   266   268    1
  1122  1906  1907    1
  1123  1026  1028    1
  1124  1026  1024    1
  1125   333   317    1
  1126   333   355    1
  1127   333   335    1
  1128   304   298   ar
  1129   304   303   ar
  1130  2074  2055    2
  1131  2050  2047   ar
  1132   903   904    1
  1133   903   902   ar
  1134    24    26    1
  1135    24     7    1
  1136  1431  1433    1
  1137  1431  1429    1
  1138  1484  1486   ar
  1139  1484  1483   ar
  1140   317   316    1
  1141  1042  1025    1
  1142  1042  1061    1
  1143  2037  2038    1
  1144  2037  2039    1
  1145   446   445    1
  1146  2073  2055    1
  1147    26    25    1
  1148   918   913    1
  1149   284   285   ar
  1150   687   688   ar
  1151  2038  2055    1
  1152  1486  1487   ar
  1153    27    25    1
  1154    27    28    1
  1155  1482  1477    1
  1156  1482  1483    1
  1157  1482  1480    1
  1158  1034  1037   ar
  1159   914   912    1
  1160   914   915    1
  1161  1477  1476    1
  1162   453   452    1
  1163   808   809    1
  1164   310   288    2
  1165  1963  1969   ar
  1166  1963  1964   ar
  1167  1454  1456    1
  1168  1454  1452    1
  1169   282   281    2
  1170   794   792    1
  1171   794   804    1
  1172   794   789    1
  1173   798   804   ar
  1174   798   799   ar
  1175  1969  1968   ar
  1176   334   335    1
  1177   334   336    1
  1178   792   790    1
  1179  1483  1490   ar
  1180   460   458    1
  1181  1411  1428    1
  1182  1433  1434    1
  1183   773   772   ar
  1184   773   775   ar
  1185  1946  1945   ar
  1186  1946  1940   ar
  1187   913   912    1
  1188   306   303   ar
  1189   306   307   ar
  1190   452   454   ar
  1191  2055  2057    1
  1192   255   253   ar
  1193  1945  1944   ar
  1194   298   299   ar
  1195  1028  1039    1
  1196  1028  1023    1
  1197  1039  1038   ar
  1198  1025  1024    1
  1199  1907  1905    1
  1200  1487  1488    2
  1201  1487  1489   ar
  1202   772   778   ar
  1203   376   356    2
  1204   578   577    1
  1205   578   579   ar
  1206   573   574    1
  1207   573   575    1
  1208  1959  1965   ar
  1209   577   575    1
  1210  1909  1914    1
  1211   433   432    1
  1212  1481  1480    1
  1213   445   447    1
  1214   445   443    1
  1215   303   302   ar
  1216  1014  1013    2
  1217   393   392    1
  1218   920   921   ar
  1219  1914  1924    1
  1220   900   902   ar
  1221   900   901    2
  1222   582   583    1
  1223   582   581   ar
  1224   312   314    1
  1225   312   313    1
  1226  2052  2041    1
  1227  2052  2046   ar
  1228  1430  1429    1
  1229  1430  1428    1
  1230   252   253   ar
  1231  1456  1457    1
  1232   791   790    1
  1233   791   807    1
  1234   448   447    1
  1235   448   455   ar
  1236  1490  1489   ar
  1237  2041  2039    1
  1238  1450  1428    2
  1239   280   281   ar
  1240   280   279   ar
  1241  1024  1022    1
  1242   690   691    2
  1243   690   689   ar
  1244   800   799   ar
  1245   800   801    1
  1246   607   588    2
  1247   804   803   ar
  1248   789   788    1
  1249   447   442    1
  1250   809   807    1
  1251   314   316    1
  1252   314   315    1
  1253    33    44    1
  1254    33    28    1
  1255   663   662    1
  1256   413   412    1
  1257   574   588    1
  1258   281   275   ar
  1259  1452  1453    1
  1260   377   356    1
  1261   268   269    1
  1262   268   270    1
  1263   269   274    1
  1264   431   432   ar
  1265   431   429   ar
  1266  1480  1478    1
  1267   316   318    1
  1268   319   318    1
  1269  2047  2046   ar
  1270  2047  2048   ar
  1271   253   254    1
  1272  1428  1449    1
  1273   788   790    1
  1274   788   786    1
  1275   775   776   ar
  1276    44    43   ar
  1277    44    38   ar
  1278   915   931    1
  1279   799   802   ar
  1280  1476  1474    1
  1281  1476  1478    1
  1282    43    42   ar
  1283  2039  2040    1
  1284   688   689   ar
  1285   688   694   ar
  1286   682   681    1
  1287  1925  1905    2
  1288     7     6    1
  1289   285   279   ar
  1290   285   274    1
  1291  1434  1451    1
  1292   339   356    1
  1293   339   338    1
  1294   356   358    1
  1295  1037  1038   ar
  1296   336   338    1
  1297   336   337    1
  1298    38    37   ar
  1299    38    39   ar
  1300   951   931    2
  1301  1964  1965   ar
  1302  1964  1967   ar
  1303    37    35   ar
  1304  1453  1451    1
  1305  1940  1939   ar
  1306  1940  1941   ar
  1307   307   308   ar
  1308   575   576    1
  1309    42    39   ar
  1310   432   434   ar
  1311  1968  1967   ar
  1312  1457  1473    1
  1313   288   309    1
  1314   288   271    1
  1315   288   290    1
  1316   588   606    1
  1317   588   590    1
  1318  1944  1941   ar
  1319    39    40   ar
  1320  2049  2048    2
  1321   826   807    2
  1322   454   455   ar
  1323   661   662   ar
  1324   661   667   ar
  1325   480   458    2
  1326   807   825    1
  1327   579   581   ar
  1328   579   580    2
  1329    35    36    1
  1330    35    34   ar
  1331  1917  1918   ar
  1332  1917  1916   ar
  1333  1965  1966    2
  1334  2046  2045   ar
  1335   430   429    2
  1336   458   444    1
  1337   458   479    1
  1338   689   692   ar
  1339   299   300    1
  1340   299   301   ar
  1341  1905  1926    1
  1342  1905  1888    1
  1343  1013  1012   ar
  1344  1013  1015   ar
  1345   313   311    1
  1346  1023  1022    1
  1347  1474  1475    1
  1348   778   779    2
  1349   778   777   ar
  1350  1939  1938   ar
  1351    40    34   ar
  1352    40    41    2
  1353   270   271    1
  1354   270   272    1
  1355   279   278   ar
  1356  1924  1918   ar
  1357  1924  1923   ar
  1358  2057  2056    1
  1359  1022  1020    1
  1360   392   394   ar
  1361   392   391   ar
  1362   318   320    1
  1363   302   308   ar
  1364   302   301   ar
  1365    22     1    1
  1366   332   311    2
  1367   662   664   ar
  1368  2048  2042   ar
  1369   443   444    1
  1370   443   441    1
  1371  1505  1504    2
  1372   338   340    1
  1373   931   952    1
  1374   931   933    1
  1375   429   428   ar
  1376   274   272    1
  1377  1012  1010   ar
  1378   681   683    1
  1379   681   679    1
  1380   315   320    1
  1381  1478  1479    1
  1382   803   802   ar
  1383   668   667    2
  1384   442   441    1
  1385   412   411   ar
  1386   412   414   ar
  1387  1941  1942   ar
  1388  1504  1506   ar
  1389  1504  1503   ar
  1390   683   694    1
  1391   683   678    1
  1392  1451  1472    2
  1393  1451  1471    1
  1394   290   289    1
  1395   694   693   ar
  1396  1918  1919   ar
  1397  1506  1507   ar
  1398   751   750    1
  1399     6     8    1
  1400     6     4    1
  1401   275   276   ar
  1402  1475  1473    1
  1403  1497  1502    1
  1404  1497  1496    1
  1405   776   777   ar
  1406   776   782   ar
  1407   786   787    1
  1408   337   342    1
  1409  1916  1915   ar
  1410   308   297    1
  1411  1502  1503    1
  1412  1502  1500    1
  1413   770   769    1
  1414   787   785    1
  1415   394   395   ar
  1416  1877  1876    1
  1417   667   666   ar
  1418   411   409   ar
  1419  1503  1510   ar
  1420   749   750   ar
  1421   749   755   ar
  1422   391   389   ar
  1423   756   755    2
  1424  1507  1508    1
  1425  1507  1509   ar
  1426   311   331    1
  1427   311   294    1
  1428  1890  1889    1
  1429  2056  2058    1
  1430   320   330    1
  1431   645   644    2
  1432   441   439    1
  1433   777   780   ar
  1434  1888  1887    1
  1435  1015  1016   ar
  1436   434   435   ar
  1437  1875  1876   ar
  1438  1875  1873   ar
  1439   358   357    1
  1440  1473  1492    2
  1441  1473  1491    1
  1442   993   992    2
  1443   272   273    1
  1444  1923  1922   ar
  1445   769   771    1
  1446   769   767    1
  1447  1510  1509   ar
  1448  2045  2043   ar
  1449   603   602    1
  1450   604   602   ar
  1451   604   605   ar
  1452     1     3    1
  1453     1    23    1
  1454   590   589    1
  1455  1479  1493    1
  1456     2     3    1
  1457     2     4    1
  1458  1938  1937   ar
  1459   692   693   ar
  1460   717   697    2
  1461  2071  2072   ar
  1462  2071  2069   ar
  1463   278   276   ar
  1464     8     9    1
  1465     8    10    1
  1466   664   665   ar
  1467   750   752   ar
  1468  1010  1011    2
  1469  1010  1009   ar
  1470   414   415   ar
  1471  1874  1873    2
  1472  2042  2043   ar
  1473  1020  1021    1
  1474   755   754   ar
  1475  1501  1500    1
  1476   397   378    2
  1477     4     5    1
  1478  1876  1878   ar
  1479   276   277    1
  1480   718   697    1
  1481   428   435   ar
  1482   428   427    1
  1483   357   359    1
  1484   340   341    1
  1485   340   342    1
  1486   933   932    1
  1487   948   949   ar
  1488   948   945   ar
  1489  1021  1019    1
  1490  1496  1494    1
  1491  1496  1498    1
  1492   678   677    1
  1493   679   680    1
  1494   679   677    1
  1495   782   771    1
  1496   782   781   ar
  1497   293   294    1
  1498   293   295    1
  1499   293   291    1
  1500   947   946    1
  1501  1942  1937   ar
  1502  1942  1943    1
  1503   352   353   ar
  1504   352   351   ar
  1505   680   697    1
  1506  1919  1922   ar
  1507  1919  1920   ar
  1508  2072  2065   ar
  1509   805   785    2
  1510   638   644   ar
  1511   638   639   ar
  1512   602   601   ar
  1513   342   353    1
  1514  1873  1872   ar
  1515   289   291    1
  1516  1915  1920   ar
  1517   771   766    1
  1518   768   785    1
  1519   768   767    1
  1520   605   598   ar
  1521  1500  1498    1
  1522  2070  2069    2
  1523   644   643   ar
  1524  2043  2044    1
  1525   734   733    1
  1526   697   699    1
  1527   785   806    1
  1528   395   388   ar
  1529   409   410    2
  1530   409   408   ar
  1531   297   295    1
  1532   297   292    1
  1533   623   622    2
  1534  1894  1893    1
  1535  1494  1495    1
  1536   666   665   ar
  1537   666   669   ar
  1538  1889  1887    1
  1539  1889  1891    1
  1540  1016  1009   ar
  1541   992   986   ar
  1542   992   991   ar
  1543   389   388   ar
  1544   389   390    2
  1545   589   591    1
  1546   767   765    1
  1547   949   950   ar
  1548   986   987   ar
  1549   713   712    1
  1550  1887  1885    1
  1551   677   675    1
  1552   295   296    1
  1553  2069  2068   ar
  1554   665   671   ar
  1555   330   329   ar
  1556   330   324   ar
  1557   292   291    1
  1558   780   781   ar
  1559  1009  1008    1
  1560  2058  2059    1
  1561  2058  2060    1
  1562   439   440    1
  1563   353   347   ar
  1564   970   969    2
  1565  1495  1493    1
  1566   714   715   ar
  1567   714   711   ar
  1568  1920  1921    1
  1569   640   639    1
  1570   351   348   ar
  1571   427   425    1
  1572   427   422    1
  1573   440   438    1
  1574  2059  2064    1
  1575   932   934    1
  1576   752   753   ar
  1577   425   426    1
  1578   425   423    1
  1579   415   408   ar
  1580  1493  1512    2
  1581  1493  1511    1
  1582    10     5    1
  1583    10    21    1
  1584   945   946   ar
  1585   945   944   ar
  1586  1498  1499    1
  1587   388   387    1
  1588    21    20   ar
  1589    21    15   ar
  1590   946   941   ar
  1591    20    19   ar
  1592  2060  2061    1
  1593  2060  2062    1
  1594   754   753   ar
  1595   754   757   ar
  1596   639   641   ar
  1597  1895  1893   ar
  1598  1895  1896   ar
  1599    15    14   ar
  1600    15    16   ar
  1601  1885  1886    1
  1602  1885  1883    1
  1603    19    16   ar
  1604  1878  1879   ar
  1605    14    12   ar
  1606   329   328   ar
  1607    16    17   ar
  1608    13    12    1
  1609    12    11   ar
  1610   378   380    1
  1611   378   396    1
  1612   378   362    1
  1613   408   407    1
  1614    17    11   ar
  1615    17    18    2
  1616   323   324   ar
  1617   323   322   ar
  1618  1041  1019    2
  1619  1893  1892   ar
  1620  1891  1886    1
  1621  1891  1902    1
  1622   359   361    1
  1623   359   360    1
  1624  1019  1040    1
  1625  1019  1005    1
  1626   601   599   ar
  1627   988   987    1
  1628   622   624   ar
  1629   622   621   ar
  1630  2065  2064    1
  1631  2065  2066   ar
  1632   592   591    1
  1633   592   597    1
  1634   715   716   ar
  1635  1525  1524    2
  1636   324   325   ar
  1637  1872  1879   ar
  1638  1872  1871    1
  1639   374   373   ar
  1640   374   375   ar
  1641   598   599   ar
  1642   598   597    1
  1643   733   732   ar
  1644   733   735   ar
  1645   669   670   ar
  1646   766   765    1
  1647   643   646   ar
  1648   643   642   ar
  1649   373   370   ar
  1650   987   989   ar
  1651  1006  1008    1
  1652  1006  1004    1
  1653  1006  1007    1
  1654   712   711   ar
  1655   712   707   ar
  1656   753   759   ar
  1657   991   994   ar
  1658   991   990   ar
  1659   591   593    1
  1660   711   710   ar
  1661   624   625   ar
  1662   765   763    1
  1663  1524  1526   ar
  1664  1524  1523   ar
  1665  1526  1527   ar
  1666  1517  1522    1
  1667  1517  1516    1
  1668   950   944   ar
  1669   950   940    1
  1670   380   379    1
  1671   699   698    1
  1672  1008  1003    1
  1673  2068  2066   ar
  1674   361   362    1
  1675   361   363    1
  1676  1499  1513    1
  1677   627   608    2
  1678   671   670   ar
  1679   671   660    1
  1680   935   934    1
  1681   935   940    1
  1682  2064  2062    1
  1683   360   365    1
  1684   732   730   ar
  1685   675   676    1
  1686  1004  1005    1
  1687  1004  1002    1
  1688  1522  1523    1
  1689  1522  1520    1
  1690   969   963   ar
  1691   969   968   ar
  1692   347   348   ar
  1693   347   346   ar
  1694  1523  1530   ar
  1695   423   424    1
  1696   423   421    1
  1697   994   995   ar
  1698   646   647   ar
  1699  1527  1528    1
  1700  1527  1529   ar
  1701   348   349   ar
  1702   422   421    1
  1703   599   600    2
  1704   944   943   ar
  1705   757   758   ar
  1706   934   936    1
  1707  1883  1884    1
  1708   457   438    2
  1709   417   398    2
  1710  1896  1902   ar
  1711  1896  1897   ar
  1712   941   942   ar
  1713   438   424    1
  1714   438   456    1
  1715   593   594    1
  1716   593   595    1
  1717   597   595    1
  1718  2062  2063    1
  1719  1530  1529   ar
  1720  2066  2067    2
  1721  1871  1869    1
  1722  1871  1866    1
  1723  1902  1901   ar
  1724   641   642   ar
  1725   735   736   ar
  1726  1869  1870    1
  1727  1869  1867    1
  1728   328   325   ar
  1729   971   968   ar
  1730   971   972   ar
  1731   322   321   ar
  1732   387   382    1
  1733   387   385    1
  1734   975   953    2
  1735   621   619   ar
  1736  1892  1898   ar
  1737   642   648   ar
  1738   676   674    1
  1739   660   658    1
  1740   660   655    1
  1741   658   659    1
  1742   658   656    1
  1743   325   326   ar
  1744   940   938    1
  1745   707   708   ar
  1746   407   405    1
  1747   407   402    1
  1748   963   964   ar
  1749   990   989   ar
  1750   990   996   ar
  1751   375   365    1
  1752   375   369   ar
  1753   698   700    1
  1754  1003  1002    1
  1755   968   967   ar
  1756   716   710   ar
  1757   716   706    1
  1758   936   938    1
  1759   936   937    1
  1760  1516  1514    1
  1761  1516  1518    1
  1762  1521  1520    1
  1763   382   381    1
  1764   370   371   ar
  1765   370   369   ar
  1766   763   764    1
  1767   710   709   ar
  1768   759   758   ar
  1769   759   748    1
  1770   625   618   ar
  1771   421   419    1
  1772  1514  1515    1
  1773   594   608    1
  1774   346   344   ar
  1775   365   363    1
  1776   372   371    1
  1777   437   418    2
  1778   385   383    1
  1779   385   386    1
  1780   383   381    1
  1781   383   384    1
  1782   405   403    1
  1783   405   406    1
  1784  1002  1000    1
  1785   379   381    1
  1786   608   626    1
  1787   608   610    1
  1788   595   596    1
  1789   701   700    1
  1790   701   706    1
  1791  1884  1882    1
  1792  1520  1518    1
  1793   730   731    2
  1794   730   729   ar
  1795   363   364    1
  1796   420   419    1
  1797   420   418    1
  1798   942   943   ar
  1799   995   996   ar
  1800  1515  1513    1
  1801  1904  1882    2
  1802   647   648   ar
  1803   349   350    2
  1804   349   343   ar
  1805  1000  1001    1
  1806  1513  1531    2
  1807  1513  1532    1
  1808  1897  1898   ar
  1809  1897  1900   ar
  1810   402   401    1
  1811   972   973   ar
  1812   400   398    1
  1813   400   399    1
  1814   398   384    1
  1815   398   416    1
  1816   938   939    1
  1817   371   366   ar
  1818   937   953    1
  1819   369   368   ar
  1820   321   326   ar
  1821  1901  1900   ar
  1822  1866  1865    1
  1823  1867  1868    1
  1824  1867  1865    1
  1825  1898  1899    2
  1826   736   729   ar
  1827   648   637    1
  1828   403   401    1
  1829   403   404    1
  1830   700   702    1
  1831   996   985    1
  1832   326   327    1
  1833   619   618   ar
  1834   619   620    2
  1835   706   704    1
  1836   953   955    1
  1837   953   974    1
  1838   708   709   ar
  1839   656   657    1
  1840   656   654    1
  1841   748   746    1
  1842   748   743    1
  1843  1518  1519    1
  1844   655   654    1
  1845   618   617    1
  1846   764   762    1
  1847   746   747    1
  1848   746   744    1
  1849   418   404    1
  1850   418   436    1
  1851   610   609    1
  1852   964   965    1
  1853   964   966   ar
  1854  1882  1868    1
  1855  1882  1903    1
  1856   967   973   ar
  1857   967   966   ar
  1858   674   657    1
  1859   674   696    2
  1860   674   695    1
  1861   729   728    1
  1862   344   343   ar
  1863   344   345    1
  1864  1001   999    1
  1865   702   704    1
  1866   702   703    1
  1867   738   719    2
  1868   401   399    1
  1869  1865  1863    1
  1870   973   962    1
  1871   955   954    1
  1872  1881  1862    2
  1873   654   652    1
  1874  1519  1533    1
  1875   784   762    2
  1876   704   705    1
  1877   366   367   ar
  1878   368   367   ar
  1879  1864  1863    1
  1880  1864  1862    1
  1881   637   635    1
  1882   637   632    1
  1883   985   983    1
  1884   985   980    1
  1885   743   742    1
  1886   983   981    1
  1887   983   984    1
  1888   744   745    1
  1889   744   742    1
  1890   762   745    1
  1891   762   783    1
  1892   650   628    2
  1893   612   617    1
  1894   612   611    1
  1895   998   976    2
  1896   617   615    1
  1897   609   611    1
  1898   703   719    1
  1899  1848  1847    1
  1900   635   633    1
  1901   635   636    1
  1902   728   726    1
  1903   728   723    1
  1904   719   721    1
  1905   719   737    1
  1906   653   652    1
  1907   653   651    1
  1908  1862  1846    1
  1909  1862  1880    1
  1910   981   982    1
  1911   981   979    1
  1912   999  1018    2
  1913   999  1017    1
  1914   999   982    1
  1915  1541  1540    1
  1916   721   720    1
  1917   613   611    1
  1918   613   615    1
  1919   613   614    1
  1920   632   631    1
  1921   980   979    1
  1922   962   957    1
  1923   962   960    1
  1924   954   956    1
  1925   673   651    2
  1926   742   740    1
  1927   957   956    1
  1928  1846  1845    1
  1929  1537  1542    1
  1930  1537  1536    1
  1931   726   724    1
  1932   726   727    1
  1933   615   616    1
  1934  1535  1533    1
  1935  1535  1534    1
  1936   633   631    1
  1937   633   634    1
  1938   978   976    1
  1939   978   977    1
  1940   723   722    1
  1941  1533  1554    2
  1942  1533  1555    1
  1943   958   956    1
  1944   958   960    1
  1945   958   959    1
  1946   630   628    1
  1947   630   629    1
  1948  1542  1540    1
  1949  1542  1553    1
  1950   761   739    2
  1951   741   740    1
  1952   741   739    1
  1953  1847  1845    1
  1954  1847  1849    1
  1955   628   614    1
  1956   628   649    1
  1957   976   959    1
  1958   976   997    1
  1959  1536  1534    1
  1960  1536  1538    1
  1961   960   961    1
  1962   724   722    1
  1963   724   725    1
  1964   651   634    1
  1965   651   672    1
  1966   979   977    1
  1967  1540  1538    1
  1968   631   629    1
  1969   720   722    1
  1970  1845  1843    1
  1971   739   725    1
  1972   739   760    1
  1973  1852  1851   ar
  1974  1852  1853   ar
  1975  1553  1547   ar
  1976  1553  1552   ar
  1977  1851  1850   ar
  1978  1538  1539    1
  1979  1546  1547   ar
  1980  1546  1544   ar
  1981  1849  1859    1
  1982  1849  1844    1
  1983  1539  1556    1
  1984  1547  1548   ar
  1985  1843  1844    1
  1986  1843  1841    1
  1987  1552  1551   ar
  1988  1545  1544    1
  1989  1544  1543   ar
  1990  1850  1855   ar
  1991  1853  1859   ar
  1992  1853  1854   ar
  1993  1859  1858   ar
  1994  1557  1559    1
  1995  1557  1558    1
  1996  1548  1551   ar
  1997  1548  1549   ar
  1998  1841  1842    1
  1999  1560  1559    1
  2000  1560  1565    1
  2001  1577  1556    2
  2002  1855  1854   ar
  2003  1855  1856    1
  2004  1854  1857   ar
  2005  1543  1549   ar
  2006  1556  1558    1
  2007  1556  1578    1
  2008  1559  1561    1
  2009  1858  1857   ar
  2010  1549  1550    2
  2011  1842  1840    1
  2012  1565  1576    1
  2013  1565  1563    1
  2014  1829  1828   ar
  2015  1829  1830   ar
  2016  1564  1563    1
  2017  1561  1562    1
  2018  1561  1563    1
  2019  1575  1576   ar
  2020  1575  1574   ar
  2021  1576  1570   ar
  2022  1828  1833   ar
  2023  1860  1840    2
  2024  1562  1579    1
  2025  1826  1825    1
  2026  1830  1831   ar
  2027  1840  1861    1
  2028  1840  1824    1
  2029  1574  1571   ar
  2030  1825  1823    1
  2031  1825  1827    1
  2032  1570  1569   ar
  2033  1570  1571   ar
  2034  1833  1834    1
  2035  1833  1832   ar
  2036  1831  1832   ar
  2037  1831  1837   ar
  2038  1824  1823    1
  2039  1569  1567   ar
  2040  1571  1572   ar
  2041  1597  1579    2
  2042  1832  1835   ar
  2043  1579  1598    1
  2044  1579  1581    1
  2045  1823  1821    1
  2046  1827  1837    1
  2047  1827  1822    1
  2048  1837  1836   ar
  2049  1567  1566   ar
  2050  1567  1568    1
  2051  1572  1566   ar
  2052  1572  1573    2
  2053  1580  1581    1
  2054  1580  1582    1
  2055  1835  1836   ar
  2056  1821  1822    1
  2057  1821  1819    1
  2058  1583  1582    1
  2059  1583  1588    1
  2060  1582  1584    1
  2061  1596  1595   ar
  2062  1596  1589   ar
  2063  1595  1593   ar
  2064  1588  1589    1
  2065  1588  1586    1
  2066  1819  1820    1
  2067  1589  1590   ar
  2068  1820  1818    1
  2069  1593  1594    1
  2070  1593  1592   ar
  2071  1584  1586    1
  2072  1584  1585    1
  2073  1813  1812    1
  2074  1811  1812   ar
  2075  1811  1809   ar
  2076  1810  1809    2
  2077  1590  1592   ar
  2078  1590  1591    2
  2079  1586  1587    1
  2080  1812  1814   ar
  2081  1809  1808   ar
  2082  1585  1599    1
  2083  1839  1818    2
  2084  1818  1838    1
  2085  1818  1804    1
  2086  1805  1806    1
  2087  1805  1803    1
  2088  1805  1807    1
  2089  1814  1815   ar
  2090  1618  1599    2
  2091  1808  1815   ar
  2092  1808  1807    1
  2093  1599  1617    1
  2094  1599  1601    1
  2095  1792  1791    2
  2096  1804  1803    1
  2097  1803  1801    1
  2098  1807  1802    1
  2099  1785  1791   ar
  2100  1785  1786   ar
  2101  1791  1790   ar
  2102  1601  1600    1
  2103  1787  1786    1
  2104  1615  1616   ar
  2105  1615  1613   ar
  2106  1786  1788   ar
  2107  1614  1613    1
  2108  1600  1602    1
  2109  1616  1609   ar
  2110  1802  1801    1
  2111  1801  1799    1
  2112  1613  1612   ar
  2113  1790  1793   ar
  2114  1790  1789   ar
  2115  1603  1602    1
  2116  1603  1608    1
  2117  1800  1799    1
  2118  1800  1798    1
  2119  1817  1798    2
  2120  1793  1794   ar
  2121  1788  1789   ar
  2122  1609  1608    1
  2123  1609  1610   ar
  2124  1602  1604    1
  2125  1789  1795   ar
  2126  1612  1610   ar
  2127  1769  1768    2
  2128  1608  1606    1
  2129  1798  1816    1
  2130  1798  1781    1
  2131  1610  1611    2
  2132  1794  1795   ar
  2133  1795  1784    1
  2134  1604  1606    1
  2135  1604  1605    1
  2136  1751  1729    2
  2137  1768  1762   ar
  2138  1768  1767   ar
  2139  1782  1780    1
  2140  1782  1784    1
  2141  1782  1783    1
  2142  1606  1607    1
  2143  1634  1633    1
  2144  1746  1745    2
  2145  1762  1763   ar
  2146  1727  1707    2
  2147  1780  1781    1
  2148  1780  1778    1
  2149  1750  1729    1
  2150  1797  1775    2
  2151  1638  1619    2
  2152  1774  1752    2
  2153  1784  1779    1
  2154  1770  1767   ar
  2155  1770  1771   ar
  2156  1605  1619    1
  2157  1767  1766   ar
  2158  1729  1731    1
  2159  1729  1713    1
  2160  1656  1655    2
  2161  1747  1744   ar
  2162  1747  1748   ar
  2163  1635  1633   ar
  2164  1635  1636   ar
  2165  1633  1632   ar
  2166  1777  1775    1
  2167  1777  1776    1
  2168  1745  1744   ar
  2169  1745  1739   ar
  2170  1763  1764    1
  2171  1763  1765   ar
  2172  1731  1730    1
  2173  1619  1637    1
  2174  1619  1621    1
  2175  1779  1778    1
  2176  1775  1796    1
  2177  1775  1758    1
  2178  1744  1743   ar
  2179  1707  1728    1
  2180  1707  1709    1
  2181  1707  1690    1
  2182  1748  1749   ar
  2183  1771  1772   ar
  2184  1778  1776    1
  2185  1766  1765   ar
  2186  1766  1772   ar
  2187  1636  1629   ar
  2188  1655  1649   ar
  2189  1655  1654   ar
  2190  1713  1712    1
  2191  1752  1773    1
  2192  1752  1754    1
  2193  1752  1735    1
  2194  1632  1630   ar
  2195  1730  1732    1
  2196  1739  1740   ar
  2197  1649  1650   ar
  2198  1708  1709    1
  2199  1708  1710    1
  2200  1772  1761    1
  2201  1754  1753    1
  2202  1621  1620    1
  2203  1690  1689    1
  2204  1734  1735    1
  2205  1734  1732    1
  2206  1734  1736    1
  2207  1743  1749   ar
  2208  1743  1742   ar
  2209  1749  1738    1
  2210  1657  1654   ar
  2211  1657  1658   ar
  2212  1654  1653   ar
  2213  1629  1630   ar
  2214  1629  1628    1
  2215  1757  1758    1
  2216  1757  1759    1
  2217  1757  1755    1
  2218  1712  1710    1
  2219  1712  1714    1
  2220  1630  1631    2
  2221  1732  1733    1
  2222  1710  1711    1
  2223  1759  1761    1
  2224  1759  1760    1
  2225  1740  1742   ar
  2226  1740  1741    1
  2227  1623  1628    1
  2228  1623  1622    1
  2229  1620  1622    1
  2230  1685  1686    1
  2231  1685  1687    1
  2232  1650  1651    1
  2233  1650  1652   ar
  2234  1733  1738    1
  2235  1761  1756    1
  2236  1753  1755    1
  2237  1736  1738    1
  2238  1736  1737    1
  2239  1705  1684    2
  2240  1689  1687    1
  2241  1689  1691    1
  2242  1628  1626    1
  2243  1686  1684    1
  2244  1755  1756    1
  2245  1658  1659   ar
  2246  1653  1652   ar
  2247  1653  1659   ar
  2248  1687  1688    1
  2249  1622  1624    1
  2250  1714  1715    1
  2251  1714  1716    1
  2252  1711  1716    1
  2253  1684  1706    1
  2254  1684  1668    1
  2255  1659  1648    1
  2256  1624  1626    1
  2257  1624  1625    1
  2258  1692  1691    1
  2259  1691  1693    1
  2260  1661  1639    2
  2261  1725  1726   ar
  2262  1725  1724   ar
  2263  1626  1627    1
  2264  1716  1726    1
  2265  1688  1693    1
  2266  1726  1720   ar
  2267  1724  1721   ar
  2268  1668  1667    1
  2269  1625  1639    1
  2270  1648  1643    1
  2271  1648  1646    1
  2272  1693  1704    1
  2273  1639  1641    1
  2274  1639  1660    1
  2275  1643  1642    1
  2276  1641  1640    1
  2277  1720  1721   ar
  2278  1720  1719   ar
  2279  1721  1722   ar
  2280  1704  1703   ar
  2281  1704  1698   ar
  2282  1703  1702   ar
  2283  1646  1644    1
  2284  1646  1647    1
  2285  1667  1669    1
  2286  1667  1665    1
  2287  1719  1718   ar
  2288  1670  1669    1
  2289  1644  1642    1
  2290  1644  1645    1
  2291  1640  1642    1
  2292  1722  1723    1
  2293  1722  1717   ar
  2294  1698  1697   ar
  2295  1698  1699   ar
  2296  1702  1699   ar
  2297  1669  1671    1
  2298  1697  1695   ar
  2299  1663  1665    1
  2300  1663  1664    1
  2301  1665  1666    1
  2302  1664  1662    1
  2303  1699  1700   ar
  2304  1718  1717   ar
  2305  1683  1662    2
  2306  1695  1696    1
  2307  1695  1694   ar
  2308  1645  1662    1
  2309  1662  1682    1
  2310  1700  1694   ar
  2311  1700  1701    2
  2312  1671  1666    1
  2313  1671  1681    1
  2314  1681  1675   ar
  2315  1681  1680   ar
  2316  1674  1675   ar
  2317  1674  1673   ar
  2318  1675  1676   ar
  2319  1680  1679   ar
  2320  1673  1672   ar
  2321  1676  1679   ar
  2322  1676  1677   ar
  2323  1672  1677   ar
  2324  1677  1678    1
