@<TRIPOS>MOLECULE
4FEL_rdock.pdb
 1425 1593 0 0 0
SMALL
GASTEIGER

@<TRIPOS>ATOM
      1  C5'        4.4310    4.2900   20.8890 C.3    15  G15         0.2141
      2  O5'        3.3840    4.0440   19.9450 O.3    15  G15        -0.2176
      3  C4'        4.6690    3.1160   21.8100 C.3    15  G15         0.1802
      4  O4'        3.3920    2.6830   22.3550 O.3    15  G15        -0.3306
      5  C3'        5.2600    1.8760   21.1510 C.3    15  G15         0.1861
      6  O3'        6.6810    1.9060   21.1940 O.3    15  G15        -0.3112
      7  C2'        4.7120    0.7530   22.0230 C.3    15  G15         0.2309
      8  O2'        5.4280    0.5730   23.2290 O.3    15  G15        -0.2156
      9  C1'        3.3060    1.2700   22.3150 C.3    15  G15         0.2408
     10  N1         1.2700   -2.5500   19.6910 N.ar   15  G15        -0.1709
     11  C2         2.2430   -2.5760   20.6610 C.ar   15  G15         0.2606
     12  N2         2.7320   -3.7810   20.9780 N.pl3  15  G15        -0.0859
     13  N3         2.7010   -1.4990   21.2740 N.ar   15  G15        -0.1918
     14  C4         2.1020   -0.3740   20.8310 C.ar   15  G15         0.1723
     15  C5         1.1250   -0.2380   19.8670 C.ar   15  G15         0.1748
     16  C6         0.6390   -1.4020   19.2200 C.ar   15  G15         0.3023
     17  O6        -0.2290   -1.4910   18.3430 O.2    15  G15        -0.2633
     18  N7         0.7780    1.0950   19.7010 N.ar   15  G15        -0.2173
     19  C8         1.5310    1.7320   20.5560 C.ar   15  G15         0.1817
     20  N9         2.3530    0.8980   21.2760 N.ar   15  G15        -0.2693
     21  P          7.5240    1.2560   19.9920 P.3    16  G16         0.2141
     22  C5'        7.0920   -1.2920   20.4640 C.3    16  G16         0.1812
     23  O5'        6.7830   -0.1260   19.7060 O.3    16  G16        -0.3114
     24  C4'        6.7540   -2.5340   19.6740 C.3    16  G16         0.1773
     25  O4'        5.3110   -2.7070   19.6460 O.3    16  G16        -0.3307
     26  C3'        7.1470   -2.5070   18.2060 C.3    16  G16         0.1860
     27  O3'        8.5060   -2.8880   18.0300 O.3    16  G16        -0.3112
     28  C2'        6.2040   -3.5450   17.6130 C.3    16  G16         0.2309
     29  O2'        6.6450   -4.8690   17.8340 O.3    16  G16        -0.2156
     30  C1'        4.9230   -3.2770   18.4050 C.3    16  G16         0.2408
     31  N1         1.1260   -2.7610   15.0690 N.ar   16  G16        -0.1709
     32  C2         1.7720   -3.8980   15.4850 C.ar   16  G16         0.2606
     33  N2         1.3550   -5.0460   14.9340 N.pl3  16  G16        -0.0859
     34  N3         2.7550   -3.9100   16.3720 N.ar   16  G16        -0.1918
     35  C4         3.0490   -2.6680   16.8150 C.ar   16  G16         0.1723
     36  C5         2.4680   -1.4680   16.4610 C.ar   16  G16         0.1748
     37  C6         1.4100   -1.4720   15.5100 C.ar   16  G16         0.3023
     38  O6         0.7610   -0.5120   15.0690 O.2    16  G16        -0.2633
     39  N7         3.0590   -0.4140   17.1450 N.ar   16  G16        -0.2173
     40  C8         3.9710   -0.9810   17.8880 C.ar   16  G16         0.1817
     41  N9         4.0200   -2.3460   17.7340 N.ar   16  G16        -0.2693
     42  OP1        8.8950    0.9660   20.4860 O.3    16  G16        -0.4373
     43  OP2        7.3410    2.1240   18.7980 O.co2  16  G16        -0.5172
     44  P          9.3030   -2.4090   16.7170 P.3    17  A17         0.2141
     45  C5'        8.6320   -4.7270   15.6870 C.3    17  A17         0.1812
     46  O5'        8.7010   -3.3130   15.5500 O.3    17  A17        -0.3114
     47  C4'        7.7160   -5.3080   14.6390 C.3    17  A17         0.1773
     48  O4'        6.3350   -4.9760   14.9490 O.3    17  A17        -0.3307
     49  C3'        7.9070   -4.7640   13.2340 C.3    17  A17         0.1860
     50  O3'        8.9840   -5.4320   12.5930 O.3    17  A17        -0.3112
     51  C2'        6.5680   -5.1030   12.5900 C.3    17  A17         0.2309
     52  O2'        6.4720   -6.4560   12.1960 O.3    17  A17        -0.2156
     53  C1'        5.6010   -4.8280   13.7420 C.3    17  A17         0.2408
     54  N1         2.1280   -1.7120   11.5920 N.ar   17  A17        -0.2040
     55  C2         2.3860   -3.0140   11.4350 C.ar   17  A17         0.2016
     56  N3         3.3030   -3.7700   12.0350 N.ar   17  A17        -0.2048
     57  C4         4.0250   -3.0400   12.9030 C.ar   17  A17         0.1692
     58  C5         3.8780   -1.6910   13.1750 C.ar   17  A17         0.1518
     59  C6         2.8720   -1.0070   12.4730 C.ar   17  A17         0.1919
     60  N6         2.6150    0.2930   12.6290 N.pl3  17  A17        -0.1054
     61  N7         4.7990   -1.2800   14.1270 N.ar   17  A17        -0.2193
     62  C8         5.4740   -2.3700   14.4040 C.ar   17  A17         0.1816
     63  N9         5.0620   -3.4710   13.6950 N.ar   17  A17        -0.2693
     64  OP1       10.7380   -2.7570   16.8820 O.3    17  A17        -0.4373
     65  OP2        8.9150   -1.0010   16.4440 O.co2  17  A17        -0.5172
     66  P          9.9460   -4.6180   11.5960 P.3    18  C18         0.2141
     67  C5'        8.4500   -3.7740    9.6390 C.3    18  C18         0.1812
     68  O5'        9.2570   -4.8020   10.1750 O.3    18  C18        -0.3114
     69  C4'        7.4790   -4.3310    8.6330 C.3    18  C18         0.1773
     70  O4'        6.1580   -4.3860    9.2430 O.3    18  C18        -0.3307
     71  C3'        7.3380   -3.4240    7.4200 C.3    18  C18         0.1860
     72  O3'        8.1510   -3.8830    6.3560 O.3    18  C18        -0.3112
     73  C2'        5.8460   -3.4620    7.1100 C.3    18  C18         0.2309
     74  O2'        5.4450   -4.5440    6.2970 O.3    18  C18        -0.2156
     75  C1'        5.2600   -3.5710    8.5130 C.3    18  C18         0.2420
     76  N1         5.1890   -2.2570    9.1700 N.ar   18  C18        -0.2535
     77  C2         4.1620   -1.3930    8.8090 C.ar   18  C18         0.3532
     78  O2         3.3250   -1.7790    7.9750 O.2    18  C18        -0.2443
     79  N3         4.0980   -0.1680    9.3770 N.ar   18  C18        -0.1739
     80  C4         5.0060    0.1950   10.2870 C.ar   18  C18         0.1759
     81  N4         4.9000    1.4080   10.8280 N.pl3  18  C18        -0.1070
     82  C5         6.0610   -0.6750   10.6840 C.ar   18  C18         0.0566
     83  C6         6.1130   -1.8800   10.1060 C.ar   18  C18         0.0850
     84  OP1       11.2620   -5.2980   11.5530 O.2    18  C18        -0.5172
     85  OP2        9.8700   -3.1760   11.9630 O.co2  18  C18        -0.4373
     86  P          8.9980   -2.8210    5.5110 P.3    19  A19         0.2141
     87  C5'        6.9360   -2.5690    3.9230 C.3    19  A19         0.1812
     88  O5'        7.8700   -1.9520    4.7990 O.3    19  A19        -0.3114
     89  C4'        5.9240   -1.5590    3.4520 C.3    19  A19         0.1773
     90  O4'        5.0560   -1.1850    4.5550 O.3    19  A19        -0.3307
     91  C3'        6.5080   -0.2300    3.0110 C.3    19  A19         0.1860
     92  O3'        7.0100   -0.3210    1.6880 O.3    19  A19        -0.3112
     93  C2'        5.2830    0.6670    3.0940 C.3    19  A19         0.2309
     94  O2'        4.3960    0.4560    2.0120 O.3    19  A19        -0.2156
     95  C1'        4.6520    0.1670    4.3940 C.3    19  A19         0.2408
     96  N1         3.9340    4.4240    7.1700 N.ar   19  A19        -0.2040
     97  C2         3.3970    3.9970    6.0250 C.ar   19  A19         0.2016
     98  N3         3.6470    2.8860    5.3420 N.ar   19  A19        -0.2048
     99  C4         4.5830    2.1480    5.9630 C.ar   19  A19         0.1692
    100  C5         5.2330    2.4580    7.1420 C.ar   19  A19         0.1518
    101  C6         4.8720    3.6610    7.7690 C.ar   19  A19         0.1919
    102  N6         5.3980    4.0840    8.9180 N.pl3  19  A19        -0.1054
    103  N7         6.1430    1.4640    7.4770 N.ar   19  A19        -0.2193
    104  C8         6.0140    0.5820    6.5140 C.ar   19  A19         0.1816
    105  N9         5.0770    0.9260    5.5720 N.ar   19  A19        -0.2693
    106  OP1        9.7540   -3.5450    4.4580 O.2    19  A19        -0.5172
    107  OP2        9.7200   -1.9410    6.4680 O.co2  19  A19        -0.4373
    108  P          8.2400    0.6090    1.2380 P.3    20  U20         0.2141
    109  C5'        6.5510    2.2820    0.1640 C.3    20  U20         0.1812
    110  O5'        7.5890    2.0540    1.1090 O.3    20  U20        -0.3114
    111  C4'        5.9440    3.6440    0.3710 C.3    20  U20         0.1773
    112  O4'        5.3040    3.7110    1.6730 O.3    20  U20        -0.3307
    113  C3'        6.9360    4.7860    0.4300 C.3    20  U20         0.1860
    114  O3'        7.3780    5.1190   -0.8720 O.3    20  U20        -0.3112
    115  C2'        6.0920    5.8660    1.0910 C.3    20  U20         0.2309
    116  O2'        5.1380    6.4600    0.2250 O.3    20  U20        -0.2156
    117  C1'        5.3680    5.0440    2.1590 C.3    20  U20         0.2420
    118  N1         6.0830    5.0320    3.4420 N.ar   20  U20        -0.2534
    119  C2         5.8470    6.0760    4.3050 C.ar   20  U20         0.3546
    120  O2         5.1080    7.0030    4.0300 O.2    20  U20        -0.2443
    121  N3         6.5130    6.0040    5.5020 N.ar   20  U20        -0.1530
    122  C4         7.3840    5.0140    5.9100 C.ar   20  U20         0.2846
    123  O4         7.8360    5.0450    7.0520 O.2    20  U20        -0.2650
    124  C5         7.5980    3.9760    4.9460 C.ar   20  U20         0.0814
    125  C6         6.9510    4.0200    3.7720 C.ar   20  U20         0.0870
    126  OP1        8.6400    0.1930   -0.1260 O.2    20  U20        -0.5172
    127  OP2        9.2470    0.6180    2.3360 O.co2  20  U20        -0.4373
    128  P          8.8610    5.6930   -1.0880 P.3    21  A21         0.2141
    129  C5'        8.2360    8.2020   -0.6850 C.3    21  A21         0.1812
    130  O5'        8.8650    7.0210   -0.2150 O.3    21  A21        -0.3114
    131  C4'        8.4020    9.3100    0.3170 C.3    21  A21         0.1773
    132  O4'        7.8340    8.8970    1.5850 O.3    21  A21        -0.3307
    133  C3'        9.8280    9.6510    0.7190 C.3    21  A21         0.1860
    134  O3'       10.4650   10.4480   -0.2750 O.3    21  A21        -0.3112
    135  C2'        9.6030   10.4200    2.0220 C.3    21  A21         0.2309
    136  O2'        9.2830   11.7840    1.8620 O.3    21  A21        -0.2156
    137  C1'        8.3820    9.7010    2.6100 C.3    21  A21         0.2408
    138  N1         8.9150    9.5290    7.7020 N.ar   21  A21        -0.2040
    139  C2         8.3910   10.4560    6.8740 C.ar   21  A21         0.2016
    140  N3         8.2540   10.4130    5.5460 N.ar   21  A21        -0.2048
    141  C4         8.7200    9.2500    5.0590 C.ar   21  A21         0.1692
    142  C5         9.2820    8.2110    5.7770 C.ar   21  A21         0.1518
    143  C6         9.3840    8.3750    7.1700 C.ar   21  A21         0.1919
    144  N6         9.9210    7.4600    7.9820 N.pl3  21  A21        -0.1054
    145  N7         9.6420    7.1720    4.9350 N.ar   21  A21        -0.2193
    146  C8         9.3020    7.6030    3.7420 C.ar   21  A21         0.1816
    147  N9         8.7670    8.8620    3.7410 N.ar   21  A21        -0.2693
    148  OP1        8.9760    6.0560   -2.5200 O.2    21  A21        -0.5172
    149  OP2        9.8340    4.7510   -0.4880 O.co2  21  A21        -0.4373
    150  P         11.7500    9.8730   -1.0470 P.3    22  U22         0.2141
    151  C5'       14.0560    9.1360    0.0220 C.3    22  U22         0.1812
    152  O5'       12.9000    9.9760    0.0530 O.3    22  U22        -0.3114
    153  C4'       14.5890    8.9430    1.4260 C.3    22  U22         0.1773
    154  O4'       14.9540   10.2530    1.9540 O.3    22  U22        -0.3307
    155  C3'       13.5630    8.3660    2.4000 C.3    22  U22         0.1860
    156  O3'       14.1750    7.5850    3.4280 O.3    22  U22        -0.3112
    157  C2'       12.9510    9.6260    3.0050 C.3    22  U22         0.2309
    158  O2'       12.3540    9.4050    4.2670 O.3    22  U22        -0.2156
    159  C1'       14.1770   10.5420    3.1040 C.3    22  U22         0.2420
    160  N1        13.8240   11.9700    3.0840 N.ar   22  U22        -0.2534
    161  C2        14.0600   12.7180    4.2310 C.ar   22  U22         0.3546
    162  O2        14.6140   12.2630    5.2230 O.2    22  U22        -0.2443
    163  N3        13.6310   14.0150    4.1700 N.ar   22  U22        -0.1530
    164  C4        13.0210   14.6410    3.1020 C.ar   22  U22         0.2846
    165  O4        12.6250   15.7950    3.2260 O.2    22  U22        -0.2650
    166  C5        12.8560   13.8210    1.9480 C.ar   22  U22         0.0814
    167  C6        13.2540   12.5450    1.9780 C.ar   22  U22         0.0870
    168  OP1       12.0630   10.8330   -2.1350 O.2    22  U22        -0.5172
    169  OP2       11.5070    8.4380   -1.3750 O.co2  22  U22        -0.4373
    170  P         14.6160    6.0590    3.1540 P.3    23  A23         0.2141
    171  C5'       17.0560    6.8700    3.6160 C.3    23  A23         0.1812
    172  O5'       16.1550    6.1580    2.7770 O.3    23  A23        -0.3114
    173  C4'       18.2980    7.2270    2.8450 C.3    23  A23         0.1773
    174  O4'       17.9050    7.8170    1.5840 O.3    23  A23        -0.3307
    175  C3'       19.1800    8.2850    3.4850 C.3    23  A23         0.1860
    176  O3'       20.0890    7.6640    4.3900 O.3    23  A23        -0.3112
    177  C2'       19.9450    8.8330    2.2790 C.3    23  A23         0.2309
    178  O2'       21.0680    8.0320    1.9880 O.3    23  A23        -0.2156
    179  C1'       18.9110    8.7040    1.1510 C.3    23  A23         0.2408
    180  N1        17.0290   13.2530    2.6860 N.ar   23  A23        -0.2040
    181  C2        17.5980   12.2460    3.3590 C.ar   23  A23         0.2016
    182  N3        18.0610   11.0810    2.9050 N.ar   23  A23        -0.2048
    183  C4        17.9010   10.9940    1.5740 C.ar   23  A23         0.1692
    184  C5        17.3340   11.9430    0.7460 C.ar   23  A23         0.1518
    185  C6        16.8740   13.1230    1.3470 C.ar   23  A23         0.1919
    186  N6        16.2960   14.1170    0.6720 N.pl3  23  A23        -0.1054
    187  N7        17.3450   11.5120   -0.5710 N.ar   23  A23        -0.2193
    188  C8        17.9010   10.3290   -0.5110 C.ar   23  A23         0.1816
    189  N9        18.2650    9.9540    0.7560 N.ar   23  A23        -0.2693
    190  OP1       13.9050    5.5190    1.9670 O.2    23  A23        -0.5172
    191  OP2       14.5060    5.3530    4.4610 O.co2  23  A23        -0.4373
    192  P         19.8950    7.8470    5.9750 P.3    24  A24         0.2141
    193  C5'       19.6450   10.4740    5.9280 C.3    24  A24         0.1812
    194  O5'       20.4160    9.3270    6.2810 O.3    24  A24        -0.3114
    195  C4'       19.3730   11.3230    7.1480 C.3    24  A24         0.1773
    196  O4'       18.4280   10.6380    8.0010 O.3    24  A24        -0.3307
    197  C3'       20.5460   11.5970    8.0770 C.3    24  A24         0.1860
    198  O3'       21.3410   12.6830    7.6130 O.3    24  A24        -0.3112
    199  C2'       19.8300   11.9900    9.3650 C.3    24  A24         0.2309
    200  O2'       19.3830   13.3310    9.3810 O.3    24  A24        -0.2156
    201  C1'       18.6120   11.0630    9.3360 C.3    24  A24         0.2408
    202  N1        18.9300    9.1940   14.1060 N.ar   24  A24        -0.2040
    203  C2        18.8690   10.4530   13.6320 C.ar   24  A24         0.2016
    204  N3        18.8150   10.8770   12.3740 N.ar   24  A24        -0.2048
    205  C4        18.8270    9.8370   11.5330 C.ar   24  A24         0.1692
    206  C5        18.8850    8.4970   11.8680 C.ar   24  A24         0.1518
    207  C6        18.9330    8.1800   13.2260 C.ar   24  A24         0.1919
    208  N6        18.9770    6.9280   13.6830 N.pl3  24  A24        -0.1054
    209  N7        18.8730    7.7050   10.7340 N.ar   24  A24        -0.2193
    210  C8        18.8060    8.5670    9.7510 C.ar   24  A24         0.1816
    211  N9        18.7570    9.8740   10.1640 N.ar   24  A24        -0.2693
    212  OP1       20.8470    6.8770    6.5990 O.3    24  A24        -0.4373
    213  OP2       18.4480    7.7650    6.2980 O.co2  24  A24        -0.5172
    214  P         22.8570   12.4230    7.1420 P.3    25  A25         0.2141
    215  C5'       22.7840   13.0160    4.6090 C.3    25  A25         0.1812
    216  O5'       22.7020   12.0210    5.6170 O.3    25  A25        -0.3114
    217  C4'       22.4660   12.4150    3.2680 C.3    25  A25         0.1773
    218  O4'       21.0350   12.5060    3.0060 O.3    25  A25        -0.3307
    219  C3'       23.0880   13.1410    2.0900 C.3    25  A25         0.1860
    220  O3'       24.4390   12.7280    1.9100 O.3    25  A25        -0.3112
    221  C2'       22.2040   12.6540    0.9550 C.3    25  A25         0.2309
    222  O2'       22.5130   11.3270    0.5830 O.3    25  A25        -0.2156
    223  C1'       20.8240   12.7120    1.6150 C.3    25  A25         0.2408
    224  N1        18.7170   15.8070   -1.8580 N.ar   25  A25        -0.2040
    225  C2        19.2040   14.5670   -1.9260 C.ar   25  A25         0.2016
    226  N3        19.7280   13.8170   -0.9670 N.ar   25  A25        -0.2048
    227  C4        19.7200   14.4730    0.2030 C.ar   25  A25         0.1692
    228  C5        19.2540   15.7490    0.4340 C.ar   25  A25         0.1518
    229  C6        18.7340   16.4460   -0.6730 C.ar   25  A25         0.1919
    230  N6        18.2670   17.6970   -0.6200 N.pl3  25  A25        -0.1054
    231  N7        19.3910   16.0890    1.7740 N.ar   25  A25        -0.2193
    232  C8        19.9460   15.0280    2.3120 C.ar   25  A25         0.1816
    233  N9        20.1850   14.0140    1.4110 N.ar   25  A25        -0.2693
    234  OP1       23.4110   11.2520    7.8650 O.3    25  A25        -0.4373
    235  OP2       23.5610   13.7210    7.1970 O.co2  25  A25        -0.5172
    236  P         25.5960   13.8320    1.7490 P.3    26  C26         0.2141
    237  C5'       24.9330   14.1800   -0.7700 C.3    26  C26         0.1812
    238  O5'       25.1390   14.7390    0.5240 O.3    26  C26        -0.3114
    239  C4'       24.2870   15.2010   -1.6700 C.3    26  C26         0.1773
    240  O4'       22.9270   15.4530   -1.2230 O.3    26  C26        -0.3307
    241  C3'       24.9240   16.5830   -1.6260 C.3    26  C26         0.1860
    242  O3'       26.0690   16.6120   -2.4580 O.3    26  C26        -0.3112
    243  C2'       23.7920   17.4440   -2.1580 C.3    26  C26         0.2309
    244  O2'       23.6110   17.3410   -3.5550 O.3    26  C26        -0.2156
    245  C1'       22.6000   16.8190   -1.4280 C.3    26  C26         0.2420
    246  N1        22.3840   17.4460   -0.1150 N.ar   26  C26        -0.2535
    247  C2        21.7700   18.6950   -0.0690 C.ar   26  C26         0.3532
    248  O2        21.4510   19.2380   -1.1250 O.2    26  C26        -0.2443
    249  N3        21.5480   19.2840    1.1190 N.ar   26  C26        -0.1739
    250  C4        21.9170   18.6740    2.2440 C.ar   26  C26         0.1759
    251  N4        21.6510   19.2930    3.4010 N.pl3  26  C26        -0.1070
    252  C5        22.5640   17.4020    2.2350 C.ar   26  C26         0.0566
    253  C6        22.7750   16.8260    1.0400 C.ar   26  C26         0.0850
    254  OP1       26.8380   13.1260    1.3480 O.2    26  C26        -0.5172
    255  OP2       25.5790   14.6800    2.9770 O.co2  26  C26        -0.4373
    256  P         27.2740   17.6100   -2.1230 P.3    27  G27         0.2141
    257  C5'       26.4040   19.4040   -3.8430 C.3    27  G27         0.1812
    258  O5'       26.6710   19.0430   -2.4880 O.3    27  G27        -0.3114
    259  C4'       26.0350   20.8660   -3.9250 C.3    27  G27         0.1773
    260  O4'       24.7590   21.0900   -3.2690 O.3    27  G27        -0.3307
    261  C3'       26.9680   21.7850   -3.1620 C.3    27  G27         0.1860
    262  O3'       28.1370   22.0380   -3.9200 O.3    27  G27        -0.3112
    263  C2'       26.1030   23.0230   -2.9950 C.3    27  G27         0.2309
    264  O2'       25.9860   23.7850   -4.1780 O.3    27  G27        -0.2156
    265  C1'       24.7490   22.3910   -2.6930 C.3    27  G27         0.2408
    266  N1        23.3900   24.7410    1.5790 N.ar   27  G27        -0.1709
    267  C2        23.5200   25.2470    0.3080 C.ar   27  G27         0.2606
    268  N2        23.2450   26.5440    0.1500 N.pl3  27  G27        -0.0859
    269  N3        23.8930   24.5260   -0.7370 N.ar   27  G27        -0.1918
    270  C4        24.1420   23.2460   -0.4030 C.ar   27  G27         0.1723
    271  C5        24.0540   22.6450    0.8320 C.ar   27  G27         0.1748
    272  C6        23.6300   23.4120    1.9360 C.ar   27  G27         0.3023
    273  O6        23.4480   23.0410    3.0960 O.2    27  G27        -0.2633
    274  N7        24.4100   21.3110    0.7560 N.ar   27  G27        -0.2173
    275  C8        24.6850   21.1210   -0.5070 C.ar   27  G27         0.1817
    276  N9        24.5370   22.2550   -1.2600 N.ar   27  G27        -0.2693
    277  OP1       28.3620   17.2680   -3.0670 O.2    27  G27        -0.5172
    278  OP2       27.5440   17.5980   -0.6590 O.co2  27  G27        -0.4373
    279  P         29.4510   22.5700   -3.1890 P.3    28  C28         0.2141
    280  C5'       29.4370   24.5300   -1.4410 C.3    28  C28         0.1812
    281  O5'       28.8810   23.9240   -2.5750 O.3    28  C28        -0.3114
    282  C4'       28.7490   25.8520   -1.2120 C.3    28  C28         0.1773
    283  O4'       27.3440   25.6450   -0.9030 O.3    28  C28        -0.3307
    284  C3'       29.2640   26.6450   -0.0400 C.3    28  C28         0.1860
    285  O3'       30.4250   27.3300   -0.4420 O.3    28  C28        -0.3112
    286  C2'       28.0760   27.5580    0.2290 C.3    28  C28         0.2309
    287  O2'       27.8730   28.5200   -0.7910 O.3    28  C28        -0.2156
    288  C1'       26.9380   26.5450    0.1260 C.3    28  C28         0.2420
    289  N1        26.7270   25.7820    1.3740 N.ar   28  C28        -0.2535
    290  C2        26.1540   26.4420    2.4670 C.ar   28  C28         0.3532
    291  O2        25.8230   27.6290    2.3390 O.2    28  C28        -0.2443
    292  N3        25.9760   25.7650    3.6360 N.ar   28  C28        -0.1739
    293  C4        26.3490   24.4830    3.7290 C.ar   28  C28         0.1759
    294  N4        26.1880   23.8630    4.9070 N.pl3  28  C28        -0.1070
    295  C5        26.9110   23.7810    2.6250 C.ar   28  C28         0.0566
    296  C6        27.0820   24.4630    1.4750 C.ar   28  C28         0.0850
    297  OP1       30.4540   22.9170   -4.2360 O.2    28  C28        -0.5172
    298  OP2       29.8240   21.6250   -2.0910 O.co2  28  C28        -0.4373
    299  P         31.4930   27.7710    0.6570 P.3    29  G29         0.2141
    300  C5'       30.4650   30.1940    0.7500 C.3    29  G29         0.1812
    301  O5'       30.7480   28.9620    1.3990 O.3    29  G29        -0.3114
    302  C4'       29.7880   31.1220    1.7200 C.3    29  G29         0.1773
    303  O4'       28.5420   30.5190    2.1810 O.3    29  G29        -0.3307
    304  C3'       30.5770   31.3500    2.9940 C.3    29  G29         0.1860
    305  O3'       31.5500   32.3690    2.7750 O.3    29  G29        -0.3112
    306  C2'       29.4780   31.7800    3.9540 C.3    29  G29         0.2309
    307  O2'       29.0330   33.1050    3.7270 O.3    29  G29        -0.2156
    308  C1'       28.3640   30.8070    3.5620 C.3    29  G29         0.2408
    309  N1        27.3030   28.5240    7.9550 N.ar   29  G29        -0.1709
    310  C2        27.1690   29.8440    7.5950 C.ar   29  G29         0.2606
    311  N2        26.6740   30.6750    8.5340 N.pl3  29  G29        -0.0859
    312  N3        27.5030   30.3260    6.3990 N.ar   29  G29        -0.1918
    313  C4        27.9910   29.3660    5.5920 C.ar   29  G29         0.1723
    314  C5        28.1800   28.0320    5.8560 C.ar   29  G29         0.1748
    315  C6        27.8100   27.5240    7.1400 C.ar   29  G29         0.3023
    316  O6        27.8930   26.3670    7.5620 O.2    29  G29        -0.2633
    317  N7        28.7330   27.3870    4.7570 N.ar   29  G29        -0.2173
    318  C8        28.8520   28.3310    3.8600 C.ar   29  G29         0.1817
    319  N9        28.4090   29.5480    4.3020 N.ar   29  G29        -0.2693
    320  OP1       32.6920   28.2840   -0.0380 O.2    29  G29        -0.5172
    321  OP2       31.6460   26.6950    1.6650 O.co2  29  G29        -0.4373
    322  P         33.0230   32.2030    3.3700 P.3    30  U30         0.2141
    323  C5'       32.5530   33.8910    5.3020 C.3    30  U30         0.1812
    324  O5'       32.8150   32.5560    4.9030 O.3    30  U30        -0.3114
    325  C4'       32.2190   33.9240    6.7650 C.3    30  U30         0.1773
    326  O4'       30.9650   33.2190    6.9810 O.3    30  U30        -0.3307
    327  C3'       33.1770   33.1910    7.6830 C.3    30  U30         0.1860
    328  O3'       34.3690   33.9290    7.9320 O.3    30  U30        -0.3112
    329  C2'       32.3050   33.0340    8.9180 C.3    30  U30         0.2309
    330  O2'       32.1170   34.2630    9.6110 O.3    30  U30        -0.2156
    331  C1'       30.9910   32.6080    8.2670 C.3    30  U30         0.2420
    332  N1        30.9550   31.1510    8.0930 N.ar   30  U30        -0.2534
    333  C2        30.6250   30.4000    9.1950 C.ar   30  U30         0.3546
    334  O2        30.3760   30.9050   10.2730 O.2    30  U30        -0.2443
    335  N3        30.6220   29.0380    8.9930 N.ar   30  U30        -0.1530
    336  C4        30.9420   28.3780    7.8170 C.ar   30  U30         0.2846
    337  O4        30.9800   27.1430    7.7970 O.2    30  U30        -0.2650
    338  C5        31.2720   29.2360    6.7180 C.ar   30  U30         0.0814
    339  C6        31.2590   30.5590    6.8830 C.ar   30  U30         0.0870
    340  OP1       33.8960   33.2520    2.7770 O.2    30  U30        -0.5172
    341  OP2       33.4440   30.7900    3.3180 O.co2  30  U30        -0.4373
    342  P         35.7600   33.1500    8.2080 P.3    31  G31         0.2141
    343  C5'       35.4620   33.5710   10.7760 C.3    31  G31         0.1812
    344  O5'       35.6330   32.6450    9.7080 O.3    31  G31        -0.3114
    345  C4'       34.8940   32.8690   11.9810 C.3    31  G31         0.1773
    346  O4'       33.6540   32.2120   11.6060 O.3    31  G31        -0.3307
    347  C3'       35.7170   31.7250   12.5530 C.3    31  G31         0.1860
    348  O3'       36.8070   32.1930   13.3450 O.3    31  G31        -0.3112
    349  C2'       34.6600   31.0140   13.3790 C.3    31  G31         0.2309
    350  O2'       34.3380   31.7260   14.5670 O.3    31  G31        -0.2156
    351  C1'       33.4840   31.0450   12.3990 C.3    31  G31         0.2408
    352  N1        33.0250   26.0470   12.2090 N.ar   31  G31        -0.1709
    353  C2        32.8350   26.9110   13.2650 C.ar   31  G31         0.2606
    354  N2        32.5070   26.3600   14.4710 N.pl3  31  G31        -0.0859
    355  N3        32.9560   28.2160   13.1680 N.ar   31  G31        -0.1918
    356  C4        33.2970   28.6000   11.9160 C.ar   31  G31         0.1723
    357  C5        33.5140   27.8190   10.8000 C.ar   31  G31         0.1748
    358  C6        33.3800   26.4240   10.9130 C.ar   31  G31         0.3023
    359  O6        33.5440   25.5650   10.0360 O.2    31  G31        -0.2633
    360  N7        33.8790   28.5980    9.7110 N.ar   31  G31        -0.2173
    361  C8        33.8660   29.8230   10.1820 C.ar   31  G31         0.1817
    362  N9        33.5390   29.8800   11.5210 N.ar   31  G31        -0.2693
    363  OP1       36.8520   34.1480    8.1430 O.3    31  G31        -0.4373
    364  OP2       35.8200   31.9470    7.3500 O.co2  31  G31        -0.5172
    365  P         38.1000   31.2700   13.5380 P.3    32  G32         0.2141
    366  C5'       37.0660   30.1380   15.6810 C.3    32  G32         0.1812
    367  O5'       37.5570   30.0150   14.3570 O.3    32  G32        -0.3114
    368  C4'       36.6900   28.7720   16.2110 C.3    32  G32         0.1773
    369  O4'       35.6070   28.2130   15.4220 O.3    32  G32        -0.3307
    370  C3'       37.7710   27.7140   16.0980 C.3    32  G32         0.1860
    371  O3'       38.7230   27.8860   17.1310 O.3    32  G32        -0.3112
    372  C2'       36.9470   26.4380   16.2190 C.3    32  G32         0.2309
    373  O2'       36.4530   26.1830   17.5360 O.3    32  G32        -0.2156
    374  C1'       35.7740   26.8020   15.3060 C.3    32  G32         0.2408
    375  N1        36.1640   23.0980   11.8680 N.ar   32  G32        -0.1709
    376  C2        35.9110   23.0240   13.2180 C.ar   32  G32         0.2606
    377  N2        35.7420   21.7860   13.7330 N.pl3  32  G32        -0.0859
    378  N3        35.8350   24.0810   14.0150 N.ar   32  G32        -0.1918
    379  C4        36.0600   25.2290   13.3550 C.ar   32  G32         0.1723
    380  C5        36.3500   25.4120   12.0180 C.ar   32  G32         0.1748
    381  C6        36.4070   24.2740   11.1670 C.ar   32  G32         0.3023
    382  O6        36.6340   24.2330    9.9540 O.2    32  G32        -0.2633
    383  N7        36.5400   26.7550   11.7350 N.ar   32  G32        -0.2173
    384  C8        36.3520   27.3580   12.8840 C.ar   32  G32         0.1817
    385  N9        36.0520   26.4850   13.9060 N.ar   32  G32        -0.2693
    386  OP1       39.0940   32.0410   14.3370 O.3    32  G32        -0.4373
    387  OP2       38.5230   30.6790   12.2320 O.co2  32  G32        -0.5172
    388  P         40.2100   27.3490   16.9370 P.3    33  A33         0.2141
    389  C5'       39.5900   25.2300   18.3530 C.3    33  A33         0.1812
    390  O5'       40.0810   25.7680   17.1270 O.3    33  A33        -0.3114
    391  C4'       39.4700   23.7210   18.2540 C.3    33  A33         0.1773
    392  O4'       38.5430   23.3730   17.1930 O.3    33  A33        -0.3307
    393  C3'       40.7340   23.0040   17.8240 C.3    33  A33         0.1860
    394  O3'       41.6540   22.8590   18.8910 O.3    33  A33        -0.3112
    395  C2'       40.1840   21.6640   17.3490 C.3    33  A33         0.2309
    396  O2'       39.8160   20.8160   18.4270 O.3    33  A33        -0.2156
    397  C1'       38.9120   22.1180   16.6380 C.3    33  A33         0.2408
    398  N1        39.4020   19.6020   12.1950 N.ar   33  A33        -0.2040
    399  C2        39.3430   19.1790   13.4680 C.ar   33  A33         0.2016
    400  N3        39.2230   19.8980   14.5860 N.ar   33  A33        -0.2048
    401  C4        39.1640   21.2130   14.2970 C.ar   33  A33         0.1692
    402  C5        39.2130   21.7900   13.0400 C.ar   33  A33         0.1518
    403  C6        39.3400   20.9270   11.9460 C.ar   33  A33         0.1919
    404  N6        39.3950   21.3470   10.6800 N.pl3  33  A33        -0.1054
    405  N7        39.1440   23.1680   13.1270 N.ar   33  A33        -0.2193
    406  C8        39.0530   23.4000   14.4220 C.ar   33  A33         0.1816
    407  N9        39.0450   22.2580   15.1850 N.ar   33  A33        -0.2693
    408  OP1       40.9580   27.9000   18.0860 O.3    33  A33        -0.4373
    409  OP2       40.7060   27.5870   15.5480 O.co2  33  A33        -0.5172
    410  P         43.2170   22.9280   18.5830 P.3    34  U34         0.2141
    411  C5'       43.1740   20.3060   18.3650 C.3    34  U34         0.1812
    412  O5'       43.5170   21.5720   17.7910 O.3    34  U34        -0.3114
    413  C4'       43.3360   19.2090   17.3410 C.3    34  U34         0.1773
    414  O4'       42.4930   19.4940   16.1810 O.3    34  U34        -0.3307
    415  C3'       44.7570   19.0550   16.8160 C.3    34  U34         0.1860
    416  O3'       45.0590   17.6840   16.6850 O.3    34  U34        -0.3112
    417  C2'       44.6910   19.6840   15.4320 C.3    34  U34         0.2309
    418  O2'       45.6070   19.1490   14.5090 O.3    34  U34        -0.2156
    419  C1'       43.2610   19.3610   15.0040 C.3    34  U34         0.2420
    420  N1        42.8370   20.3850   14.0430 N.ar   34  U34        -0.2534
    421  C2        42.7030   20.0170   12.7180 C.ar   34  U34         0.3546
    422  O2        42.8110   18.8770   12.3340 O.2    34  U34        -0.2443
    423  N3        42.4490   21.0540   11.8570 N.ar   34  U34        -0.1530
    424  C4        42.3080   22.3800   12.1740 C.ar   34  U34         0.2846
    425  O4        42.1760   23.2060   11.2650 O.2    34  U34        -0.2650
    426  C5        42.3940   22.6710   13.5700 C.ar   34  U34         0.0814
    427  C6        42.6430   21.6800   14.4370 C.ar   34  U34         0.0870
    428  OP1       43.9110   22.8960   19.8970 O.3    34  U34        -0.4373
    429  OP2       43.4580   24.0640   17.6290 O.co2  34  U34        -0.5172
    430  P         46.1250   17.0120   17.6650 P.3    35  A35         0.2141
    431  C5'       44.5570   14.9010   17.7740 C.3    35  A35         0.1812
    432  O5'       45.8250   15.4680   17.4620 O.3    35  A35        -0.3114
    433  C4'       44.6380   13.4140   17.5680 C.3    35  A35         0.1773
    434  O4'       44.5650   13.1510   16.1380 O.3    35  A35        -0.3307
    435  C3'       45.9650   12.8370   18.0380 C.3    35  A35         0.1860
    436  O3'       45.7650   11.5710   18.6480 O.3    35  A35        -0.3112
    437  C2'       46.8050   12.7690   16.7650 C.3    35  A35         0.2309
    438  O2'       47.7740   11.7430   16.7700 O.3    35  A35        -0.2156
    439  C1'       45.7480   12.5300   15.6880 C.3    35  A35         0.2408
    440  N1        47.9810   12.0450   11.0460 N.ar   35  A35        -0.2040
    441  C2        47.7830   11.1610   12.0340 C.ar   35  A35         0.2016
    442  N3        47.1820   11.3360   13.2200 N.ar   35  A35        -0.2048
    443  C4        46.7530   12.6050   13.3450 C.ar   35  A35         0.1692
    444  C5        46.8810   13.6210   12.4130 C.ar   35  A35         0.1518
    445  C6        47.5340   13.3090   11.2110 C.ar   35  A35         0.1919
    446  N6        47.7350   14.1990   10.2340 N.pl3  35  A35        -0.1054
    447  N7        46.3080   14.7920   12.8810 N.ar   35  A35        -0.2193
    448  C8        45.8670   14.4700   14.0740 C.ar   35  A35         0.1816
    449  N9        46.1080   13.1670   14.4210 N.ar   35  A35        -0.2693
    450  OP1       45.7670   17.3940   19.0670 O.3    35  A35        -0.4373
    451  OP2       47.4950   17.2660   17.1820 O.co2  35  A35        -0.5172
    452  P         45.8130   11.4570   20.2510 P.3    36  U36         0.2141
    453  C5'       43.2970   11.7520   20.9560 C.3    36  U36         0.1812
    454  O5'       44.5810   12.3440   20.7440 O.3    36  U36        -0.3114
    455  C4'       42.5360   12.4970   22.0280 C.3    36  U36         0.1773
    456  O4'       43.2990   12.4910   23.2730 O.3    36  U36        -0.3307
    457  C3'       42.2630   13.9620   21.7230 C.3    36  U36         0.1860
    458  O3'       41.0710   14.3780   22.3860 O.3    36  U36        -0.3112
    459  C2'       43.4380   14.6390   22.4100 C.3    36  U36         0.2309
    460  O2'       43.1850   16.0050   22.6690 O.3    36  U36        -0.2156
    461  C1'       43.5030   13.8230   23.6990 C.3    36  U36         0.2420
    462  N1        44.7960   13.9060   24.3890 N.ar   36  U36        -0.2534
    463  C2        44.8240   14.4870   25.6540 C.ar   36  U36         0.3546
    464  O2        43.8140   14.8800   26.2290 O.2    36  U36        -0.2443
    465  N3        46.0710   14.5820   26.2160 N.ar   36  U36        -0.1530
    466  C4        47.2660   14.1470   25.6630 C.ar   36  U36         0.2846
    467  O4        48.3150   14.3020   26.2890 O.2    36  U36        -0.2650
    468  C5        47.1450   13.5370   24.3730 C.ar   36  U36         0.0814
    469  C6        45.9460   13.4390   23.7950 C.ar   36  U36         0.0870
    470  OP1       47.0650   12.0880   20.7150 O.3    36  U36        -0.4373
    471  OP2       45.5280   10.0420   20.5970 O.co2  36  U36        -0.5172
    472  P         39.6510   14.2100   21.6800 P.3    37  G37         0.2141
    473  C5'       39.6160   16.6950   20.8240 C.3    37  G37         0.1812
    474  O5'       39.6390   15.3120   20.5300 O.3    37  G37        -0.3114
    475  C4'       39.5000   17.4790   19.5300 C.3    37  G37         0.1773
    476  O4'       40.7240   17.3000   18.7710 O.3    37  G37        -0.3307
    477  C3'       38.4060   17.0060   18.5880 C.3    37  G37         0.1860
    478  O3'       37.1640   17.6230   18.8950 O.3    37  G37        -0.3112
    479  C2'       38.9390   17.4470   17.2340 C.3    37  G37         0.2309
    480  O2'       38.7430   18.8460   17.0230 O.3    37  G37        -0.2156
    481  C1'       40.4230   17.1110   17.3900 C.3    37  G37         0.2408
    482  N1        42.2130   14.0030   13.7670 N.ar   37  G37        -0.1709
    483  C2        42.0020   15.3550   13.7200 C.ar   37  G37         0.2606
    484  N2        42.3150   15.9630   12.5520 N.pl3  37  G37        -0.0859
    485  N3        41.5270   16.0650   14.7290 N.ar   37  G37        -0.1918
    486  C4        41.2770   15.2990   15.8120 C.ar   37  G37         0.1723
    487  C5        41.4620   13.9370   15.9630 C.ar   37  G37         0.1748
    488  C6        41.9710   13.1910   14.8680 C.ar   37  G37         0.3023
    489  O6        42.2070   11.9810   14.7980 O.2    37  G37        -0.2633
    490  N7        41.0930   13.5270   17.2380 N.ar   37  G37        -0.2173
    491  C8        40.7000   14.6250   17.8310 C.ar   37  G37         0.1817
    492  N9        40.7830   15.7380   17.0270 N.ar   37  G37        -0.2693
    493  OP1       38.6510   14.5490   22.7080 O.3    37  G37        -0.4373
    494  OP2       39.6330   12.8640   21.0470 O.co2  37  G37        -0.5172
    495  P         35.7960   16.8290   18.6560 P.3    38  G38         0.2141
    496  C5'       35.4250   18.0120   16.3490 C.3    38  G38         0.1812
    497  O5'       35.6400   16.8120   17.0740 O.3    38  G38        -0.3114
    498  C4'       35.6070   17.7410   14.8820 C.3    38  G38         0.1773
    499  O4'       36.9920   17.3790   14.6600 O.3    38  G38        -0.3307
    500  C3'       34.8150   16.5550   14.3650 C.3    38  G38         0.1860
    501  O3'       33.4900   16.9500   14.0180 O.3    38  G38        -0.3112
    502  C2'       35.6400   16.1410   13.1460 C.3    38  G38         0.2309
    503  O2'       35.3770   16.9060   11.9860 O.3    38  G38        -0.2156
    504  C1'       37.0720   16.4040   13.6300 C.3    38  G38         0.2408
    505  N1        39.6830   12.2190   12.5340 N.ar   38  G38        -0.1709
    506  C2        39.5500   13.3770   11.8040 C.ar   38  G38         0.2606
    507  N2        40.0880   13.3730   10.5670 N.pl3  38  G38        -0.0859
    508  N3        38.9320   14.4580   12.2420 N.ar   38  G38        -0.1918
    509  C4        38.4430   14.2890   13.4890 C.ar   38  G38         0.1723
    510  C5        38.5460   13.1890   14.3110 C.ar   38  G38         0.1748
    511  C6        39.1890   12.0270   13.8210 C.ar   38  G38         0.3023
    512  O6        39.3080   10.9180   14.3770 O.2    38  G38        -0.2633
    513  N7        37.9250   13.4240   15.5310 N.ar   38  G38        -0.2173
    514  C8        37.4310   14.6270   15.4140 C.ar   38  G38         0.1817
    515  N9        37.6530   15.1800   14.1720 N.ar   38  G38        -0.2693
    516  OP1       34.6980   17.6330   19.2280 O.3    38  G38        -0.4373
    517  OP2       35.9630   15.4060   19.0780 O.co2  38  G38        -0.5172
    518  P         32.2310   16.0420   14.4380 P.3    39  C39         0.2141
    519  C5'       30.6540   17.9810   15.2490 C.3    39  C39         0.1812
    520  O5'       31.4930   16.8750   15.5790 O.3    39  C39        -0.3114
    521  C4'       31.0100   19.1780   16.1000 C.3    39  C39         0.1773
    522  O4'       32.3400   19.6550   15.7530 O.3    39  C39        -0.3307
    523  C3'       30.0970   20.3810   15.9330 C.3    39  C39         0.1860
    524  O3'       29.0230   20.2850   16.8580 O.3    39  C39        -0.3112
    525  C2'       31.0200   21.5400   16.2770 C.3    39  C39         0.2309
    526  O2'       31.1940   21.7000   17.6730 O.3    39  C39        -0.2156
    527  C1'       32.3410   21.0650   15.6670 C.3    39  C39         0.2420
    528  N1        32.5230   21.4500   14.2540 N.ar   39  C39        -0.2535
    529  C2        32.6520   22.8110   13.9600 C.ar   39  C39         0.3532
    530  O2        32.6090   23.6170   14.8890 O.2    39  C39        -0.2443
    531  N3        32.8210   23.2080   12.6740 N.ar   39  C39        -0.1739
    532  C4        32.8630   22.2920   11.7010 C.ar   39  C39         0.1759
    533  N4        33.0290   22.7230   10.4490 N.pl3  39  C39        -0.1070
    534  C5        32.7380   20.8900   11.9710 C.ar   39  C39         0.0566
    535  C6        32.5720   20.5180   13.2540 C.ar   39  C39         0.0850
    536  OP1       32.7220   14.7720   15.0450 O.3    39  C39        -0.4373
    537  OP2       31.3060   15.9920   13.2890 O.co2  39  C39        -0.5172
    538  P         27.6320   21.0080   16.5400 P.3    40  A40         0.2141
    539  C5'       28.1160   23.1980   17.9160 C.3    40  A40         0.1812
    540  O5'       27.9690   22.5630   16.6490 O.3    40  A40        -0.3114
    541  C4'       28.1580   24.7020   17.7430 C.3    40  A40         0.1773
    542  O4'       29.3460   25.0660   16.9910 O.3    40  A40        -0.3307
    543  C3'       27.0280   25.2810   16.9120 C.3    40  A40         0.1860
    544  O3'       25.8400   25.4500   17.6750 O.3    40  A40        -0.3112
    545  C2'       27.6270   26.6070   16.4670 C.3    40  A40         0.2309
    546  O2'       27.6690   27.5610   17.5150 O.3    40  A40        -0.2156
    547  C1'       29.0470   26.1600   16.1330 C.3    40  A40         0.2408
    548  N1        30.0210   27.5320   11.2760 N.ar   40  A40        -0.2040
    549  C2        29.8220   28.2470   12.3920 C.ar   40  A40         0.2016
    550  N3        29.5360   27.8210   13.6240 N.ar   40  A40        -0.2048
    551  C4        29.4490   26.4860   13.6560 C.ar   40  A40         0.1692
    552  C5        29.6200   25.6150   12.5960 C.ar   40  A40         0.1518
    553  C6        29.9350   26.1880   11.3430 C.ar   40  A40         0.1919
    554  N6        30.1670   25.4770   10.2320 N.pl3  40  A40        -0.1054
    555  N7        29.4490   24.3030   13.0070 N.ar   40  A40        -0.2193
    556  C8        29.1950   24.4060   14.2940 C.ar   40  A40         0.1816
    557  N9        29.2070   25.6980   14.7550 N.ar   40  A40        -0.2693
    558  OP1       26.6720   20.6510   17.6420 O.3    40  A40        -0.4373
    559  OP2       27.2440   20.7540   15.1270 O.co2  40  A40        -0.5172
    560  P         24.4160   25.3260   16.9600 P.3    41  C41         0.2141
    561  C5'       24.2460   27.9250   16.6560 C.3    41  C41         0.1812
    562  O5'       24.3030   26.6370   16.0560 O.3    41  C41        -0.3114
    563  C4'       24.3930   29.0090   15.6100 C.3    41  C41         0.1773
    564  O4'       25.7260   28.9760   15.0280 O.3    41  C41        -0.3307
    565  C3'       23.5120   28.9080   14.3820 C.3    41  C41         0.1860
    566  O3'       22.1710   29.2720   14.6720 O.3    41  C41        -0.3112
    567  C2'       24.2230   29.9090   13.4860 C.3    41  C41         0.2309
    568  O2'       24.1280   31.2370   13.9970 O.3    41  C41        -0.2156
    569  C1'       25.6600   29.4340   13.6780 C.3    41  C41         0.2420
    570  N1        25.9930   28.3190   12.7750 N.ar   41  C41        -0.2535
    571  C2        26.3620   28.6300   11.4710 C.ar   41  C41         0.3532
    572  O2        26.3680   29.8200   11.1290 O.2    41  C41        -0.2443
    573  N3        26.6710   27.6410   10.6110 N.ar   41  C41        -0.1739
    574  C4        26.5710   26.3690   10.9960 C.ar   41  C41         0.1759
    575  N4        26.8270   25.4230   10.0820 N.pl3  41  C41        -0.1070
    576  C5        26.1920   26.0080   12.3250 C.ar   41  C41         0.0566
    577  C6        25.9240   27.0120   13.1840 C.ar   41  C41         0.0850
    578  OP1       23.3490   25.3600   17.9990 O.3    41  C41        -0.4373
    579  OP2       24.4730   24.1960   16.0050 O.co2  41  C41        -0.5172
    580  P         20.9690   28.6320   13.8370 P.3    42  G42         0.2141
    581  C5'       20.9760   30.6710   12.2080 C.3    42  G42         0.1812
    582  O5'       21.0820   29.2610   12.3820 O.3    42  G42        -0.3114
    583  C4'       21.4390   31.0650   10.8220 C.3    42  G42         0.1773
    584  O4'       22.8290   30.6690   10.6300 O.3    42  G42        -0.3307
    585  C3'       20.7300   30.4030    9.6510 C.3    42  G42         0.1860
    586  O3'       19.4730   31.0050    9.3730 O.3    42  G42        -0.3112
    587  C2'       21.7190   30.6730    8.5360 C.3    42  G42         0.2309
    588  O2'       21.6420   32.0070    8.0850 O.3    42  G42        -0.2156
    589  C1'       23.0510   30.4160    9.2520 C.3    42  G42         0.2408
    590  N1        24.8740   27.0390    6.0210 N.ar   42  G42        -0.1709
    591  C2        24.6430   28.3740    5.8490 C.ar   42  G42         0.2606
    592  N2        24.9090   28.8730    4.6240 N.pl3  42  G42        -0.0859
    593  N3        24.1760   29.1600    6.7990 N.ar   42  G42        -0.1918
    594  C4        23.9440   28.4830    7.9450 C.ar   42  G42         0.1723
    595  C5        24.1320   27.1450    8.2170 C.ar   42  G42         0.1748
    596  C6        24.6370   26.3200    7.1930 C.ar   42  G42         0.3023
    597  O6        24.8650   25.1240    7.2190 O.2    42  G42        -0.2633
    598  N7        23.7500   26.8490    9.5220 N.ar   42  G42        -0.2173
    599  C8        23.3490   27.9960   10.0060 C.ar   42  G42         0.1817
    600  N9        23.4350   29.0220    9.0950 N.ar   42  G42        -0.2693
    601  OP1       19.7010   29.1270   14.4550 O.3    42  G42        -0.4373
    602  OP2       21.2000   27.1690   13.6970 O.co2  42  G42        -0.5172
    603  P         18.3830   30.2250    8.4790 P.3    43  C43         0.2141
    604  C5'       19.1060   31.6410    6.3830 C.3    43  C43         0.1812
    605  O5'       18.9300   30.3630    6.9870 O.3    43  C43        -0.3114
    606  C4'       19.6500   31.4820    4.9850 C.3    43  C43         0.1773
    607  O4'       20.9380   30.8190    5.0360 O.3    43  C43        -0.3307
    608  C3'       18.8350   30.5900    4.0710 C.3    43  C43         0.1860
    609  O3'       17.7230   31.2970    3.5450 O.3    43  C43        -0.3112
    610  C2'       19.8600   30.2100    3.0040 C.3    43  C43         0.2309
    611  O2'       20.0880   31.2210    2.0410 O.3    43  C43        -0.2156
    612  C1'       21.1230   30.0510    3.8510 C.3    43  C43         0.2420
    613  N1        21.4010   28.6550    4.2290 N.ar   43  C43        -0.2535
    614  C2        22.0350   27.8210    3.2910 C.ar   43  C43         0.3532
    615  O2        22.3090   28.2840    2.1710 O.2    43  C43        -0.2443
    616  N3        22.3240   26.5380    3.6270 N.ar   43  C43        -0.1739
    617  C4        22.0000   26.0800    4.8430 C.ar   43  C43         0.1759
    618  N4        22.3100   24.8190    5.1370 N.pl3  43  C43        -0.1070
    619  C5        21.3430   26.9020    5.8110 C.ar   43  C43         0.0566
    620  C6        21.0640   28.1700    5.4640 C.ar   43  C43         0.0850
    621  OP1       17.1140   30.9760    8.5600 O.2    43  C43        -0.5172
    622  OP2       18.3980   28.7790    8.8160 O.co2  43  C43        -0.4373
    623  P         16.4920   30.4790    2.9260 P.3    44  G44         0.2141
    624  C5'       16.7400   28.5560    1.1670 C.3    44  G44         0.1812
    625  O5'       17.1250   29.8360    1.6190 O.3    44  G44        -0.3114
    626  C4'       17.6230   28.1540    0.0160 C.3    44  G44         0.1773
    627  O4'       18.9780   27.9820    0.5070 O.3    44  G44        -0.3307
    628  C3'       17.2720   26.8340   -0.6510 C.3    44  G44         0.1860
    629  O3'       16.3410   27.0310   -1.6980 O.3    44  G44        -0.3112
    630  C2'       18.6210   26.3800   -1.1800 C.3    44  G44         0.2309
    631  O2'       19.0050   27.0280   -2.3790 O.3    44  G44        -0.2156
    632  C1'       19.5340   26.7980   -0.0280 C.3    44  G44         0.2408
    633  N1        20.7120   22.0190    1.1600 N.ar   44  G44        -0.1709
    634  C2        20.7910   22.6620   -0.0460 C.ar   44  G44         0.2606
    635  N2        21.2300   21.9340   -1.0790 N.pl3  44  G44        -0.0859
    636  N3        20.4600   23.9260   -0.2280 N.ar   44  G44        -0.1918
    637  C4        20.0190   24.5010    0.9070 C.ar   44  G44         0.1723
    638  C5        19.8980   23.9490    2.1620 C.ar   44  G44         0.1748
    639  C6        20.2740   22.5890    2.3440 C.ar   44  G44         0.3023
    640  O6        20.2590   21.9060    3.3800 O.2    44  G44        -0.2633
    641  N7        19.3930   24.8820    3.0630 N.ar   44  G44        -0.2173
    642  C8        19.2260   25.9630    2.3510 C.ar   44  G44         0.1817
    643  N9        19.5870   25.8000    1.0330 N.ar   44  G44        -0.2693
    644  OP1       15.4630   31.4620    2.4830 O.2    44  G44        -0.5172
    645  OP2       16.1120   29.3950    3.8610 O.co2  44  G44        -0.4373
    646  P         15.1210   26.0070   -1.8620 P.3    45  A45         0.2141
    647  C5'       16.6780   24.1620   -2.9070 C.3    45  A45         0.1812
    648  O5'       15.8250   24.5760   -1.8450 O.3    45  A45        -0.3114
    649  C4'       17.0540   22.7080   -2.7430 C.3    45  A45         0.1773
    650  O4'       18.0010   22.5660   -1.6520 O.3    45  A45        -0.3307
    651  C3'       15.9240   21.7510   -2.3890 C.3    45  A45         0.1860
    652  O3'       15.2680   21.3530   -3.5890 O.3    45  A45        -0.3112
    653  C2'       16.7040   20.5930   -1.7730 C.3    45  A45         0.2309
    654  O2'       17.3970   19.8230   -2.7390 O.3    45  A45        -0.2156
    655  C1'       17.7530   21.3510   -0.9630 C.3    45  A45         0.2408
    656  N1        17.8300   19.9820    3.9670 N.ar   45  A45        -0.2040
    657  C2        18.1940   19.3350    2.8530 C.ar   45  A45         0.2016
    658  N3        18.0940   19.7240    1.5840 N.ar   45  A45        -0.2048
    659  C4        17.5360   20.9460    1.5140 C.ar   45  A45         0.1692
    660  C5        17.0930   21.7220    2.5660 C.ar   45  A45         0.1518
    661  C6        17.2630   21.2030    3.8520 C.ar   45  A45         0.1919
    662  N6        16.9070   21.8570    4.9640 N.pl3  45  A45        -0.1054
    663  N7        16.5720   22.9220    2.1060 N.ar   45  A45        -0.2193
    664  C8        16.7220   22.8490    0.8100 C.ar   45  A45         0.1816
    665  N9        17.3330   21.6990    0.3890 N.ar   45  A45        -0.2693
    666  OP1       14.5050   26.2260   -3.2000 O.2    45  A45        -0.5172
    667  OP2       14.2970   26.1190   -0.6390 O.co2  45  A45        -0.4373
    668  P         13.6770   21.1110   -3.6060 P.3    46  G46         0.2141
    669  C5'       14.1970   18.5690   -3.9820 C.3    46  G46         0.1812
    670  O5'       13.5410   19.5730   -3.2150 O.3    46  G46        -0.3114
    671  C4'       14.4340   17.3340   -3.1460 C.3    46  G46         0.1773
    672  O4'       15.3280   17.6640   -2.0480 O.3    46  G46        -0.3307
    673  C3'       13.2080   16.7500   -2.4610 C.3    46  G46         0.1860
    674  O3'       12.5340   15.8810   -3.3650 O.3    46  G46        -0.3112
    675  C2'       13.8490   15.9690   -1.3120 C.3    46  G46         0.2309
    676  O2'       14.4560   14.7650   -1.7360 O.3    46  G46        -0.2156
    677  C1'       14.9810   16.9110   -0.9020 C.3    46  G46         0.2408
    678  N1        15.3040   17.9340    4.0660 N.ar   46  G46        -0.1709
    679  C2        15.7870   16.8550    3.3750 C.ar   46  G46         0.2606
    680  N2        16.4500   15.9390    4.0980 N.pl3  46  G46        -0.0859
    681  N3        15.6360   16.6870    2.0680 N.ar   46  G46        -0.1918
    682  C4        14.9540   17.7110    1.5050 C.ar   46  G46         0.1723
    683  C5        14.4370   18.8350    2.1100 C.ar   46  G46         0.1748
    684  C6        14.6070   19.0020    3.5050 C.ar   46  G46         0.3023
    685  O6        14.2290   19.9450    4.2220 O.2    46  G46        -0.2633
    686  N7        13.8130   19.6550    1.1770 N.ar   46  G46        -0.2173
    687  C8        13.9630   19.0260    0.0410 C.ar   46  G46         0.1817
    688  N9        14.6430   17.8420    0.1670 N.ar   46  G46        -0.2693
    689  OP1       13.2790   21.2600   -5.0240 O.2    46  G46        -0.5172
    690  OP2       12.9950   21.9290   -2.5680 O.co2  46  G46        -0.4373
    691  P         10.9600   16.0700   -3.6460 P.3    47  U47         0.2141
    692  C5'       10.4620   13.9000   -2.2490 C.3    47  U47         0.1812
    693  O5'       10.2470   15.2920   -2.4530 O.3    47  U47        -0.3114
    694  C4'        9.5550   13.3920   -1.1460 C.3    47  U47         0.1773
    695  O4'       10.0030   13.9040    0.1460 O.3    47  U47        -0.3307
    696  C3'        8.0940   13.8080   -1.2690 C.3    47  U47         0.1860
    697  O3'        7.2780   12.7630   -0.7470 O.3    47  U47        -0.3112
    698  C2'        8.0190   15.0300   -0.3600 C.3    47  U47         0.2309
    699  O2'        6.7160   15.2740    0.1370 O.3    47  U47        -0.2156
    700  C1'        8.9380   14.5940    0.7770 C.3    47  U47         0.2420
    701  N1         9.4730   15.7130    1.5690 N.ar   47  U47        -0.2534
    702  C2         9.3700   15.6380    2.9480 C.ar   47  U47         0.3546
    703  O2         8.9360   14.6640    3.5290 O.2    47  U47        -0.2443
    704  N3         9.8200   16.7410    3.6280 N.ar   47  U47        -0.1530
    705  C4        10.3850   17.8740    3.0870 C.ar   47  U47         0.2846
    706  O4        10.7440   18.7870    3.8330 O.2    47  U47        -0.2650
    707  C5        10.4910   17.8630    1.6630 C.ar   47  U47         0.0814
    708  C6        10.0400   16.8110    0.9680 C.ar   47  U47         0.0870
    709  OP1       10.6990   15.3410   -4.9160 O.2    47  U47        -0.5172
    710  OP2       10.5890   17.4970   -3.5330 O.co2  47  U47        -0.4373
    711  P          6.4590   11.8150   -1.7560 P.3    48  U48         0.2141
    712  C5'        4.4700   13.4930   -1.5820 C.3    48  U48         0.1812
    713  O5'        5.4030   12.8110   -2.4050 O.3    48  U48        -0.3114
    714  C4'        3.7670   14.5720   -2.3620 C.3    48  U48         0.1773
    715  O4'        2.9370   13.9650   -3.3880 O.3    48  U48        -0.3307
    716  C3'        2.8400   15.4280   -1.5090 C.3    48  U48         0.1860
    717  O3'        3.0110   16.8050   -1.7910 O.3    48  U48        -0.3112
    718  C2'        1.4480   14.9410   -1.8830 C.3    48  U48         0.2309
    719  O2'        0.4760   15.9590   -1.7680 O.3    48  U48        -0.2156
    720  C1'        1.6460   14.5310   -3.3380 C.3    48  U48         0.2420
    721  N1         0.6880   13.5050   -3.7550 N.ar   48  U48        -0.2534
    722  C2        -0.1810   13.8110   -4.7890 C.ar   48  U48         0.3546
    723  O2        -0.1700   14.8880   -5.3740 O.2    48  U48        -0.2443
    724  N3        -1.0610   12.8100   -5.1130 N.ar   48  U48        -0.1530
    725  C4        -1.1590   11.5660   -4.5210 C.ar   48  U48         0.2846
    726  O4        -2.0480   10.8010   -4.8800 O.2    48  U48        -0.2650
    727  C5        -0.2190   11.3230   -3.4730 C.ar   48  U48         0.0814
    728  C6         0.6520   12.2760   -3.1340 C.ar   48  U48         0.0870
    729  OP1        5.7120   10.8530   -0.9170 O.3    48  U48        -0.4373
    730  OP2        7.3740   11.3140   -2.8140 O.co2  48  U48        -0.5172
    731  P          4.1720   17.6170   -1.0430 P.3    49  U49         0.2141
    732  C5'        2.9380   17.5230    1.2910 C.3    49  U49         0.1812
    733  O5'        4.0540   17.1600    0.4830 O.3    49  U49        -0.3114
    734  C4'        3.3050   17.4080    2.7530 C.3    49  U49         0.1773
    735  O4'        3.2730   16.0140    3.1710 O.3    49  U49        -0.3307
    736  C3'        4.7070   17.9060    3.0950 C.3    49  U49         0.1860
    737  O3'        4.6910   18.6300    4.3160 O.3    49  U49        -0.3112
    738  C2'        5.5090   16.6200    3.2430 C.3    49  U49         0.2309
    739  O2'        6.6160   16.7640    4.1040 O.3    49  U49        -0.2156
    740  C1'        4.4640   15.7050    3.8690 C.3    49  U49         0.2420
    741  N1         4.7320   14.2650    3.7270 N.ar   49  U49        -0.2534
    742  C2         4.4440   13.4560    4.8100 C.ar   49  U49         0.3546
    743  O2         4.0390   13.8960    5.8780 O.2    49  U49        -0.2443
    744  N3         4.6550   12.1170    4.6080 N.ar   49  U49        -0.1530
    745  C4         5.1360   11.5110    3.4630 C.ar   49  U49         0.2846
    746  O4         5.1950   10.2810    3.4120 O.2    49  U49        -0.2650
    747  C5         5.4510   12.4140    2.4000 C.ar   49  U49         0.0814
    748  C6         5.2380   13.7300    2.5600 C.ar   49  U49         0.0870
    749  OP1        3.8660   19.0670   -1.1390 O.3    49  U49        -0.4373
    750  OP2        5.4600   17.1040   -1.5600 O.co2  49  U49        -0.5172
    751  P          5.6850   19.8750    4.5000 P.3    50  C50         0.2141
    752  C5'        4.3570   21.0190    6.4330 C.3    50  C50         0.1812
    753  O5'        5.5020   20.2910    6.0160 O.3    50  C50        -0.3114
    754  C4'        4.0730   20.7170    7.8750 C.3    50  C50         0.1773
    755  O4'        3.6050   19.3420    7.9710 O.3    50  C50        -0.3307
    756  C3'        5.3040   20.7350    8.7650 C.3    50  C50         0.1860
    757  O3'        5.6340   22.0580    9.1740 O.3    50  C50        -0.3112
    758  C2'        4.8600   19.8520    9.9210 C.3    50  C50         0.2309
    759  O2'        4.0100   20.5060   10.8350 O.3    50  C50        -0.2156
    760  C1'        4.0580   18.7770    9.1860 C.3    50  C50         0.2420
    761  N1         4.8620   17.5910    8.8810 N.ar   50  C50        -0.2535
    762  C2         5.3110   16.8150    9.9440 C.ar   50  C50         0.3532
    763  O2         5.0110   17.1620   11.0970 O.2    50  C50        -0.2443
    764  N3         6.0600   15.7110    9.6950 N.ar   50  C50        -0.1739
    765  C4         6.3430   15.3700    8.4360 C.ar   50  C50         0.1759
    766  N4         7.0420   14.2530    8.2340 N.pl3  50  C50        -0.1070
    767  C5         5.9050   16.1520    7.3240 C.ar   50  C50         0.0566
    768  C6         5.1710   17.2460    7.5900 C.ar   50  C50         0.0850
    769  OP1        5.1900   21.0070    3.6750 O.2    50  C50        -0.5172
    770  OP2        7.0860   19.3860    4.3080 O.co2  50  C50        -0.4373
    771  P          7.1740   22.5310    9.1700 P.3    51  U51         0.2141
    772  C5'        7.6460   21.5040   11.5300 C.3    51  U51         0.1812
    773  O5'        7.8950   21.4870   10.1310 O.3    51  U51        -0.3114
    774  C4'        8.2130   20.2640   12.1790 C.3    51  U51         0.1773
    775  O4'        7.6370   19.0750   11.5640 O.3    51  U51        -0.3307
    776  C3'        9.7110   20.0520   12.0280 C.3    51  U51         0.1860
    777  O3'       10.4340   20.8220   12.9860 O.3    51  U51        -0.3112
    778  C2'        9.8180   18.5640   12.3280 C.3    51  U51         0.2309
    779  O2'        9.6840   18.3010   13.7130 O.3    51  U51        -0.2156
    780  C1'        8.5910   18.0250   11.5880 C.3    51  U51         0.2420
    781  N1         8.8800   17.6160   10.2030 N.ar   51  U51        -0.2534
    782  C2         9.4830   16.3880   10.0200 C.ar   51  U51         0.3546
    783  O2         9.8130   15.6730   10.9430 O.2    51  U51        -0.2443
    784  N3         9.7000   16.0310    8.7140 N.ar   51  U51        -0.1530
    785  C4         9.3970   16.7610    7.5960 C.ar   51  U51         0.2846
    786  O4         9.5960   16.2640    6.4870 O.2    51  U51        -0.2650
    787  C5         8.8000   18.0350    7.8580 C.ar   51  U51         0.0814
    788  C6         8.5650   18.4110    9.1260 C.ar   51  U51         0.0870
    789  OP1        7.2410   23.8730    9.8220 O.3    51  U51        -0.4373
    790  OP2        7.7180   22.3510    7.8000 O.co2  51  U51        -0.5172
    791  P         11.9440   21.2940   12.6650 P.3    52  A52         0.2141
    792  C5'       12.9190   19.1740   13.8470 C.3    52  A52         0.1812
    793  O5'       12.7840   19.9450   12.6590 O.3    52  A52        -0.3114
    794  C4'       13.5420   17.8450   13.5200 C.3    52  A52         0.1773
    795  O4'       12.6980   17.1890   12.5440 O.3    52  A52        -0.3307
    796  C3'       14.9050   17.9280   12.8490 C.3    52  A52         0.1860
    797  O3'       15.9190   17.9630   13.8410 O.3    52  A52        -0.3112
    798  C2'       14.9580   16.6190   12.0670 C.3    52  A52         0.2309
    799  O2'       15.3200   15.5300   12.9020 O.3    52  A52        -0.2156
    800  C1'       13.4960   16.4600   11.6320 C.3    52  A52         0.2408
    801  N1        13.7600   15.4390    6.6160 N.ar   52  A52        -0.2040
    802  C2        14.2170   14.7930    7.6940 C.ar   52  A52         0.2016
    803  N3        14.1390   15.1380    8.9770 N.ar   52  A52        -0.2048
    804  C4        13.4960   16.3010    9.1130 C.ar   52  A52         0.1692
    805  C5        12.9870   17.0940    8.1010 C.ar   52  A52         0.1518
    806  C6        13.1370   16.6220    6.7890 C.ar   52  A52         0.1919
    807  N6        12.7020   17.2760    5.7060 N.pl3  52  A52        -0.1054
    808  N7        12.4080   18.2400    8.6240 N.ar   52  A52        -0.2193
    809  C8        12.5610   18.1080    9.9190 C.ar   52  A52         0.1816
    810  N9        13.1990   16.9490   10.2850 N.ar   52  A52        -0.2693
    811  OP1       12.4190   22.1030   13.8220 O.3    52  A52        -0.4373
    812  OP2       11.9710   21.8740   11.2980 O.co2  52  A52        -0.5172
    813  P         17.1390   19.0010   13.7110 P.3    53  C53         0.2141
    814  C5'       18.7520   17.1300   12.7780 C.3    53  C53         0.1812
    815  O5'       18.0900   18.3830   12.5860 O.3    53  C53        -0.3114
    816  C4'       19.1670   16.5450   11.4420 C.3    53  C53         0.1773
    817  O4'       17.9650   16.2170   10.6900 O.3    53  C53        -0.3307
    818  C3'       19.9430   17.4610   10.4950 C.3    53  C53         0.1860
    819  O3'       21.3490   17.4510   10.7570 O.3    53  C53        -0.3112
    820  C2'       19.6880   16.7860    9.1510 C.3    53  C53         0.2309
    821  O2'       20.5010   15.6420    8.9600 O.3    53  C53        -0.2156
    822  C1'       18.2230   16.3640    9.2970 C.3    53  C53         0.2420
    823  N1        17.3010   17.3820    8.7640 N.ar   53  C53        -0.2535
    824  C2        16.8860   17.2750    7.4410 C.ar   53  C53         0.3532
    825  O2        17.3050   16.3240    6.7630 O.2    53  C53        -0.2443
    826  N3        16.0460   18.2100    6.9310 N.ar   53  C53        -0.1739
    827  C4        15.6280   19.2180    7.6990 C.ar   53  C53         0.1759
    828  N4        14.8100   20.1200    7.1600 N.pl3  53  C53        -0.1070
    829  C5        16.0350   19.3470    9.0600 C.ar   53  C53         0.0566
    830  C6        16.8660   18.4150    9.5440 C.ar   53  C53         0.0850
    831  OP1       17.8510   18.9850   15.0180 O.3    53  C53        -0.4373
    832  OP2       16.6330   20.2870   13.1660 O.co2  53  C53        -0.5172
    833  P         22.0540   18.7180   11.4550 P.3    54  C54         0.2141
    834  C5'       23.1790   17.2250   13.3160 C.3    54  C54         0.1812
    835  O5'       22.2430   18.2550   12.9700 O.3    54  C54        -0.3114
    836  C4'       22.5970   16.3190   14.3840 C.3    54  C54         0.1773
    837  O4'       21.5540   15.4920   13.8000 O.3    54  C54        -0.3307
    838  C3'       23.5670   15.3290   15.0230 C.3    54  C54         0.1860
    839  O3'       24.2570   15.9210   16.1230 O.3    54  C54        -0.3112
    840  C2'       22.6300   14.2240   15.4950 C.3    54  C54         0.2309
    841  O2'       21.9550   14.5010   16.7080 O.3    54  C54        -0.2156
    842  C1'       21.6140   14.1820   14.3510 C.3    54  C54         0.2420
    843  N1        21.9950   13.2300   13.2870 N.ar   54  C54        -0.2535
    844  C2        21.9660   11.8660   13.5680 C.ar   54  C54         0.3532
    845  O2        21.6280   11.5010   14.6950 O.2    54  C54        -0.2443
    846  N3        22.3080   10.9800   12.6030 N.ar   54  C54        -0.1739
    847  C4        22.6750   11.4150   11.3990 C.ar   54  C54         0.1759
    848  N4        23.0090   10.5080   10.4750 N.pl3  54  C54        -0.1070
    849  C5        22.7170   12.7980   11.0840 C.ar   54  C54         0.0566
    850  C6        22.3690   13.6640   12.0510 C.ar   54  C54         0.0850
    851  OP1       21.1250   19.8760   11.4340 O.3    54  C54        -0.4373
    852  OP2       23.4040   18.8560   10.8610 O.co2  54  C54        -0.5172
    853  P         25.6980   15.3480   16.5730 P.3    55  G55         0.2141
    854  C5'       24.9070   13.8610   18.5960 C.3    55  G55         0.1812
    855  O5'       25.3770   13.9440   17.2540 O.3    55  G55        -0.3114
    856  C4'       24.9040   12.4250   19.0610 C.3    55  G55         0.1773
    857  O4'       24.0330   11.6350   18.1990 O.3    55  G55        -0.3307
    858  C3'       26.2310   11.6920   18.9530 C.3    55  G55         0.1860
    859  O3'       27.0810   12.0120   20.0450 O.3    55  G55        -0.3112
    860  C2'       25.7610   10.2500   19.0070 C.3    55  G55         0.2309
    861  O2'       25.3290    9.8750   20.3030 O.3    55  G55        -0.2156
    862  C1'       24.5550   10.3210   18.0690 C.3    55  G55         0.2408
    863  N1        25.3330    6.8810   14.4390 N.ar   55  G55        -0.1709
    864  C2        25.1420    6.6980   15.7840 C.ar   55  G55         0.2606
    865  N2        25.0870    5.4200   16.2130 N.pl3  55  G55        -0.0859
    866  N3        25.0020    7.6870   16.6460 N.ar   55  G55        -0.1918
    867  C4        25.0660    8.8900   16.0460 C.ar   55  G55         0.1723
    868  C5        25.2660    9.1810   14.7100 C.ar   55  G55         0.1748
    869  C6        25.3990    8.1090   13.7940 C.ar   55  G55         0.3023
    870  O6        25.5320    8.1500   12.5670 O.2    55  G55        -0.2633
    871  N7        25.2720   10.5480   14.5010 N.ar   55  G55        -0.2173
    872  C8        25.0490   11.0570   15.6870 C.ar   55  G55         0.1817
    873  N9        24.8880   10.1080   16.6620 N.ar   55  G55        -0.2693
    874  OP1       26.2250   16.2770   17.6130 O.3    55  G55        -0.4373
    875  OP2       26.4790   15.0950   15.3520 O.co2  55  G55        -0.5172
    876  P         28.6630   12.1140   19.8100 P.3    56  G56         0.2141
    877  C5'       29.1250    9.8440   21.0550 C.3    56  G56         0.1812
    878  O5'       29.1700   10.6010   19.8440 O.3    56  G56        -0.3114
    879  C4'       29.1900    8.3540   20.7630 C.3    56  G56         0.1773
    880  O4'       28.0580    7.9520   19.9400 O.3    56  G56        -0.3307
    881  C3'       30.3930    7.8230   19.9940 C.3    56  G56         0.1860
    882  O3'       31.5090    7.6560   20.8640 O.3    56  G56        -0.3112
    883  C2'       29.8510    6.4840   19.5200 C.3    56  G56         0.2309
    884  O2'       29.7150    5.5640   20.5910 O.3    56  G56        -0.2156
    885  C1'       28.4570    6.9080   19.0560 C.3    56  G56         0.2408
    886  N1        28.6240    5.8200   14.1090 N.ar   56  G56        -0.1709
    887  C2        28.5670    4.9690   15.1890 C.ar   56  G56         0.2606
    888  N2        28.5780    3.6580   14.9090 N.pl3  56  G56        -0.0859
    889  N3        28.5140    5.3740   16.4440 N.ar   56  G56        -0.1918
    890  C4        28.5250    6.7190   16.5390 C.ar   56  G56         0.1723
    891  C5        28.5880    7.6530   15.5270 C.ar   56  G56         0.1748
    892  C6        28.6500    7.2050   14.1860 C.ar   56  G56         0.3023
    893  O6        28.7250    7.8830   13.1460 O.2    56  G56        -0.2633
    894  N7        28.5860    8.9380   16.0410 N.ar   56  G56        -0.2173
    895  C8        28.5220    8.7670   17.3330 C.ar   56  G56         0.1817
    896  N9        28.4910    7.4430   17.7000 N.ar   56  G56        -0.2693
    897  OP1       29.1940   12.8210   21.0040 O.3    56  G56        -0.4373
    898  OP2       28.9570   12.6240   18.4570 O.co2  56  G56        -0.5172
    899  P         32.9900    7.6090   20.2640 P.3    57  G57         0.2141
    900  C5'       33.0650    4.9710   20.2400 C.3    57  G57         0.1812
    901  O5'       33.1030    6.1990   19.5200 O.3    57  G57        -0.3114
    902  C4'       33.0190    3.7920   19.2830 C.3    57  G57         0.1773
    903  O4'       31.8440    3.8800   18.4250 O.3    57  G57        -0.3307
    904  C3'       34.1630    3.6780   18.2900 C.3    57  G57         0.1860
    905  O3'       35.3150    3.0960   18.8960 O.3    57  G57        -0.3112
    906  C2'       33.5520    2.7520   17.2500 C.3    57  G57         0.2309
    907  O2'       33.4790    1.3960   17.6850 O.3    57  G57        -0.2156
    908  C1'       32.1540    3.3610   17.1320 C.3    57  G57         0.2408
    909  N1        32.0410    4.5910   12.2020 N.ar   57  G57        -0.1709
    910  C2        32.1720    3.3490   12.7870 C.ar   57  G57         0.2606
    911  N2        32.2840    2.2900   11.9490 N.pl3  57  G57        -0.0859
    912  N3        32.1950    3.1540   14.1040 N.ar   57  G57        -0.1918
    913  C4        32.0930    4.3150   14.7810 C.ar   57  G57         0.1723
    914  C5        31.9640    5.5980   14.2830 C.ar   57  G57         0.1748
    915  C6        31.9190    5.7930   12.8920 C.ar   57  G57         0.3023
    916  O6        31.7860    6.8670   12.2720 O.2    57  G57        -0.2633
    917  N7        31.9070    6.5260   15.3140 N.ar   57  G57        -0.2173
    918  C8        31.9870    5.8010   16.4030 C.ar   57  G57         0.1817
    919  N9        32.0860    4.4530   16.1520 N.ar   57  G57        -0.2693
    920  OP1       33.8990    7.6370   21.4360 O.3    57  G57        -0.4373
    921  OP2       33.1120    8.6580   19.2200 O.co2  57  G57        -0.5172
    922  P         36.7740    3.6520   18.5460 P.3    58  C58         0.2141
    923  C5'       37.1640    1.8630   16.6900 C.3    58  C58         0.1812
    924  O5'       37.0000    3.2200   17.0330 O.3    58  C58        -0.3114
    925  C4'       37.0060    1.6910   15.2090 C.3    58  C58         0.1773
    926  O4'       35.6940    2.1660   14.7890 O.3    58  C58        -0.3307
    927  C3'       37.9590    2.4930   14.3410 C.3    58  C58         0.1860
    928  O3'       39.2470    1.8850   14.2700 O.3    58  C58        -0.3112
    929  C2'       37.2280    2.4140   13.0140 C.3    58  C58         0.2309
    930  O2'       37.2950    1.1200   12.4360 O.3    58  C58        -0.2156
    931  C1'       35.7970    2.7060   13.4700 C.3    58  C58         0.2420
    932  N1        35.5370    4.1570   13.5220 N.ar   58  C58        -0.2535
    933  C2        35.3140    4.8090   12.3310 C.ar   58  C58         0.3532
    934  O2        35.3410    4.1210   11.2780 O.2    58  C58        -0.2443
    935  N3        35.0780    6.1490   12.3310 N.ar   58  C58        -0.1739
    936  C4        35.0560    6.8190   13.4870 C.ar   58  C58         0.1759
    937  N4        34.7840    8.1290   13.4590 N.pl3  58  C58        -0.1070
    938  C5        35.2990    6.1690   14.7370 C.ar   58  C58         0.0566
    939  C6        35.5230    4.8440   14.7050 C.ar   58  C58         0.0850
    940  OP1       37.7570    2.8910   19.3540 O.3    58  C58        -0.4373
    941  OP2       36.8020    5.1290   18.5690 O.co2  58  C58        -0.5172
    942  P         40.5580    2.7920   14.0700 P.3    59  A59         0.2141
    943  C5'       40.5900    2.2240   11.5060 C.3    59  A59         0.1812
    944  O5'       40.5260    3.2070   12.5330 O.3    59  A59        -0.3114
    945  C4'       40.1810    2.8360   10.1850 C.3    59  A59         0.1773
    946  O4'       38.8760    3.4540   10.3460 O.3    59  A59        -0.3307
    947  C3'       41.0770    3.9560    9.6740 C.3    59  A59         0.1860
    948  O3'       42.1360    3.4110    8.8910 O.3    59  A59        -0.3112
    949  C2'       40.1290    4.7400    8.7790 C.3    59  A59         0.2309
    950  O2'       39.9730    4.1460    7.4960 O.3    59  A59        -0.2156
    951  C1'       38.8260    4.6490    9.5720 C.3    59  A59         0.2408
    952  N1        37.5910    9.6060    9.9010 N.ar   59  A59        -0.2040
    953  C2        37.8340    8.8070    8.8590 C.ar   59  A59         0.2016
    954  N3        38.1950    7.5330    8.8450 N.ar   59  A59        -0.2048
    955  C4        38.3170    7.0630   10.0940 C.ar   59  A59         0.1692
    956  C5        38.1140    7.7670   11.2610 C.ar   59  A59         0.1518
    957  C6        37.7190    9.0980   11.1410 C.ar   59  A59         0.1919
    958  N6        37.4470    9.8870   12.1960 N.pl3  59  A59        -0.1054
    959  N7        38.3370    6.9620   12.3680 N.ar   59  A59        -0.2193
    960  C8        38.6540    5.7970   11.8480 C.ar   59  A59         0.1816
    961  N9        38.6280    5.7820   10.4760 N.ar   59  A59        -0.2693
    962  OP1       41.7450    1.9190   14.2720 O.2    59  A59        -0.5172
    963  OP2       40.4080    4.0120   14.9010 O.co2  59  A59        -0.4373
    964  P         43.5650    4.1320    8.8530 P.3    60  C60         0.2141
    965  C5'       42.8610    5.6470    6.8070 C.3    60  C60         0.1812
    966  O5'       43.3130    5.5370    8.1500 O.3    60  C60        -0.3114
    967  C4'       42.4870    7.0850    6.5240 C.3    60  C60         0.1773
    968  O4'       41.2970    7.4230    7.3010 O.3    60  C60        -0.3307
    969  C3'       43.5090    8.1000    7.0140 C.3    60  C60         0.1860
    970  O3'       44.5700    8.2380    6.0850 O.3    60  C60        -0.3112
    971  C2'       42.6610    9.3600    7.1390 C.3    60  C60         0.2309
    972  O2'       42.3350    9.9540    5.8900 O.3    60  C60        -0.2156
    973  C1'       41.3820    8.7750    7.7390 C.3    60  C60         0.2420
    974  N1        41.3790    8.7810    9.2070 N.ar   60  C60        -0.2535
    975  C2        40.9960    9.9490    9.8790 C.ar   60  C60         0.3532
    976  O2        40.7590   10.9690    9.2290 O.2    60  C60        -0.2443
    977  N3        40.9110    9.9450   11.2180 N.ar   60  C60        -0.1739
    978  C4        41.2330    8.8420   11.9030 C.ar   60  C60         0.1759
    979  N4        41.1170    8.8790   13.2380 N.pl3  60  C60        -0.1070
    980  C5        41.6820    7.6510   11.2500 C.ar   60  C60         0.0566
    981  C6        41.7310    7.6600    9.9120 C.ar   60  C60         0.0850
    982  OP1       44.4160    3.2890    7.9730 O.2    60  C60        -0.5172
    983  OP2       44.0100    4.4160   10.2270 O.co2  60  C60        -0.4373
    984  P         46.0020    8.7540    6.5840 P.3    61  C61         0.2141
    985  C5'       45.5120   11.1300    5.5640 C.3    61  C61         0.1812
    986  O5'       45.8560   10.3370    6.6890 O.3    61  C61        -0.3114
    987  C4'       45.0900   12.5070    6.0260 C.3    61  C61         0.1773
    988  O4'       43.9730   12.3740    6.9480 O.3    61  C61        -0.3307
    989  C3'       46.1400   13.2640    6.8210 C.3    61  C61         0.1860
    990  O3'       46.9980   13.9640    5.9320 O.3    61  C61        -0.3112
    991  C2'       45.2750   14.2440    7.6110 C.3    61  C61         0.2309
    992  O2'       44.8510   15.3030    6.7820 O.3    61  C61        -0.2156
    993  C1'       44.0610   13.3760    7.9490 C.3    61  C61         0.2420
    994  N1        44.1230   12.7030    9.2560 N.ar   61  C61        -0.2535
    995  C2        43.6550   13.3840   10.3810 C.ar   61  C61         0.3532
    996  O2        43.3170   14.5800   10.2630 O.2    61  C61        -0.2443
    997  N3        43.5790   12.7310   11.5640 N.ar   61  C61        -0.1739
    998  C4        43.9820   11.4540   11.6470 C.ar   61  C61         0.1759
    999  N4        43.8400   10.8270   12.8200 N.pl3  61  C61        -0.1070
   1000  C5        44.5290   10.7630   10.5340 C.ar   61  C61         0.0566
   1001  C6        44.5800   11.4200    9.3640 C.ar   61  C61         0.0850
   1002  OP1       46.9850    8.4330    5.5100 O.2    61  C61        -0.5172
   1003  OP2       46.2540    8.2790    7.9810 O.co2  61  C61        -0.4373
   1004  P         48.5670   13.6420    5.9130 P.3    62  G62         0.2141
   1005  C5'       50.5080   14.9050    7.1540 C.3    62  G62         0.1812
   1006  O5'       49.1350   14.5220    7.1140 O.3    62  G62        -0.3114
   1007  C4'       50.8800   15.3800    8.5380 C.3    62  G62         0.1773
   1008  O4'       50.6400   14.3040    9.4850 O.3    62  G62        -0.3307
   1009  C3'       52.3440   15.7670    8.7210 C.3    62  G62         0.1860
   1010  O3'       52.4250   16.8110    9.6810 O.3    62  G62        -0.3112
   1011  C2'       52.9470   14.4920    9.2970 C.3    62  G62         0.2309
   1012  O2'       54.1080   14.7420   10.0580 O.3    62  G62        -0.2156
   1013  C1'       51.8140   14.0380   10.2130 C.3    62  G62         0.2408
   1014  N1        50.6370   10.6080   13.7540 N.ar   62  G62        -0.1709
   1015  C2        50.4820   11.9690   13.7700 C.ar   62  G62         0.2606
   1016  N2        49.9600   12.4970   14.8840 N.pl3  62  G62        -0.0859
   1017  N3        50.8210   12.7640   12.7680 N.ar   62  G62        -0.1918
   1018  C4        51.3550   12.0780   11.7370 C.ar   62  G62         0.1723
   1019  C5        51.5620   10.7220   11.6220 C.ar   62  G62         0.1748
   1020  C6        51.1820    9.8780   12.6970 C.ar   62  G62         0.3023
   1021  O6        51.2810    8.6430   12.7820 O.2    62  G62        -0.2633
   1022  N7        52.1380   10.4140   10.3940 N.ar   62  G62        -0.2173
   1023  C8        52.2720   11.5690    9.8020 C.ar   62  G62         0.1817
   1024  N9        51.8180   12.6210   10.5630 N.ar   62  G62        -0.2693
   1025  OP1       49.0770   14.1870    4.6240 O.2    62  G62        -0.5172
   1026  OP2       48.7700   12.2060    6.2380 O.co2  62  G62        -0.4373
   1027  P         53.1700   18.1800    9.3130 P.3    63  U63         0.2141
   1028  C5'       50.9090   19.4480    8.9130 C.3    63  U63         0.1812
   1029  O5'       52.1130   19.3140    9.6560 O.3    63  U63        -0.3114
   1030  C4'       49.9350   20.2790    9.6980 C.3    63  U63         0.1773
   1031  O4'       49.1120   19.3800   10.4950 O.3    63  U63        -0.3307
   1032  C3'       50.6190   21.2100   10.6970 C.3    63  U63         0.1860
   1033  O3'       49.8340   22.3680   10.8990 O.3    63  U63        -0.3112
   1034  C2'       50.6480   20.3630   11.9630 C.3    63  U63         0.2309
   1035  O2'       50.7390   21.1210   13.1500 O.3    63  U63        -0.2156
   1036  C1'       49.2890   19.6740   11.8680 C.3    63  U63         0.2420
   1037  N1        49.2030   18.4230   12.6340 N.ar   63  U63        -0.2534
   1038  C2        48.5680   18.4790   13.8590 C.ar   63  U63         0.3546
   1039  O2        48.0870   19.5120   14.3000 O.2    63  U63        -0.2443
   1040  N3        48.5140   17.2880   14.5450 N.ar   63  U63        -0.1530
   1041  C4        49.0290   16.0730   14.1360 C.ar   63  U63         0.2846
   1042  O4        48.9570   15.0970   14.8910 O.2    63  U63        -0.2650
   1043  C5        49.6640   16.0960   12.8500 C.ar   63  U63         0.0814
   1044  C6        49.7270   17.2440   12.1600 C.ar   63  U63         0.0870
   1045  OP1       53.4100   18.2000    7.8460 O.2    63  U63        -0.5172
   1046  OP2       54.3070   18.3360   10.2460 O.co2  63  U63        -0.4373
   1047  P         50.3100   23.7760   10.2860 P.3    64  A64         0.2141
   1048  C5'       48.1120   24.0500    8.8970 C.3    64  A64         0.1812
   1049  O5'       49.5200   23.8970    8.9150 O.3    64  A64        -0.3114
   1050  C4'       47.5680   23.5020    7.6100 C.3    64  A64         0.1773
   1051  O4'       47.8420   22.0800    7.5410 O.3    64  A64        -0.3307
   1052  C3'       46.0720   23.6800    7.4200 C.3    64  A64         0.1860
   1053  O3'       45.8890   24.8140    6.5740 O.3    64  A64        -0.3112
   1054  C2'       45.6640   22.3970    6.7000 C.3    64  A64         0.2309
   1055  O2'       45.9090   22.4930    5.3090 O.3    64  A64        -0.2156
   1056  C1'       46.6440   21.3800    7.2860 C.3    64  A64         0.2408
   1057  N1        46.6830   16.9240    9.8080 N.ar   64  A64        -0.2040
   1058  C2        47.0310   17.2570    8.5590 C.ar   64  A64         0.2016
   1059  N3        46.9590   18.4430    7.9530 N.ar   64  A64        -0.2048
   1060  C4        46.4490   19.3680    8.7820 C.ar   64  A64         0.1692
   1061  C5        46.0440   19.1750   10.0870 C.ar   64  A64         0.1518
   1062  C6        46.1880   17.8830   10.6160 C.ar   64  A64         0.1919
   1063  N6        45.8790   17.5680   11.8800 N.pl3  64  A64        -0.1054
   1064  N7        45.5710   20.3580   10.6300 N.ar   64  A64        -0.2193
   1065  C8        45.7110   21.2290    9.6600 C.ar   64  A64         0.1816
   1066  N9        46.2580   20.7040    8.5230 N.ar   64  A64        -0.2693
   1067  OP1       51.7480   23.6730    9.9450 O.2    64  A64        -0.5172
   1068  OP2       49.8280   24.8360   11.2050 O.co2  64  A64        -0.4373
   1069  P         44.5880   25.7320    6.7330 P.3    65  A65         0.2141
   1070  C5'       43.4140   24.6460    4.6560 C.3    65  A65         0.1812
   1071  O5'       43.4360   24.8730    6.0610 O.3    65  A65        -0.3114
   1072  C4'       42.4310   23.5480    4.3300 C.3    65  A65         0.1773
   1073  O4'       42.7980   22.3480    5.0860 O.3    65  A65        -0.3307
   1074  C3'       40.9740   23.8340    4.7080 C.3    65  A65         0.1860
   1075  O3'       40.1400   23.1060    3.8090 O.3    65  A65        -0.3112
   1076  C2'       40.8850   23.1710    6.0780 C.3    65  A65         0.2309
   1077  O2'       39.5680   22.8850    6.5250 O.3    65  A65        -0.2156
   1078  C1'       41.6560   21.8940    5.7830 C.3    65  A65         0.2408
   1079  N1        43.0800   17.2380    7.3920 N.ar   65  A65        -0.2040
   1080  C2        42.8280   17.7410    6.1730 C.ar   65  A65         0.2016
   1081  N3        42.4920   18.9840    5.8250 N.ar   65  A65        -0.2048
   1082  C4        42.4250   19.7750    6.9050 C.ar   65  A65         0.1692
   1083  C5        42.6550   19.4110    8.2190 C.ar   65  A65         0.1518
   1084  C6        42.9800   18.0580    8.4590 C.ar   65  A65         0.1919
   1085  N6        43.1710   17.5420    9.6720 N.pl3  65  A65        -0.1054
   1086  N7        42.4910   20.5010    9.0670 N.ar   65  A65        -0.2193
   1087  C8        42.1500   21.4800    8.2600 C.ar   65  A65         0.1816
   1088  N9        42.0710   21.1020    6.9370 N.ar   65  A65        -0.2693
   1089  OP1       44.7650   26.9600    5.9100 O.2    65  A65        -0.5172
   1090  OP2       44.2750   25.8670    8.1920 O.co2  65  A65        -0.4373
   1091  P         38.8860   23.8020    3.1070 P.3    66  A66         0.2141
   1092  C5'       37.4270   21.8680    4.1580 C.3    66  A66         0.1812
   1093  O5'       37.8040   22.6360    3.0110 O.3    66  A66        -0.3114
   1094  C4'       37.7190   20.4050    3.9030 C.3    66  A66         0.1773
   1095  O4'       39.0670   20.0860    4.3450 O.3    66  A66        -0.3307
   1096  C3'       36.8860   19.4240    4.6850 C.3    66  A66         0.1860
   1097  O3'       35.5640   19.3180    4.1770 O.3    66  A66        -0.3112
   1098  C2'       37.7200   18.1630    4.5260 C.3    66  A66         0.2309
   1099  O2'       37.6650   17.6060    3.2310 O.3    66  A66        -0.2156
   1100  C1'       39.1130   18.7300    4.8010 C.3    66  A66         0.2408
   1101  N1        39.8600   15.6700    8.8020 N.ar   66  A66        -0.2040
   1102  C2        39.8720   15.4640    7.4910 C.ar   66  A66         0.2016
   1103  N3        39.7200   16.3340    6.5020 N.ar   66  A66        -0.2048
   1104  C4        39.5460   17.5740    6.9820 C.ar   66  A66         0.1692
   1105  C5        39.5180   17.9550    8.3070 C.ar   66  A66         0.1518
   1106  C6        39.6690   16.9300    9.2620 C.ar   66  A66         0.1919
   1107  N6        39.6100   17.1240   10.5850 N.pl3  66  A66        -0.1054
   1108  N7        39.3260   19.3210    8.4190 N.ar   66  A66        -0.2193
   1109  C8        39.2200   19.7260    7.1730 C.ar   66  A66         0.1816
   1110  N9        39.3100   18.7130    6.2560 N.ar   66  A66        -0.2693
   1111  OP1       39.2750   24.1080    1.6990 O.2    66  A66        -0.5172
   1112  OP2       38.3050   24.8660    3.9530 O.co2  66  A66        -0.4373
   1113  P         34.3420   19.3420    5.1930 P.3    67  U67         0.2141
   1114  C5'       34.0630   16.9100    6.1530 C.3    67  U67         0.1812
   1115  O5'       34.7070   18.1710    6.2060 O.3    67  U67        -0.3114
   1116  C4'       34.9470   15.8950    5.4590 C.3    67  U67         0.1773
   1117  O4'       36.2270   15.7360    6.1320 O.3    67  U67        -0.3307
   1118  C3'       34.3640   14.4880    5.4080 C.3    67  U67         0.1860
   1119  O3'       33.4690   14.4150    4.2930 O.3    67  U67        -0.3112
   1120  C2'       35.6200   13.6550    5.2120 C.3    67  U67         0.2309
   1121  O2'       36.0920   13.7450    3.8810 O.3    67  U67        -0.2156
   1122  C1'       36.5970   14.3680    6.1510 C.3    67  U67         0.2420
   1123  N1        36.5420   13.9050    7.5450 N.ar   67  U67        -0.2534
   1124  C2        36.9410   12.6030    7.8240 C.ar   67  U67         0.3546
   1125  O2        37.3130   11.8170    6.9570 O.2    67  U67        -0.2443
   1126  N3        36.8880   12.2530    9.1530 N.ar   67  U67        -0.1530
   1127  C4        36.4910   13.0530   10.2070 C.ar   67  U67         0.2846
   1128  O4        36.4810   12.5870   11.3560 O.2    67  U67        -0.2650
   1129  C5        36.0880   14.3720    9.8330 C.ar   67  U67         0.0814
   1130  C6        36.1220   14.7420    8.5440 C.ar   67  U67         0.0870
   1131  OP1       33.1090   18.9990    4.4260 O.2    67  U67        -0.5172
   1132  OP2       34.4030   20.6070    5.9580 O.co2  67  U67        -0.4373
   1133  P         32.1550   13.4960    4.3660 P.3    68  G68         0.2141
   1134  C5'       33.1890   11.5060    3.0130 C.3    68  G68         0.1812
   1135  O5'       32.7060   12.0070    4.2600 O.3    68  G68        -0.3114
   1136  C4'       33.8090   10.1420    3.2060 C.3    68  G68         0.1773
   1137  O4'       34.8290   10.2350    4.2350 O.3    68  G68        -0.3307
   1138  C3'       32.8360    9.1100    3.7530 C.3    68  G68         0.1860
   1139  O3'       32.1070    8.5080    2.7020 O.3    68  G68        -0.3112
   1140  C2'       33.7840    8.1120    4.3890 C.3    68  G68         0.2309
   1141  O2'       34.3770    7.2710    3.4190 O.3    68  G68        -0.2156
   1142  C1'       34.8090    9.0530    5.0280 C.3    68  G68         0.2408
   1143  N1        34.7670    7.4780    9.8500 N.ar   68  G68        -0.1709
   1144  C2        35.0800    6.7870    8.7000 C.ar   68  G68         0.2606
   1145  N2        35.4420    5.5100    8.8420 N.pl3  68  G68        -0.0859
   1146  N3        35.0240    7.3150    7.4840 N.ar   68  G68        -0.1918
   1147  C4        34.5960    8.5950    7.5060 C.ar   68  G68         0.1723
   1148  C5        34.2300    9.3660    8.5870 C.ar   68  G68         0.1748
   1149  C6        34.3160    8.8010    9.8920 C.ar   68  G68         0.3023
   1150  O6        34.0500    9.3300   10.9780 O.2    68  G68        -0.2633
   1151  N7        33.8220   10.6300    8.1730 N.ar   68  G68        -0.2173
   1152  C8        33.9760   10.6080    6.8740 C.ar   68  G68         0.1817
   1153  N9        34.4640    9.4150    6.4070 N.ar   68  G68        -0.2693
   1154  OP1       31.3620   13.7860    3.1440 O.2    68  G68        -0.5172
   1155  OP2       31.5180   13.6300    5.6930 O.co2  68  G68        -0.4373
   1156  P         30.6300    7.9320    2.9660 P.3    69  U69         0.2141
   1157  C5'       31.6760    5.5350    3.3710 C.3    69  U69         0.1812
   1158  O5'       30.8250    6.5990    3.8190 O.3    69  U69        -0.3114
   1159  C4'       31.9290    4.5590    4.5020 C.3    69  U69         0.1773
   1160  O4'       32.7490    5.2100    5.5090 O.3    69  U69        -0.3307
   1161  C3'       30.6950    4.1100    5.2710 C.3    69  U69         0.1860
   1162  O3'       30.0690    3.0070    4.6180 O.3    69  U69        -0.3112
   1163  C2'       31.3090    3.6950    6.6030 C.3    69  U69         0.2309
   1164  O2'       32.0190    2.4770    6.5420 O.3    69  U69        -0.2156
   1165  C1'       32.3390    4.7990    6.8020 C.3    69  U69         0.2420
   1166  N1        31.8290    5.9690    7.5320 N.ar   69  U69        -0.2534
   1167  C2        31.8820    5.9030    8.8980 C.ar   69  U69         0.3546
   1168  O2        32.2190    4.8890    9.4740 O.2    69  U69        -0.2443
   1169  N3        31.5030    7.0490    9.5610 N.ar   69  U69        -0.1530
   1170  C4        31.0400    8.2250    8.9960 C.ar   69  U69         0.2846
   1171  O4        30.8400    9.2150    9.7160 O.2    69  U69        -0.2650
   1172  C5        30.9460    8.1960    7.5590 C.ar   69  U69         0.0814
   1173  C6        31.3380    7.0940    6.8940 C.ar   69  U69         0.0870
   1174  OP1       30.1020    7.5500    1.6210 O.2    69  U69        -0.5172
   1175  OP2       29.8380    8.8430    3.8270 O.co2  69  U69        -0.4373
   1176  P         28.4840    2.7800    4.7630 P.3    70  C70         0.2141
   1177  C5'       28.8730    0.7340    6.3620 C.3    70  C70         0.1812
   1178  O5'       28.3200    2.0390    6.1580 O.3    70  C70        -0.3114
   1179  C4'       28.9270    0.4190    7.8420 C.3    70  C70         0.1773
   1180  O4'       29.7320    1.4130    8.5130 O.3    70  C70        -0.3307
   1181  C3'       27.6050    0.4930    8.5940 C.3    70  C70         0.1860
   1182  O3'       26.8820   -0.7190    8.4510 O.3    70  C70        -0.3112
   1183  C2'       28.0840    0.6390   10.0310 C.3    70  C70         0.2309
   1184  O2'       28.5830   -0.5940   10.5360 O.3    70  C70        -0.2156
   1185  C1'       29.2540    1.6050    9.8420 C.3    70  C70         0.2420
   1186  N1        28.9000    3.0320   10.0120 N.ar   70  C70        -0.2535
   1187  C2        28.8430    3.5590   11.3000 C.ar   70  C70         0.3532
   1188  O2        28.9600    2.7860   12.2720 O.2    70  C70        -0.2443
   1189  N3        28.6450    4.8930   11.4610 N.ar   70  C70        -0.1739
   1190  C4        28.4690    5.6730   10.3930 C.ar   70  C70         0.1759
   1191  N4        28.3080    6.9850   10.5930 N.pl3  70  C70        -0.1070
   1192  C5        28.4550    5.1460    9.0760 C.ar   70  C70         0.0566
   1193  C6        28.6670    3.8360    8.9310 C.ar   70  C70         0.0850
   1194  OP1       28.0970    1.8310    3.6700 O.2    70  C70        -0.5172
   1195  OP2       27.7610    4.0770    4.9070 O.co2  70  C70        -0.4373
   1196  P         25.3120   -0.6730    8.1450 P.3    71  C71         0.2141
   1197  C5'       24.6900   -1.5860   10.5030 C.3    71  C71         0.1812
   1198  O5'       24.6410   -0.5150    9.5690 O.3    71  C71        -0.3114
   1199  C4'       24.6250   -1.0500   11.9070 C.3    71  C71         0.1773
   1200  O4'       25.6980   -0.0940   12.1190 O.3    71  C71        -0.3307
   1201  C3'       23.3880   -0.2340   12.2550 C.3    71  C71         0.1860
   1202  O3'       22.3010   -1.0840   12.5810 O.3    71  C71        -0.3112
   1203  C2'       23.8690    0.4740   13.5060 C.3    71  C71         0.2309
   1204  O2'       23.9500   -0.4330   14.5930 O.3    71  C71        -0.2156
   1205  C1'       25.2750    0.8760   13.0740 C.3    71  C71         0.2420
   1206  N1        25.2550    2.2020   12.4320 N.ar   71  C71        -0.2535
   1207  C2        25.2860    3.3240   13.2500 C.ar   71  C71         0.3532
   1208  O2        25.2720    3.1660   14.4860 O.2    71  C71        -0.2443
   1209  N3        25.3010    4.5480   12.6950 N.ar   71  C71        -0.1739
   1210  C4        25.2550    4.6790   11.3660 C.ar   71  C71         0.1759
   1211  N4        25.2570    5.9070   10.8690 N.pl3  71  C71        -0.1070
   1212  C5        25.1960    3.5410   10.4950 C.ar   71  C71         0.0566
   1213  C6        25.2010    2.3320   11.0710 C.ar   71  C71         0.0850
   1214  OP1       24.9580   -2.0180    7.6190 O.3    71  C71        -0.4373
   1215  OP2       24.9280    0.5390    7.3660 O.co2  71  C71        -0.5172
   1216  P         20.8000   -0.5360   12.4960 P.3    72  G72         0.2141
   1217  C5'       20.7800    0.2830   14.9700 C.3    72  G72         0.1812
   1218  O5'       20.7410    0.6110   13.5920 O.3    72  G72        -0.3114
   1219  C4'       20.7320    1.5430   15.7860 C.3    72  G72         0.1773
   1220  O4'       21.8990    2.3500   15.4990 O.3    72  G72        -0.3307
   1221  C3'       19.5700    2.4610   15.4600 C.3    72  G72         0.1860
   1222  O3'       18.4300    1.9880   16.1670 O.3    72  G72        -0.3112
   1223  C2'       20.0740    3.7960   15.9910 C.3    72  G72         0.2309
   1224  O2'       19.9120    3.9210   17.3930 O.3    72  G72        -0.2156
   1225  C1'       21.5590    3.7260   15.6190 C.3    72  G72         0.2408
   1226  N1        22.1970    8.2070   13.4040 N.ar   72  G72        -0.1709
   1227  C2        22.0270    7.8870   14.7250 C.ar   72  G72         0.2606
   1228  N2        21.9520    8.9130   15.5870 N.pl3  72  G72        -0.0859
   1229  N3        21.9170    6.6540   15.1770 N.ar   72  G72        -0.1918
   1230  C4        21.9630    5.7470   14.1880 C.ar   72  G72         0.1723
   1231  C5        22.1200    5.9470   12.8380 C.ar   72  G72         0.1748
   1232  C6        22.2440    7.2870   12.3610 C.ar   72  G72         0.3023
   1233  O6        22.3540    7.6890   11.2040 O.2    72  G72        -0.2633
   1234  N7        22.0960    4.7350   12.1580 N.ar   72  G72        -0.2173
   1235  C8        21.9160    3.8450   13.0970 C.ar   72  G72         0.1817
   1236  N9        21.8140    4.3980   14.3480 N.ar   72  G72        -0.2693
   1237  OP1       19.8900   -1.6400   12.8930 O.3    72  G72        -0.4373
   1238  OP2       20.6000    0.1530   11.1770 O.co2  72  G72        -0.5172
   1239  P         16.9560    2.3480   15.6540 P.3    73  A73         0.2141
   1240  C5'       15.5230    4.4780   16.0680 C.3    73  A73         0.1812
   1241  O5'       16.7550    3.8130   16.2240 O.3    73  A73        -0.3114
   1242  C4'       15.6500    5.8900   16.5560 C.3    73  A73         0.1773
   1243  O4'       16.5900    6.6120   15.7180 O.3    73  A73        -0.3307
   1244  C3'       14.3660    6.6760   16.4560 C.3    73  A73         0.1860
   1245  O3'       13.6160    6.4440   17.6250 O.3    73  A73        -0.3112
   1246  C2'       14.8810    8.1000   16.3610 C.3    73  A73         0.2309
   1247  O2'       15.3480    8.5900   17.5960 O.3    73  A73        -0.2156
   1248  C1'       16.0920    7.9060   15.4550 C.3    73  A73         0.2408
   1249  N1        15.4190   11.1220   11.5440 N.ar   73  A73        -0.2040
   1250  C2        15.5630   11.3120   12.8530 C.ar   73  A73         0.2016
   1251  N3        15.6960   10.4130   13.8230 N.ar   73  A73        -0.2048
   1252  C4        15.6710    9.1720   13.3260 C.ar   73  A73         0.1692
   1253  C5        15.5190    8.8120   12.0060 C.ar   73  A73         0.1518
   1254  C6        15.3910    9.8580   11.0750 C.ar   73  A73         0.1919
   1255  N6        15.2540    9.6680    9.7640 N.pl3  73  A73        -0.1054
   1256  N7        15.5240    7.4310   11.8700 N.ar   73  A73        -0.2193
   1257  C8        15.6920    6.9950   13.0990 C.ar   73  A73         0.1816
   1258  N9        15.8140    7.9980   14.0230 N.ar   73  A73        -0.2693
   1259  OP1       15.9990    1.4480   16.3550 O.3    73  A73        -0.4373
   1260  OP2       16.9010    2.4520   14.1730 O.co2  73  A73        -0.5172
   1261  P         12.0160    6.4950   17.5510 P.3    74  C74         0.2141
   1262  C5'       12.0680    9.0740   18.0350 C.3    74  C74         0.1812
   1263  O5'       11.6980    8.0070   17.1780 O.3    74  C74        -0.3114
   1264  C4'       11.9510   10.3840   17.2970 C.3    74  C74         0.1773
   1265  O4'       12.8830   10.3750   16.1810 O.3    74  C74        -0.3307
   1266  C3'       10.6140   10.6520   16.6190 C.3    74  C74         0.1860
   1267  O3'        9.6520   11.1620   17.5370 O.3    74  C74        -0.3112
   1268  C2'       11.0120   11.7080   15.6000 C.3    74  C74         0.2309
   1269  O2'       11.2360   12.9750   16.1770 O.3    74  C74        -0.2156
   1270  C1'       12.3540   11.1530   15.1130 C.3    74  C74         0.2420
   1271  N1        12.2440   10.2980   13.9180 N.ar   74  C74        -0.2535
   1272  C2        12.1880   10.9110   12.6690 C.ar   74  C74         0.3532
   1273  O2        12.1490   12.1430   12.6090 O.2    74  C74        -0.2443
   1274  N3        12.1770   10.1490   11.5540 N.ar   74  C74        -0.1739
   1275  C4        12.2100    8.8230   11.6520 C.ar   74  C74         0.1759
   1276  N4        12.2780    8.1160   10.5150 N.pl3  74  C74        -0.1070
   1277  C5        12.1990    8.1600   12.9200 C.ar   74  C74         0.0566
   1278  C6        12.2200    8.9320   14.0180 C.ar   74  C74         0.0850
   1279  OP1       11.5010    6.2000   18.9170 O.3    74  C74        -0.4373
   1280  OP2       11.5840    5.6590   16.4060 O.co2  74  C74        -0.5172
   1281  P          8.0860   10.8390   17.3240 P.3    75  U75         0.2141
   1282  C5'        7.7290   13.1050   16.0360 C.3    75  U75         0.1812
   1283  O5'        7.6750   11.6800   16.0300 O.3    75  U75        -0.3114
   1284  C4'        7.5260   13.6470   14.6380 C.3    75  U75         0.1773
   1285  O4'        8.6460   13.2860   13.7800 O.3    75  U75        -0.3307
   1286  C3'        6.3310   13.0920   13.8870 C.3    75  U75         0.1860
   1287  O3'        5.1410   13.7200   14.3420 O.3    75  U75        -0.3112
   1288  C2'        6.6980   13.4690   12.4590 C.3    75  U75         0.2309
   1289  O2'        6.6010   14.8630   12.2350 O.3    75  U75        -0.2156
   1290  C1'        8.1810   13.0930   12.4470 C.3    75  U75         0.2420
   1291  N1         8.4170   11.6910   12.0690 N.ar   75  U75        -0.2534
   1292  C2         8.5230   11.3940   10.7260 C.ar   75  U75         0.3546
   1293  O2         8.3940   12.2300    9.8570 O.2    75  U75        -0.2443
   1294  N3         8.7820   10.0770   10.4380 N.ar   75  U75        -0.1530
   1295  C4         8.9330    9.0500   11.3380 C.ar   75  U75         0.2846
   1296  O4         9.1270    7.9140   10.9220 O.2    75  U75        -0.2650
   1297  C5         8.7940    9.4320   12.7100 C.ar   75  U75         0.0814
   1298  C6         8.5420   10.7090   13.0200 C.ar   75  U75         0.0870
   1299  OP1        7.3840   11.4020   18.5110 O.3    75  U75        -0.4373
   1300  OP2        7.9590    9.4000   17.0090 O.co2  75  U75        -0.5172
   1301  P          3.7480   12.9300   14.2730 P.3    76  A76         0.2141
   1302  C5'        3.1240   14.1640   12.0490 C.3    76  A76         0.1812
   1303  O5'        3.3750   12.9390   12.7260 O.3    76  A76        -0.3114
   1304  C4'        2.8730   13.9070   10.5920 C.3    76  A76         0.1773
   1305  O4'        4.1080   13.4890    9.9480 O.3    76  A76        -0.3307
   1306  C3'        1.9110   12.7720   10.2930 C.3    76  A76         0.1860
   1307  O3'        0.5590   13.2080   10.4570 O.3    76  A76        -0.3112
   1308  C2'        2.2780   12.4630    8.8490 C.3    76  A76         0.2309
   1309  O2'        1.8070   13.4560    7.9540 O.3    76  A76        -0.2156
   1310  C1'        3.8070   12.5620    8.9150 C.3    76  A76         0.2408
   1311  N1         5.8640    8.2330    7.0560 N.ar   76  A76        -0.2040
   1312  C2         5.2880    9.2880    6.4600 C.ar   76  A76         0.2016
   1313  N3         4.7690   10.3860    7.0050 N.ar   76  A76        -0.2048
   1314  C4         4.8750   10.3430    8.3440 C.ar   76  A76         0.1692
   1315  C5         5.4360    9.3320    9.1000 C.ar   76  A76         0.1518
   1316  C6         5.9630    8.2290    8.4020 C.ar   76  A76         0.1919
   1317  N6         6.5590    7.1900    8.9950 N.pl3  76  A76        -0.1054
   1318  N7         5.3700    9.6370   10.4550 N.ar   76  A76        -0.2193
   1319  C8         4.7910   10.8110   10.4840 C.ar   76  A76         0.1816
   1320  N9         4.4610   11.2960    9.2410 N.ar   76  A76        -0.2693
   1321  OP1        2.7370   13.7340   14.9990 O.3    76  A76        -0.4373
   1322  OP2        3.9560   11.5070   14.6420 O.co2  76  A76        -0.5172
   1323  P         -0.5460   12.1870   11.0430 P.3    77  U77         0.2141
   1324  C5'       -1.4080   11.6810    8.6280 C.3    77  U77         0.1812
   1325  O5'       -0.8100   11.1990    9.8280 O.3    77  U77        -0.3114
   1326  C4'       -1.2760   10.6570    7.5400 C.3    77  U77         0.1773
   1327  O4'        0.1320   10.4240    7.2610 O.3    77  U77        -0.3307
   1328  C3'       -1.7800    9.2680    7.8860 C.3    77  U77         0.1860
   1329  O3'       -3.1940    9.1990    7.7640 O.3    77  U77        -0.3112
   1330  C2'       -1.0840    8.4460    6.8180 C.3    77  U77         0.2309
   1331  O2'       -1.6780    8.6580    5.5550 O.3    77  U77        -0.2156
   1332  C1'        0.3080    9.0840    6.8300 C.3    77  U77         0.2420
   1333  N1         1.2420    8.4190    7.7510 N.ar   77  U77        -0.2534
   1334  C2         1.9260    7.3240    7.2750 C.ar   77  U77         0.3546
   1335  O2         1.7810    6.8970    6.1410 O.2    77  U77        -0.2443
   1336  N3         2.7850    6.7420    8.1710 N.ar   77  U77        -0.1530
   1337  C4         3.0110    7.1330    9.4680 C.ar   77  U77         0.2846
   1338  O4         3.8100    6.5020   10.1530 O.2    77  U77        -0.2650
   1339  C5         2.2600    8.2760    9.8890 C.ar   77  U77         0.0814
   1340  C6         1.4260    8.8680    9.0350 C.ar   77  U77         0.0870
   1341  OP1       -1.7820   12.9620   11.2830 O.2    77  U77        -0.5172
   1342  OP2        0.0170   11.3690   12.1370 O.co2  77  U77        -0.4373
   1343  P         -4.0060    8.0640    8.5610 P.3    78  G78         0.2141
   1344  C5'       -4.1230    6.4980    6.4640 C.3    78  G78         0.1812
   1345  O5'       -3.6480    6.7210    7.7840 O.3    78  G78        -0.3114
   1346  C4'       -3.4850    5.2630    5.8850 C.3    78  G78         0.1773
   1347  O4'       -2.0420    5.4100    5.9150 O.3    78  G78        -0.3307
   1348  C3'       -3.7150    3.9750    6.6540 C.3    78  G78         0.1860
   1349  O3'       -4.9920    3.4180    6.3550 O.3    78  G78        -0.3112
   1350  C2'       -2.5810    3.1090    6.1270 C.3    78  G78         0.2309
   1351  O2'       -2.8400    2.5840    4.8430 O.3    78  G78        -0.2156
   1352  C1'       -1.4450    4.1310    6.0390 C.3    78  G78         0.2408
   1353  N1         2.1840    1.6910    8.6020 N.ar   78  G78        -0.1709
   1354  C2         1.6100    1.3830    7.3960 C.ar   78  G78         0.2606
   1355  N2         2.0530    0.2730    6.8030 N.pl3  78  G78        -0.0859
   1356  N3         0.6650    2.1120    6.8170 N.ar   78  G78        -0.1918
   1357  C4         0.3310    3.1870    7.5590 C.ar   78  G78         0.1723
   1358  C5         0.8380    3.5830    8.7770 C.ar   78  G78         0.1748
   1359  C6         1.8580    2.7930    9.3840 C.ar   78  G78         0.3023
   1360  O6         2.4400    2.9800   10.4620 O.2    78  G78        -0.2633
   1361  N7         0.2220    4.7500    9.2110 N.ar   78  G78        -0.2173
   1362  C8        -0.6310    5.0370    8.2660 C.ar   78  G78         0.1817
   1363  N9        -0.6170    4.1260    7.2370 N.ar   78  G78        -0.2693
   1364  OP1       -5.4460    8.3700    8.3640 O.2    78  G78        -0.5172
   1365  OP2       -3.4610    7.9670    9.9380 O.co2  78  G78        -0.4373
   1366  P         -5.6990    2.4360    7.4160 P.3    79  U79         0.2141
   1367  C5'       -4.8510    0.3430    6.0850 C.3    79  U79         0.1812
   1368  O5'       -4.8670    1.0850    7.3000 O.3    79  U79        -0.3114
   1369  C4'       -3.9920   -0.8900    6.2370 C.3    79  U79         0.1773
   1370  O4'       -2.6040   -0.4950    6.3940 O.3    79  U79        -0.3307
   1371  C3'       -4.2690   -1.7450    7.4630 C.3    79  U79         0.1860
   1372  O3'       -5.3450   -2.6390    7.2110 O.3    79  U79        -0.3112
   1373  C2'       -2.9550   -2.4990    7.6180 C.3    79  U79         0.2309
   1374  O2'       -2.8370   -3.6000    6.7360 O.3    79  U79        -0.2156
   1375  C1'       -1.9410   -1.4170    7.2430 C.3    79  U79         0.2420
   1376  N1        -1.4360   -0.6820    8.4100 N.ar   79  U79        -0.2534
   1377  C2        -0.3410   -1.2010    9.0660 C.ar   79  U79         0.3546
   1378  O2         0.2070   -2.2320    8.7220 O.2    79  U79        -0.2443
   1379  N3         0.0890   -0.4690   10.1440 N.ar   79  U79        -0.1530
   1380  C4        -0.4590    0.7040   10.6210 C.ar   79  U79         0.2846
   1381  O4         0.0650    1.2680   11.5790 O.2    79  U79        -0.2650
   1382  C5        -1.5950    1.1720    9.8910 C.ar   79  U79         0.0814
   1383  C6        -2.0330    0.4800    8.8340 C.ar   79  U79         0.0870
   1384  OP1       -7.0860    2.1820    6.9500 O.2    79  U79        -0.5172
   1385  OP2       -5.4770    2.9830    8.7800 O.co2  79  U79        -0.4373
   1386  P         -6.2300   -3.1900    8.4360 P.3    80  C80         0.2141
   1387  C5'       -4.7690   -5.3620    8.6680 C.3    80  C80         0.1812
   1388  O5'       -5.2380   -4.1440    9.2420 O.3    80  C80        -0.3114
   1389  C4'       -3.7180   -5.9940    9.5540 C.3    80  C80         0.1773
   1390  O4'       -2.5770   -5.1060    9.6670 O.3    80  C80        -0.3307
   1391  C3'       -4.1220   -6.2360   10.9980 C.3    80  C80         0.1860
   1392  O3'       -4.8500   -7.4510   11.1240 O.3    80  C80        -0.3112
   1393  C2'       -2.7700   -6.3400   11.6940 C.3    80  C80         0.2309
   1394  O2'       -2.1940   -7.6250   11.5790 O.3    80  C80        -0.2156
   1395  C1'       -1.9420   -5.3100   10.9200 C.3    80  C80         0.2420
   1396  N1        -1.8550   -4.0150   11.6150 N.ar   80  C80        -0.2535
   1397  C2        -0.8070   -3.8030   12.5120 C.ar   80  C80         0.3532
   1398  O2         0.0250   -4.7050   12.6820 O.2    80  C80        -0.2443
   1399  N3        -0.7250   -2.6230   13.1700 N.ar   80  C80        -0.1739
   1400  C4        -1.6400   -1.6750   12.9540 C.ar   80  C80         0.1759
   1401  N4        -1.5250   -0.5280   13.6280 N.pl3  80  C80        -0.1070
   1402  C5        -2.7160   -1.8610   12.0380 C.ar   80  C80         0.0566
   1403  C6        -2.7840   -3.0350   11.3960 C.ar   80  C80         0.0850
   1404  OP1       -7.3140   -4.0210    7.8570 O.2    80  C80        -0.5172
   1405  OP2       -6.5740   -2.0370    9.3070 O.co2  80  C80        -0.4373
   1406  P         -6.1020   -7.5240   12.1280 P.3    81  C81         0.2141
   1407  C5'       -4.7120   -8.5960   14.0830 C.3    81  C81         0.1813
   1408  O5'       -5.4320   -7.4760   13.5750 O.3    81  C81        -0.3114
   1409  C4'       -4.3410   -8.3740   15.5320 C.3    81  C81         0.1801
   1410  O4'       -3.1360   -7.5750   15.6190 O.3    81  C81        -0.3306
   1411  C3'       -5.3250   -7.5750   16.3680 C.3    81  C81         0.2161
   1412  O3'       -6.5050   -8.3010   16.7290 O.3    81  C81        -0.2175
   1413  C2'       -4.4620   -7.1570   17.5550 C.3    81  C81         0.2338
   1414  O2'       -4.3490   -8.1740   18.5320 O.3    81  C81        -0.2155
   1415  C1'       -3.0980   -6.9350   16.8860 C.3    81  C81         0.2421
   1416  N1        -2.7460   -5.5170   16.6860 N.ar   81  C81        -0.2535
   1417  C2        -1.4220   -5.1110   16.9030 C.ar   81  C81         0.3532
   1418  O2        -0.5810   -5.9590   17.2420 O.2    81  C81        -0.2443
   1419  N3        -1.0950   -3.8080   16.7380 N.ar   81  C81        -0.1739
   1420  C4        -2.0290   -2.9270   16.3700 C.ar   81  C81         0.1759
   1421  N4        -1.6660   -1.6510   16.2240 N.pl3  81  C81        -0.1070
   1422  C5        -3.3790   -3.3160   16.1360 C.ar   81  C81         0.0566
   1423  C6        -3.6900   -4.6060   16.3020 C.ar   81  C81         0.0850
   1424  OP1       -6.7530   -8.8460   11.9540 O.3    81  C81        -0.4373
   1425  OP2       -6.9040   -6.2850   11.9430 O.co2  81  C81        -0.5172
@<TRIPOS>BOND
     1   723   722    2
     2   724   722   ar
     3   724   725   ar
     4   689   668    2
     5   709   691    2
     6   726   725    2
     7   722   721   ar
     8   725   727   ar
     9   297   279    2
    10   264   263    1
    11   669   670    1
    12   669   671    1
    13   259   257    1
    14   259   260    1
    15   259   261    1
    16   262   279    1
    17   262   261    1
    18   257   258    1
    19   721   720    1
    20   721   728   ar
    21   691   710    1
    22   691   674    1
    23   691   693    1
    24   668   652    1
    25   668   670    1
    26   668   690    1
    27   652   651    1
    28   244   243    1
    29   727   728   ar
    30   715   720    1
    31   715   714    1
    32   674   673    1
    33   720   718    1
    34   260   265    1
    35   666   646    2
    36   279   281    1
    37   279   298    1
    38   261   263    1
    39   671   673    1
    40   671   672    1
    41   277   256    2
    42   263   265    1
    43   647   649    1
    44   647   648    1
    45   730   711    2
    46   649   651    1
    47   649   650    1
    48   654   653    1
    49   265   276    1
    50   281   280    1
    51   148   128    2
    52   258   256    1
    53   673   675    1
    54   242   256    1
    55   242   241    1
    56   693   692    1
    57   713   711    1
    58   713   712    1
    59   651   653    1
    60   631   630    1
    61   714   712    1
    62   714   716    1
    63   692   694    1
    64   243   241    1
    65   243   245    1
    66   168   150    2
    67   256   278    1
    68   672   677    1
    69   225   224   ar
    70   225   226   ar
    71   718   719    1
    72   718   716    1
    73   646   648    1
    74   646   629    1
    75   646   667    1
    76   224   229   ar
    77   717   716    1
    78   717   731    1
    79   653   655    1
    80   711   729    1
    81   711   697    1
    82   676   675    1
    83   629   628    1
    84   239   241    1
    85   239   240    1
    86   239   237    1
    87   650   655    1
    88   750   731    2
    89   280   282    1
    90   245   240    1
    91   245   246    1
    92   169   150    1
    93   675   677    1
    94   696   694    1
    95   696   697    1
    96   696   698    1
    97   276   275   ar
    98   276   270   ar
    99   282   283    1
   100   282   284    1
   101   630   628    1
   102   630   632    1
   103   694   695    1
   104   749   731    1
   105   248   247    2
   106   128   114    1
   107   128   149    1
   108   128   130    1
   109   635   634    1
   110   150   134    1
   111   150   152    1
   112   731   733    1
   113   226   227   ar
   114   655   665    1
   115   283   288    1
   116   677   688    1
   117   114   113    1
   118   287   286    1
   119   237   238    1
   120   269   270   ar
   121   269   267   ar
   122   129   130    1
   123   129   131    1
   124   229   230    1
   125   229   228   ar
   126   628   626    1
   127   187   188   ar
   128   187   184   ar
   129   188   189   ar
   130   275   274   ar
   131   285   284    1
   132   285   299    1
   133   270   271   ar
   134   698   699    1
   135   698   700    1
   136   134   133    1
   137   636   634   ar
   138   636   637   ar
   139   126   108    2
   140   246   247   ar
   141   246   253   ar
   142   247   249   ar
   143   634   633   ar
   144   284   286    1
   145   320   299    2
   146   632   627    1
   147   632   643    1
   148   626   627    1
   149   626   624    1
   150   151   152    1
   151   151   153    1
   152   687   688   ar
   153   687   686   ar
   154   288   286    1
   155   288   289    1
   156   695   700    1
   157   268   267    1
   158   109   111    1
   159   109   110    1
   160   688   682   ar
   161   227   228   ar
   162   227   233   ar
   163   116   115    1
   164   267   266   ar
   165   131   133    1
   166   131   132    1
   167   111   113    1
   168   111   112    1
   169   665   664   ar
   170   665   659   ar
   171   113   115    1
   172   228   231   ar
   173   733   732    1
   174   238   236    1
   175   222   221    1
   176   299   301    1
   177   299   321    1
   178   186   185    1
   179   133   135    1
   180   184   185   ar
   181   184   183   ar
   182   300   301    1
   183   300   302    1
   184   274   271   ar
   185   189   179    1
   186   189   183   ar
   187   700   701    1
   188   664   663   ar
   189   271   272   ar
   190   637   643   ar
   191   637   638   ar
   192   221   223    1
   193   221   219    1
   194   708   701   ar
   195   708   707   ar
   196   643   642   ar
   197   253   252   ar
   198   115   117    1
   199   110   108    1
   200   249   250   ar
   201   179   174    1
   202   179   177    1
   203   633   639   ar
   204   624   625    1
   205   686   683   ar
   206   108    92    1
   207   108   127    1
   208   732   734    1
   209   185   180   ar
   210   254   236    2
   211   289   296   ar
   212   289   290   ar
   213   233   223    1
   214   233   232   ar
   215   153   154    1
   216   153   155    1
   217   296   295   ar
   218   682   681   ar
   219   682   683   ar
   220   659   658   ar
   221   659   660   ar
   222   701   702   ar
   223   183   182   ar
   224   266   272   ar
   225   174   173    1
   226   658   657   ar
   227   132   137    1
   228   223   218    1
   229   625   623    1
   230  1174  1156    2
   231   707   705   ar
   232   112   117    1
   233    92    91    1
   234  1111  1091    2
   235   302   303    1
   236   302   304    1
   237   236   220    1
   238   236   255    1
   239   231   232   ar
   240   136   135    1
   241   220   219    1
   242   272   273    2
   243   166   167   ar
   244   166   164   ar
   245   154   159    1
   246   190   170    2
   247   167   160   ar
   248   178   177    1
   249    94    93    1
   250   135   137    1
   251   611   610    1
   252   681   679   ar
   253   219   217    1
   254   663   660   ar
   255   683   684   ar
   256   117   118    1
   257   638   639   ar
   258   638   641   ar
   259   615   614    2
   260   303   308    1
   261   252   250   ar
   262   250   251    1
   263   177   175    1
   264   291   290    2
   265   639   640    2
   266   642   641   ar
   267   155   157    1
   268   155   156    1
   269   747   748   ar
   270   747   745   ar
   271   290   292   ar
   272   644   623    2
   273   748   741   ar
   274   660   661   ar
   275   137   147    1
   276   295   293   ar
   277   180   181   ar
   278  1139  1156    1
   279  1139  1138    1
   280   734   736    1
   281   734   735    1
   282   305   304    1
   283   305   322    1
   284   340   322    2
   285   172   170    1
   286   172   171    1
   287   173   175    1
   288   173   171    1
   289   657   656   ar
   290   182   181   ar
   291   623   609    1
   292   623   645    1
   293   702   703    2
   294   702   704   ar
   295  1156  1158    1
   296  1156  1175    1
   297   304   306    1
   298   610   612    1
   299   610   608    1
   300   157   159    1
   301   157   158    1
   302   218   217    1
   303  1093  1091    1
   304  1093  1092    1
   305    91    93    1
   306    91    89    1
   307  1134  1136    1
   308  1134  1135    1
   309   160   159    1
   310   160   161   ar
   311   705   704   ar
   312   705   706    2
   313    93    95    1
   314   736   738    1
   315   736   737    1
   316   164   165    2
   317   164   163   ar
   318  1091  1075    1
   319  1091  1112    1
   320  1154  1133    2
   321   170   156    1
   322   170   191    1
   323   735   740    1
   324  1136  1138    1
   325  1136  1137    1
   326  1099  1098    1
   327   738   740    1
   328   738   739    1
   329   217   215    1
   330   614   616   ar
   331   614   613   ar
   332   341   322    1
   333   322   324    1
   334  1157  1158    1
   335  1157  1159    1
   336   679   678   ar
   337   679   680    1
   338   746   745    2
   339  1141  1140    1
   340   118   125   ar
   341   118   119   ar
   342    89    87    1
   343    89    90    1
   344   745   744   ar
   345   175   176    1
   346   684   678   ar
   347   684   685    2
   348   609   608    1
   349   308   306    1
   350   308   319    1
   351   616   617   ar
   352   292   293   ar
   353  1194  1176    2
   354   769   751    2
   355   307   306    1
   356   741   740    1
   357   741   742   ar
   358   293   294    1
   359   147   146   ar
   360   147   141   ar
   361   146   145   ar
   362  1138  1140    1
   363   125   124   ar
   364  1075  1074    1
   365   612   613    1
   366   612   607    1
   367   661   656   ar
   368   661   662    1
   369   318   319   ar
   370   318   317   ar
   371  1121  1120    1
   372  1094  1092    1
   373  1094  1095    1
   374  1094  1096    1
   375    87    88    1
   376   120   119    2
   377   608   606    1
   378   163   161   ar
   379  1097  1096    1
   380  1097  1113    1
   381   613   620   ar
   382   161   162    2
   383  1137  1142    1
   384  1135  1133    1
   385  1119  1133    1
   386  1119  1118    1
   387   319   313   ar
   388   119   121   ar
   389   770   751    1
   390   737   751    1
   391  1072  1070    1
   392  1072  1074    1
   393  1072  1073    1
   394  1095  1100    1
   395  1133  1155    1
   396  1140  1142    1
   397   176   192    1
   398    95    90    1
   399    95   105    1
   400  1131  1113    2
   401   106    86    2
   402   751   753    1
   403  1159  1161    1
   404  1159  1160    1
   405  1098  1096    1
   406  1098  1100    1
   407   744   742   ar
   408   215   216    1
   409  1162  1176    1
   410  1162  1161    1
   411  1025  1004    2
   412   592   591    1
   413  1070  1071    1
   414  1074  1076    1
   415   317   314   ar
   416  1176  1195    1
   417  1176  1178    1
   418    88    86    1
   419  1100  1110    1
   420   742   743    2
   421  1351  1350    1
   422   617   618    1
   423   617   619   ar
   424   324   323    1
   425   145   142   ar
   426   124   122   ar
   427   606   607    1
   428   606   604    1
   429  1142  1153    1
   430   141   140   ar
   431   141   142   ar
   432  1073  1078    1
   433  1113  1132    1
   434  1113  1115    1
   435  1120  1118    1
   436  1120  1122    1
   437  1161  1163    1
   438   323   325    1
   439  1055  1054    1
   440    98    99   ar
   441    98    97   ar
   442  1118  1116    1
   443  1116  1117    1
   444  1116  1114    1
   445   620   619   ar
   446   121   122   ar
   447  1160  1165    1
   448  1002   984    2
   449    86    72    1
   450    86   107    1
   451   140   139   ar
   452  1331  1330    1
   453   985   987    1
   454   985   986    1
   455   105    99   ar
   456   105   104   ar
   457   313   314   ar
   458   313   312   ar
   459   216   214    1
   460   807   806    1
   461   142   143   ar
   462  1078  1076    1
   463  1078  1088    1
   464  1081  1080   ar
   465  1081  1082   ar
   466   591   590   ar
   467   591   593   ar
   468   314   315   ar
   469  1346  1347    1
   470  1346  1344    1
   471  1346  1348    1
   472   972   971    1
   473  1089  1069    2
   474   122   123    2
   475  1004   990    1
   476  1004  1026    1
   477  1004  1006    1
   478  1347  1352    1
   479   193   194    1
   480   193   195    1
   481   990   989    1
   482    99   100   ar
   483   192   194    1
   484   192   213    2
   485   192   212    1
   486   753   752    1
   487   590   596   ar
   488    97    96   ar
   489   987   989    1
   490   987   988    1
   491  1352  1350    1
   492  1352  1363    1
   493  1071  1069    1
   494  1076  1077    1
   495  1367  1369    1
   496  1367  1368    1
   497   970   984    1
   498   970   969    1
   499  1350  1348    1
   500  1117  1122    1
   501  1335  1334    2
   502  1122  1123    1
   503  1114  1115    1
   504  1178  1177    1
   505  1080  1079   ar
   506  1369  1370    1
   507  1369  1371    1
   508  1110  1104   ar
   509  1110  1109   ar
   510    74    73    1
   511  1349  1348    1
   512  1349  1366    1
   513    72    71    1
   514  1177  1179    1
   515   604   605    1
   516  1370  1375    1
   517   312   310   ar
   518  1153  1152   ar
   519  1153  1147   ar
   520   752   754    1
   521  1312  1313   ar
   522  1312  1311   ar
   523  1344  1345    1
   524   786   785    2
   525  1103  1104   ar
   526  1103  1102   ar
   527   104   103   ar
   528   967   965    1
   529   967   969    1
   530   967   968    1
   531  1164  1163    1
   532  1053  1069    1
   533  1053  1052    1
   534   984   986    1
   535   984  1003    1
   536  1163  1165    1
   537   801   806   ar
   538   801   802   ar
   539  1054  1056    1
   540  1054  1052    1
   541   338   339   ar
   542   338   336   ar
   543  1069  1090    1
   544  1374  1373    1
   545   825   824    2
   546   325   326    1
   547   325   327    1
   548   992   991    1
   549   806   805   ar
   550   593   594   ar
   551  1165  1166    1
   552  1355  1354    1
   553   965   966    1
   554  1356  1354   ar
   555  1356  1357   ar
   556  1330  1332    1
   557  1330  1328    1
   558   989   991    1
   559  1332  1327    1
   560  1332  1333    1
   561   139   138   ar
   562  1152  1151   ar
   563   339   332   ar
   564  1173  1166   ar
   565  1173  1172   ar
   566  1082  1088   ar
   567  1082  1083   ar
   568   826   824   ar
   569   826   827   ar
   570  1088  1087   ar
   571   988   993    1
   572  1384  1366    2
   573  1125  1124    2
   574   326   331    1
   575  1104  1105   ar
   576   605   603    1
   577  1313  1314   ar
   578   969   971    1
   579  1311  1316   ar
   580    73    71    1
   581    73    75    1
   582  1006  1005    1
   583   971   973    1
   584   315   316    2
   585   315   309   ar
   586   214   235    2
   587   214   198    1
   588   214   234    1
   589   100   103   ar
   590   100   101   ar
   591   195   196    1
   592   195   197    1
   593  1005  1007    1
   594   828   827    1
   595    96   101   ar
   596   143   138   ar
   597   143   144    1
   598  1109  1108   ar
   599   596   597    2
   600   596   595   ar
   601  1372  1371    1
   602  1372  1386    1
   603  1363  1357   ar
   604  1363  1362   ar
   605  1375  1373    1
   606  1375  1376    1
   607  1327  1326    1
   608  1334  1333   ar
   609  1334  1336   ar
   610  1056  1051    1
   611  1056  1066    1
   612  1368  1366    1
   613   968   973    1
   614   767   768   ar
   615   767   765   ar
   616   364   342    2
   617  1215  1196    2
   618  1079  1084   ar
   619  1354  1353   ar
   620  1366  1385    1
   621    71    69    1
   622  1052  1050    1
   623   824   823   ar
   624  1371  1373    1
   625  1146  1147   ar
   626  1146  1144   ar
   627  1102  1101   ar
   628   950   949    1
   629  1147  1148   ar
   630  1166  1167   ar
   631  1326  1328    1
   632  1326  1324    1
   633  1051  1050    1
   634  1123  1124   ar
   635  1123  1130   ar
   636  1357  1358   ar
   637  1172  1170   ar
   638   768   761   ar
   639   310   309   ar
   640   310   311    1
   641   785   787   ar
   642   785   784   ar
   643  1050  1048    1
   644   991   993    1
   645   198   197    1
   646  1214  1196    1
   647   327   328    1
   648   327   329    1
   649   802   803   ar
   650   827   829   ar
   651   973   974    1
   652  1333  1340   ar
   653  1329  1328    1
   654  1329  1343    1
   655   101   102    1
   656  1345  1343    1
   657   337   336    2
   658   790   771    2
   659   336   335   ar
   660  1124  1126   ar
   661  1179  1180    1
   662  1179  1181    1
   663  1045  1027    2
   664  1404  1386    2
   665   787   788   ar
   666   754   755    1
   667   754   756    1
   668   328   342    1
   669   594   595   ar
   670   594   600   ar
   671   993   994    1
   672  1059  1058   ar
   673  1059  1060   ar
   674  1309  1308    1
   675   755   760    1
   676   982   964    2
   677    78    77    2
   678   196   201    1
   679   197   199    1
   680   588   587    1
   681   332   331    1
   682   332   333   ar
   683   805   808   ar
   684   805   804   ar
   685   363   342    1
   686  1196  1182    1
   687  1196  1198    1
   688   966   964    1
   689  1336  1337   ar
   690  1151  1148   ar
   691   342   344    1
   692   595   598   ar
   693  1083  1084   ar
   694  1083  1086   ar
   695   766   765    1
   696  1087  1086   ar
   697  1362  1361   ar
   698   331   329    1
   699  1105  1108   ar
   700  1105  1106   ar
   701  1314  1315   ar
   702  1314  1320   ar
   703  1364  1343    2
   704  1316  1317    1
   705  1316  1315   ar
   706  1376  1383   ar
   707  1376  1377   ar
   708  1386  1388    1
   709  1386  1405    1
   710   765   764   ar
   711  1182  1181    1
   712  1084  1085    1
   713   603   621    2
   714   603   622    1
   715   603   586    1
   716    75    76    1
   717    75    70    1
   718  1180  1185    1
   719  1066  1060   ar
   720  1066  1065   ar
   721   587   589    1
   722   587   585    1
   723  1007  1009    1
   724  1007  1008    1
   725  1130  1129   ar
   726  1058  1057   ar
   727  1343  1365    1
   728  1148  1149   ar
   729  1181  1183    1
   730  1353  1359   ar
   731   808   809   ar
   732  1324  1325    1
   733    69    70    1
   734    69    67    1
   735  1387  1388    1
   736  1387  1389    1
   737  1144  1145    1
   738  1144  1143   ar
   739   784   782   ar
   740  1009  1011    1
   741  1009  1010    1
   742  1378  1377    2
   743   823   822    1
   744   823   830   ar
   745   756   757    1
   746   756   758    1
   747  1358  1361   ar
   748  1358  1359   ar
   749   949   951    1
   750   949   947    1
   751  1060  1061   ar
   752  1101  1106   ar
   753    77    76   ar
   754    77    79   ar
   755  1383  1382   ar
   756   954   953   ar
   757   954   955   ar
   758  1308  1310    1
   759  1308  1306    1
   760   964   948    1
   761   964   983    1
   762   953   952   ar
   763   761   760    1
   764   761   762   ar
   765   948   947    1
   766  1048  1049    1
   767  1167  1168    2
   768  1167  1169   ar
   769  1028  1029    1
   770  1028  1030    1
   771  1049  1047    1
   772  1310  1320    1
   773  1310  1305    1
   774   329   330    1
   775  1193  1192   ar
   776  1193  1186   ar
   777   821   820    1
   778   803   804   ar
   779   335   333   ar
   780  1170  1169   ar
   781  1170  1171    2
   782  1340  1339   ar
   783   829   830   ar
   784  1377  1379   ar
   785  1192  1190   ar
   786   600   589    1
   787   600   599   ar
   788  1315  1318   ar
   789   804   810   ar
   790   788   781   ar
   791   820   822    1
   792   820   818    1
   793  1126  1127   ar
   794   771   757    1
   795   771   789    1
   796   771   773    1
   797    76    83   ar
   798   760   758    1
   799   333   334    2
   800   974   975   ar
   801   974   981   ar
   802   976   975    2
   803  1320  1319   ar
   804   589   584    1
   805   994  1001   ar
   806   994   995   ar
   807  1106  1107    1
   808  1011  1012    1
   809  1011  1013    1
   810   822   817    1
   811  1027  1029    1
   812  1027  1010    1
   813  1027  1046    1
   814   201   199    1
   815   201   211    1
   816  1001  1000   ar
   817   199   200    1
   818   586   585    1
   819    79    80   ar
   820  1359  1360    2
   821  1337  1339   ar
   822  1337  1338    2
   823  1008  1013    1
   824   598   599   ar
   825  1389  1390    1
   826  1389  1391    1
   827  1198  1197    1
   828   951   946    1
   829   951   961    1
   830    67    68    1
   831   585   583    1
   832  1065  1064   ar
   833  1390  1395    1
   834   947   945    1
   835   764   762   ar
   836  1030  1031    1
   837  1030  1032    1
   838   344   343    1
   839   360   361   ar
   840   360   357   ar
   841   210   211   ar
   842   210   209   ar
   843  1255  1254    1
   844  1023  1022   ar
   845  1023  1024   ar
   846  1057  1062   ar
   847  1325  1323    1
   848  1129  1127   ar
   849  1185  1186    1
   850  1185  1183    1
   851  1143  1149   ar
   852  1293  1292    2
   853   975   977   ar
   854  1382  1380   ar
   855  1149  1150    2
   856   952   957   ar
   857   981   980   ar
   858   809   810   ar
   859   758   759    1
   860   762   763    2
   861  1067  1047    2
   862  1305  1304    1
   863   382   381    2
   864  1186  1187   ar
   865   782   781   ar
   866   782   783    2
   867  1183  1184    1
   868   359   358    2
   869   575   574    1
   870  1061  1062   ar
   871  1061  1064   ar
   872   955   961   ar
   873   955   956   ar
   874    83    82   ar
   875   773   772    1
   876  1379  1380   ar
   877   211   205   ar
   878    68    66    1
   879   361   362   ar
   880   945   946    1
   881   945   943    1
   882   781   780    1
   883  1127  1128    2
   884  1013  1024    1
   885   554   553    1
   886   446   445    1
   887   996   995    2
   888   810   800    1
   889  1047  1033    1
   890  1047  1068    1
   891    80    82   ar
   892    80    81    1
   893  1306  1307    1
   894  1306  1304    1
   895   995   997   ar
   896  1190  1191    1
   897  1190  1189   ar
   898  1022  1019   ar
   899  1294  1292   ar
   900  1294  1295   ar
   901   533   532    1
   902  1318  1319   ar
   903  1307  1323    1
   904   848   847    1
   905   961   960   ar
   906  1031  1036    1
   907   818   819    1
   908   818   816    1
   909  1212  1213   ar
   910  1212  1210   ar
   911  1197  1199    1
   912  1276  1275    1
   913  1000   998   ar
   914  1024  1018   ar
   915   507   506    1
   916  1304  1302    1
   917   573   574   ar
   918   573   571   ar
   919  1062  1063    1
   920  1380  1381    2
   921   584   583    1
   922   404   403    1
   923   817   816    1
   924  1032  1033    1
   925  1032  1034    1
   926  1292  1291   ar
   927   209   206   ar
   928   819   833    1
   929   343   345    1
   930   357   358   ar
   931   357   356   ar
   932   583   581    1
   933   852   833    2
   934  1211  1210    1
   935   358   352   ar
   936  1395  1396    1
   937  1395  1393    1
   938  1296  1295    2
   939   574   576   ar
   940  1391  1392    1
   941  1391  1393    1
   942  1323  1341    2
   943  1323  1342    1
   944   440   445   ar
   945   440   441   ar
   946  1213  1206   ar
   947  1254  1249   ar
   948  1254  1253   ar
   949   849   847   ar
   950   849   850   ar
   951  1392  1406    1
   952   572   571    2
   953   957   956   ar
   954   957   958    1
   955   381   375   ar
   956   381   380   ar
   957  1238  1216    2
   958  1233  1232    2
   959   445   444   ar
   960   977   978   ar
   961   980   978   ar
   962   956   959   ar
   963   425   424    2
   964   548   553   ar
   965   548   549   ar
   966   934   933    2
   967   812   791    2
   968  1187  1189   ar
   969  1187  1188    2
   970  1295  1297   ar
   971   553   552   ar
   972  1210  1209   ar
   973  1403  1396   ar
   974  1403  1402   ar
   975   847   846   ar
   976   851   833    1
   977    55    54   ar
   978    55    56   ar
   979   816   814    1
   980   833   835    1
   981   571   570   ar
   982   943   944    1
   983   362   356   ar
   984   362   351    1
   985   772   774    1
   986   205   206   ar
   987   205   204   ar
   988  1249  1250   ar
   989    84    66    2
   990  1274  1275   ar
   991  1274  1272   ar
   992   997   998   ar
   993   775   780    1
   994   775   774    1
   995  1394  1393    1
   996   780   778    1
   997    54    59   ar
   998    66    85    1
   999    66    50    1
  1000   346   345    1
  1001   346   351    1
  1002  1396  1397   ar
  1003  1019  1018   ar
  1004  1019  1020   ar
  1005   800   798    1
  1006   800   795    1
  1007   998   999    1
  1008  1275  1277   ar
  1009   532   534   ar
  1010   532   531   ar
  1011   383   380   ar
  1012   383   384   ar
  1013  1018  1017   ar
  1014   506   508   ar
  1015   506   505   ar
  1016   960   959   ar
  1017   423   424   ar
  1018   423   421   ar
  1019   206   207   ar
  1020   375   376   ar
  1021  1036  1034    1
  1022  1036  1037    1
  1023  1256  1253   ar
  1024  1256  1257   ar
  1025   978   979    1
  1026  1199  1200    1
  1027  1199  1201    1
  1028   356   355   ar
  1029  1425  1406    2
  1030   403   398   ar
  1031   403   402   ar
  1032   911   910    1
  1033  1424  1406    1
  1034  1034  1035    1
  1035   534   535   ar
  1036   345   347    1
  1037   503   502    1
  1038  1253  1252   ar
  1039   380   379   ar
  1040   776   774    1
  1041   776   778    1
  1042   776   777    1
  1043   441   442   ar
  1044    56    57   ar
  1045  1402  1400   ar
  1046  1302  1303    1
  1047   850   843   ar
  1048   798   796    1
  1049   798   799    1
  1050  1291  1290    1
  1051  1291  1298   ar
  1052  1200  1205    1
  1053  1406  1408    1
  1054  1234  1231   ar
  1055  1234  1235   ar
  1056  1044  1037   ar
  1057  1044  1043   ar
  1058   424   426   ar
  1059   398   399   ar
  1060    52    51    1
  1061   909   910   ar
  1062   909   915   ar
  1063   581   582    1
  1064   352   353   ar
  1065   387   365    2
  1066  1289  1288    1
  1067   508   509   ar
  1068  1201  1202    1
  1069  1201  1203    1
  1070   916   915    2
  1071   576   577   ar
  1072   778   779    1
  1073   935   933   ar
  1074   935   936   ar
  1075   933   932   ar
  1076   422   421    2
  1077  1232  1231   ar
  1078  1232  1226   ar
  1079   204   203   ar
  1080   582   580    1
  1081   549   550   ar
  1082   351   349    1
  1083   444   447   ar
  1084   444   443   ar
  1085  1206  1205    1
  1086  1206  1207   ar
  1087   930   929    1
  1088  1290  1288    1
  1089  1290  1285    1
  1090  1288  1286    1
  1091    59    60    1
  1092    59    58   ar
  1093  1216  1202    1
  1094  1216  1237    1
  1095  1216  1218    1
  1096  1397  1398    2
  1097  1397  1399   ar
  1098   944   942    1
  1099   505   511   ar
  1100   795   794    1
  1101   484   483    1
  1102   347   348    1
  1103   347   349    1
  1104   870   869    2
  1105   815   814    1
  1106   815   813    1
  1107    51    49    1
  1108    51    53    1
  1109    50    49    1
  1110   552   555   ar
  1111   552   551   ar
  1112   846   844   ar
  1113  1273  1272    2
  1114  1037  1038   ar
  1115   793   791    1
  1116   793   792    1
  1117   791   777    1
  1118   791   811    1
  1119  1272  1271   ar
  1120   531   529   ar
  1121  1209  1207   ar
  1122  1020  1021    2
  1123  1020  1014   ar
  1124  1297  1298   ar
  1125   421   420   ar
  1126  1303  1301    1
  1127  1017  1015   ar
  1128   570   577   ar
  1129   570   569    1
  1130   910   912   ar
  1131  1231  1230   ar
  1132   796   794    1
  1133   796   797    1
  1134  1043  1041   ar
  1135  1250  1251   ar
  1136   447   448   ar
  1137   384   385   ar
  1138   915   914   ar
  1139    57    58   ar
  1140    57    63   ar
  1141  1277  1278   ar
  1142  1400  1399   ar
  1143  1400  1401    1
  1144   835   834    1
  1145   555   556   ar
  1146   929   931    1
  1147   929   927    1
  1148   402   405   ar
  1149   402   401   ar
  1150  1205  1203    1
  1151  1235  1236   ar
  1152  1257  1258   ar
  1153   405   406   ar
  1154   893   892    2
  1155   502   504    1
  1156   502   500    1
  1157   832   813    2
  1158   355   353   ar
  1159    58    61   ar
  1160   376   377    1
  1161   376   378   ar
  1162   442   443   ar
  1163   207   208    1
  1164   207   202   ar
  1165    49    47    1
  1166  1207  1208    2
  1167   535   528   ar
  1168   353   354    1
  1169   843   844   ar
  1170   843   842    1
  1171   537   518    2
  1172   834   836    1
  1173  1252  1251   ar
  1174  1252  1258   ar
  1175   348   365    1
  1176   443   449   ar
  1177   379   385   ar
  1178   379   378   ar
  1179   349   350    1
  1180  1226  1227   ar
  1181   937   936    1
  1182   399   400   ar
  1183   931   932    1
  1184   931   926    1
  1185   567   569    1
  1186   567   568    1
  1187   567   565    1
  1188   936   938   ar
  1189   509   515   ar
  1190   509   510   ar
  1191  1203  1204    1
  1192   794   792    1
  1193   932   939   ar
  1194   365   386    1
  1195   365   367    1
  1196   844   845    2
  1197   426   427   ar
  1198  1408  1407    1
  1199  1218  1217    1
  1200   550   551   ar
  1201   504   515    1
  1202   504   499    1
  1203   203   202   ar
  1204   551   557   ar
  1205   569   564    1
  1206    63    53    1
  1207    63    62   ar
  1208   602   580    2
  1209   813   797    1
  1210   813   831    1
  1211   483   482   ar
  1212   483   485   ar
  1213    53    48    1
  1214  1014  1015   ar
  1215   482   488   ar
  1216  1015  1016    1
  1217  1285  1284    1
  1218   869   863   ar
  1219   869   868   ar
  1220   837   842    1
  1221   837   836    1
  1222   511   510   ar
  1223   511   512    2
  1224   580   601    1
  1225   580   566    1
  1226  1038  1039    2
  1227  1038  1040   ar
  1228  1286  1287    1
  1229  1286  1284    1
  1230   385   374    1
  1231  1271  1278   ar
  1232  1271  1270    1
  1233   529   528   ar
  1234   529   530    2
  1235   501   500    1
  1236   501   518    1
  1237  1258  1248    1
  1238   420   427   ar
  1239   420   419    1
  1240   942   928    1
  1241   942   962    2
  1242   942   963    1
  1243   448   449   ar
  1244  1407  1409    1
  1245   912   913   ar
  1246   886   892   ar
  1247   886   887   ar
  1248    61    62   ar
  1249  1041  1040   ar
  1250  1041  1042    2
  1251   515   514   ar
  1252  1260  1239    2
  1253   892   891   ar
  1254  1230  1236   ar
  1255  1230  1229   ar
  1256   528   527    1
  1257   928   927    1
  1258  1301  1287    1
  1259  1301  1322    2
  1260  1301  1321    1
  1261   914   913   ar
  1262   914   917   ar
  1263   556   557   ar
  1264   401   400   ar
  1265   401   407   ar
  1266   510   513   ar
  1267   927   925    1
  1268  1236  1225    1
  1269   842   840    1
  1270   367   366    1
  1271   500   498    1
  1272   565   566    1
  1273   565   563    1
  1274   836   838    1
  1275   449   439    1
  1276   406   407   ar
  1277   518   536    1
  1278   518   520    1
  1279   863   864   ar
  1280   871   868   ar
  1281   871   872   ar
  1282   418   417    1
  1283  1284  1282    1
  1284    47    48    1
  1285    47    45    1
  1286   499   498    1
  1287   939   938   ar
  1288   868   867   ar
  1289  1227  1229   ar
  1290  1227  1228    1
  1291   485   486   ar
  1292   557   547    1
  1293   913   919   ar
  1294   926   925    1
  1295   489   488    2
  1296   488   487   ar
  1297   498   496    1
  1298   888   887    1
  1299    33    32    1
  1300  1217  1219    1
  1301   419   417    1
  1302   419   414    1
  1303   838   840    1
  1304   838   839    1
  1305   564   563    1
  1306    38    37    2
  1307    31    32   ar
  1308    31    37   ar
  1309  1270  1268    1
  1310  1270  1265    1
  1311   559   538    2
  1312   407   397    1
  1313   887   889   ar
  1314   925   923    1
  1315   519   520    1
  1316   519   521    1
  1317   374   369    1
  1318   374   372    1
  1319   917   918   ar
  1320   875   853    2
  1321   514   513   ar
  1322   369   368    1
  1323   417   415    1
  1324  1248  1243    1
  1325  1248  1246    1
  1326  1221  1219    1
  1327  1221  1223    1
  1328  1221  1222    1
  1329    32    34   ar
  1330   840   841    1
  1331  1220  1225    1
  1332  1220  1219    1
  1333    37    36   ar
  1334   891   894   ar
  1335   891   890   ar
  1336  1409  1410    1
  1337  1409  1411    1
  1338   409   388    2
  1339    46    45    1
  1340    46    44    1
  1341  1268  1269    1
  1342  1268  1266    1
  1343   563   561    1
  1344  1225  1223    1
  1345  1410  1415    1
  1346  1239  1222    1
  1347  1239  1241    1
  1348  1239  1259    1
  1349   527   522    1
  1350   527   525    1
  1351   366   368    1
  1352   872   873   ar
  1353   439   434    1
  1354   439   437    1
  1355  1243  1242    1
  1356   522   521    1
  1357   864   865    1
  1358   864   866   ar
  1359   486   487   ar
  1360   486   492   ar
  1361   523   521    1
  1362   523   525    1
  1363   523   524    1
  1364   487   490   ar
  1365  1223  1224    1
  1366   579   560    2
  1367  1283  1282    1
  1368  1283  1281    1
  1369   894   895   ar
  1370   867   866   ar
  1371   867   873   ar
  1372   562   561    1
  1373   562   560    1
  1374  1240  1241    1
  1375  1240  1242    1
  1376   370   368    1
  1377   370   372    1
  1378   370   371    1
  1379   839   853    1
  1380   547   545    1
  1381   547   542    1
  1382  1422  1423   ar
  1383  1422  1420   ar
  1384   434   433    1
  1385   919   918   ar
  1386   919   908    1
  1387  1265  1264    1
  1388   414   413    1
  1389   372   373    1
  1390  1421  1420    1
  1391   525   526    1
  1392  1423  1416   ar
  1393   496   497    1
  1394  1246  1244    1
  1395  1246  1247    1
  1396  1411  1412    1
  1397  1411  1413    1
  1398  1420  1419   ar
  1399    34    35   ar
  1400  1280  1261    2
  1401   889   890   ar
  1402    65    44    2
  1403  1244  1242    1
  1404  1244  1245    1
  1405    36    35   ar
  1406    36    39   ar
  1407   545   543    1
  1408   545   546    1
  1409   890   896   ar
  1410   538   540    1
  1411   538   524    1
  1412   538   558    1
  1413   853   855    1
  1414   853   874    1
  1415  1266  1264    1
  1416  1266  1267    1
  1417   397   392    1
  1418   397   395    1
  1419   540   539    1
  1420   873   862    1
  1421   416   415    1
  1422   416   430    1
  1423  1416  1415    1
  1424  1416  1417   ar
  1425   923   924    1
  1426    44    64    1
  1427    44    27    1
  1428  1419  1417   ar
  1429   437   438    1
  1430   437   435    1
  1431    35    41   ar
  1432   415   413    1
  1433  1415  1413    1
  1434  1417  1418    2
  1435   543   544    1
  1436   543   541    1
  1437   388   390    1
  1438   388   371    1
  1439   388   408    1
  1440   560   544    1
  1441   560   578    1
  1442   542   541    1
  1443  1300  1281    2
  1444   480   479    1
  1445   492   481    1
  1446   492   491   ar
  1447   924   922    1
  1448   497   495    1
  1449   390   389    1
  1450   908   906    1
  1451   908   903    1
  1452    39    40   ar
  1453  1263  1261    1
  1454  1263  1262    1
  1455   451   430    2
  1456   392   391    1
  1457   479   481    1
  1458   479   477    1
  1459   490   491   ar
  1460   906   907    1
  1461   906   904    1
  1462   855   854    1
  1463  1264  1262    1
  1464  1281  1267    1
  1465  1281  1299    1
  1466   895   896   ar
  1467   413   411    1
  1468   395   393    1
  1469   395   396    1
  1470   481   476    1
  1471   432   430    1
  1472   432   431    1
  1473  1261  1245    1
  1474  1261  1279    1
  1475  1413  1414    1
  1476   433   431    1
  1477   433   435    1
  1478    28    29    1
  1479    28    26    1
  1480    28    30    1
  1481   429   410    2
  1482   430   450    1
  1483   896   885    1
  1484    41    40   ar
  1485    41    30    1
  1486   541   539    1
  1487   412   411    1
  1488   412   410    1
  1489   393   391    1
  1490   393   394    1
  1491    27    26    1
  1492   435   436    1
  1493   862   857    1
  1494   862   860    1
  1495   857   856    1
  1496    26    24    1
  1497   391   389    1
  1498   904   905    1
  1499   904   902    1
  1500    17    16    2
  1501    30    25    1
  1502   903   902    1
  1503   898   876    2
  1504   922   941    2
  1505   922   905    1
  1506   922   940    1
  1507   410   394    1
  1508   410   428    1
  1509   477   478    1
  1510   477   475    1
  1511   854   856    1
  1512   436   452    1
  1513   495   478    1
  1514   495   517    2
  1515   495   516    1
  1516   476   475    1
  1517    43    21    2
  1518   858   860    1
  1519   858   856    1
  1520   858   859    1
  1521   860   861    1
  1522   885   883    1
  1523   885   880    1
  1524   921   899    2
  1525    16    10   ar
  1526    16    15   ar
  1527   902   900    1
  1528   901   900    1
  1529   901   899    1
  1530   883   881    1
  1531   883   884    1
  1532   475   473    1
  1533    25    24    1
  1534    24    22    1
  1535    10    11   ar
  1536    18    15   ar
  1537    18    19   ar
  1538    23    21    1
  1539    23    22    1
  1540   876   878    1
  1541   876   859    1
  1542   876   897    1
  1543   878   877    1
  1544    15    14   ar
  1545   880   879    1
  1546     2     1    1
  1547    21    42    1
  1548    21     6    1
  1549   881   879    1
  1550   881   882    1
  1551   452   471    2
  1552   452   470    1
  1553   452   454    1
  1554   899   882    1
  1555   899   920    1
  1556   474   473    1
  1557   474   472    1
  1558    19    20   ar
  1559    11    12    1
  1560    11    13   ar
  1561   454   453    1
  1562   879   877    1
  1563    14    13   ar
  1564    14    20   ar
  1565     1     3    1
  1566   453   455    1
  1567   494   472    2
  1568     5     6    1
  1569     5     3    1
  1570     5     7    1
  1571    20     9    1
  1572   472   458    1
  1573   472   493    1
  1574   457   455    1
  1575   457   458    1
  1576   457   459    1
  1577     3     4    1
  1578     7     9    1
  1579     7     8    1
  1580   455   456    1
  1581     9     4    1
  1582   459   460    1
  1583   459   461    1
  1584   456   461    1
  1585   461   462    1
  1586   469   468   ar
  1587   469   462   ar
  1588   468   466   ar
  1589   462   463   ar
  1590   463   465   ar
  1591   463   464    2
  1592   466   465   ar
  1593   466   467    2
